MODEL 1
REMARK VINA RESULT:      -5.4      0.000      0.000
REMARK  9 active torsions:
REMARK  status: ('A' for Active; 'I' for Inactive)
REMARK    1  A    between atoms: N_2  and  S_1 
REMARK    2  A    between atoms: C_9  and  S_1 
REMARK    3  A    between atoms: C_4  and  N_2 
REMARK    4  A    between atoms: O_19  and  C_6 
REMARK    5  A    between atoms: O_22  and  C_7 
REMARK       I    between atoms: C_12  and  N_13 
REMARK    6  A    between atoms: C_20  and  C_12 
REMARK    7  A    between atoms: N_13  and  C_17 
REMARK    8  A    between atoms: O_18  and  C_20 
REMARK    9  A    between atoms: C_21  and  O_18 
ROOT
ATOM      1  C   UNL d   1     -45.552  12.609  22.675  0.00  0.00     0.105 A 
ATOM      2  C   UNL d   1     -45.461  13.197  22.103  0.00  0.00     0.015 A 
ATOM      3  C   UNL d   1     -44.956  12.087  22.824  0.00  0.00     0.015 A 
ATOM      4  C   UNL d   1     -44.157  12.712  21.843  0.00  0.00     0.085 A 
ATOM      5  C   UNL d   1     -44.758  13.255  21.678  0.00  0.00     0.020 A 
ATOM      6  C   UNL d   1     -44.243  12.131  22.407  0.00  0.00     0.020 A 
ENDROOT
BRANCH   1   7
ATOM      7  S   UNL d   1     -46.268  12.554  23.105  0.00  0.00     0.287 S 
ATOM      8  O   UNL d   1     -46.002  13.163  23.611  0.00  0.00    -0.198 OA
ATOM      9  O   UNL d   1     -46.515  11.952  22.596  0.00  0.00    -0.198 OA
BRANCH   7  10
ATOM     10  N   UNL d   1     -46.972  12.504  23.534  0.00  0.00    -0.139 NA
BRANCH  10  11
ATOM     11  C   UNL d   1     -47.666  12.841  23.254  0.00  0.00     0.182 A 
ATOM     12  N   UNL d   1     -47.760  13.640  23.255  0.00  0.00    -0.185 NA
ATOM     13  C   UNL d   1     -48.462  13.983  22.972  0.00  0.00     0.274 A 
ATOM     14  N   UNL d   1     -49.057  13.529  22.694  0.00  0.00    -0.181 NA
ATOM     15  C   UNL d   1     -48.979  12.714  22.685  0.00  0.00     0.185 A 
ATOM     16  C   UNL d   1     -48.255  12.359  22.977  0.00  0.00     0.084 A 
BRANCH  13  17
ATOM     17  O   UNL d   1     -48.550  14.821  22.978  0.00  0.00    -0.297 OA
ATOM     18  C   UNL d   1     -48.799  15.234  22.320  0.00  0.00     0.185 C 
ENDBRANCH  13  17
BRANCH  15  19
ATOM     19  O   UNL d   1     -49.619  12.262  22.387  0.00  0.00    -0.312 OA
ATOM     20  C   UNL d   1     -50.122  11.889  22.922  0.00  0.00     0.183 C 
ENDBRANCH  15  19
ENDBRANCH  10  11
ENDBRANCH   7  10
ENDBRANCH   1   7
BRANCH   4  21
ATOM     21  N   UNL d   1     -43.439  12.753  21.425  0.00  0.00    -0.206 NA
ATOM     22  C   UNL d   1     -43.040  13.433  21.406  0.00  0.00     0.304 C 
ATOM     23  O   UNL d   1     -43.317  14.129  21.798  0.00  0.00    -0.263 OA
BRANCH  22  24
ATOM     24  C   UNL d   1     -42.310  13.493  20.987  0.00  0.00     0.185 C 
BRANCH  24  25
ATOM     25  O   UNL d   1     -41.817  14.147  21.036  0.00  0.00    -0.300 OA
BRANCH  25  26
ATOM     26  C   UNL d   1     -41.138  14.157  20.603  0.00  0.00     0.100 A 
ATOM     27  C   UNL d   1     -40.404  14.130  21.003  0.00  0.00     0.025 A 
ATOM     28  C   UNL d   1     -39.676  14.139  20.576  0.00  0.00     0.002 A 
ATOM     29  C   UNL d   1     -39.681  14.172  19.802  0.00  0.00     0.000 A 
ATOM     30  C   UNL d   1     -40.435  14.200  19.377  0.00  0.00     0.002 A 
ATOM     31  C   UNL d   1     -38.934  14.180  19.376  0.00  0.00     0.000 C 
ATOM     32  C   UNL d   1     -41.130  14.190  19.811  0.00  0.00     0.025 A 
ENDBRANCH  25  26
ENDBRANCH  24  25
ENDBRANCH  22  24
ENDBRANCH   4  21
TORSDOF 9
ENDMDL
MODEL 2
REMARK VINA RESULT:      -5.4      1.183      1.650
REMARK  9 active torsions:
REMARK  status: ('A' for Active; 'I' for Inactive)
REMARK    1  A    between atoms: N_2  and  S_1 
REMARK    2  A    between atoms: C_9  and  S_1 
REMARK    3  A    between atoms: C_4  and  N_2 
REMARK    4  A    between atoms: O_19  and  C_6 
REMARK    5  A    between atoms: O_22  and  C_7 
REMARK       I    between atoms: C_12  and  N_13 
REMARK    6  A    between atoms: C_20  and  C_12 
REMARK    7  A    between atoms: N_13  and  C_17 
REMARK    8  A    between atoms: O_18  and  C_20 
REMARK    9  A    between atoms: C_21  and  O_18 
ROOT
ATOM      1  C   UNL d   1     -46.705  12.979  22.768  0.00  0.00     0.105 A 
ATOM      2  C   UNL d   1     -46.247  12.294  22.813  0.00  0.00     0.015 A 
ATOM      3  C   UNL d   1     -46.366  13.688  22.588  0.00  0.00     0.015 A 
ATOM      4  C   UNL d   1     -45.104  13.064  22.490  0.00  0.00     0.085 A 
ATOM      5  C   UNL d   1     -45.436  12.330  22.673  0.00  0.00     0.020 A 
ATOM      6  C   UNL d   1     -45.553  13.742  22.445  0.00  0.00     0.020 A 
ENDROOT
BRANCH   1   7
ATOM      7  S   UNL d   1     -47.529  12.938  22.911  0.00  0.00     0.287 S 
ATOM      8  O   UNL d   1     -47.632  12.571  22.168  0.00  0.00    -0.198 OA
ATOM      9  O   UNL d   1     -47.410  13.302  23.642  0.00  0.00    -0.198 OA
BRANCH   7  10
ATOM     10  N   UNL d   1     -48.343  12.895  23.045  0.00  0.00    -0.139 NA
BRANCH  10  11
ATOM     11  C   UNL d   1     -48.854  13.471  22.759  0.00  0.00     0.182 A 
ATOM     12  N   UNL d   1     -48.866  14.204  23.091  0.00  0.00    -0.185 NA
ATOM     13  C   UNL d   1     -49.383  14.788  22.803  0.00  0.00     0.274 A 
ATOM     14  N   UNL d   1     -49.876  14.635  22.194  0.00  0.00    -0.181 NA
ATOM     15  C   UNL d   1     -49.877  13.894  21.844  0.00  0.00     0.185 A 
ATOM     16  C   UNL d   1     -49.344  13.291  22.141  0.00  0.00     0.084 A 
BRANCH  13  17
ATOM     17  O   UNL d   1     -49.387  15.552  23.157  0.00  0.00    -0.297 OA
ATOM     18  C   UNL d   1     -49.957  15.774  23.698  0.00  0.00     0.185 C 
ENDBRANCH  13  17
BRANCH  15  19
ATOM     19  O   UNL d   1     -50.405  13.762  21.207  0.00  0.00    -0.312 OA
ATOM     20  C   UNL d   1     -51.056  13.272  21.329  0.00  0.00     0.183 C 
ENDBRANCH  15  19
ENDBRANCH  10  11
ENDBRANCH   7  10
ENDBRANCH   1   7
BRANCH   4  21
ATOM     21  N   UNL d   1     -44.287  13.122  22.345  0.00  0.00    -0.206 NA
ATOM     22  C   UNL d   1     -44.002  12.903  21.644  0.00  0.00     0.304 C 
ATOM     23  O   UNL d   1     -44.498  12.609  21.026  0.00  0.00    -0.263 OA
BRANCH  22  24
ATOM     24  C   UNL d   1     -43.175  12.955  21.479  0.00  0.00     0.185 C 
BRANCH  24  25
ATOM     25  O   UNL d   1     -42.870  13.369  20.840  0.00  0.00    -0.300 OA
BRANCH  25  26
ATOM     26  C   UNL d   1     -42.146  13.714  20.909  0.00  0.00     0.100 A 
ATOM     27  C   UNL d   1     -42.099  14.547  20.958  0.00  0.00     0.025 A 
ATOM     28  C   UNL d   1     -41.354  14.937  21.031  0.00  0.00     0.002 A 
ATOM     29  C   UNL d   1     -40.700  14.522  21.053  0.00  0.00     0.000 A 
ATOM     30  C   UNL d   1     -40.736  13.659  21.002  0.00  0.00     0.002 A 
ATOM     31  C   UNL d   1     -39.946  14.930  21.127  0.00  0.00     0.000 C 
ATOM     32  C   UNL d   1     -41.469  13.301  20.932  0.00  0.00     0.025 A 
ENDBRANCH  25  26
ENDBRANCH  24  25
ENDBRANCH  22  24
ENDBRANCH   4  21
TORSDOF 9
ENDMDL
MODEL 3
REMARK VINA RESULT:      -4.8      2.682      7.598
REMARK  9 active torsions:
REMARK  status: ('A' for Active; 'I' for Inactive)
REMARK    1  A    between atoms: N_2  and  S_1 
REMARK    2  A    between atoms: C_9  and  S_1 
REMARK    3  A    between atoms: C_4  and  N_2 
REMARK    4  A    between atoms: O_19  and  C_6 
REMARK    5  A    between atoms: O_22  and  C_7 
REMARK       I    between atoms: C_12  and  N_13 
REMARK    6  A    between atoms: C_20  and  C_12 
REMARK    7  A    between atoms: N_13  and  C_17 
REMARK    8  A    between atoms: O_18  and  C_20 
REMARK    9  A    between atoms: C_21  and  O_18 
ROOT
ATOM      1  C   UNL d   1     -41.018  14.263  20.448  0.00  0.00     0.105 A 
ATOM      2  C   UNL d   1     -41.024  13.508  20.782  0.00  0.00     0.015 A 
ATOM      3  C   UNL d   1     -41.649  14.757  20.541  0.00  0.00     0.015 A 
ATOM      4  C   UNL d   1     -42.314  13.771  21.299  0.00  0.00     0.085 A 
ATOM      5  C   UNL d   1     -41.677  13.252  21.214  0.00  0.00     0.020 A 
ATOM      6  C   UNL d   1     -42.312  14.516  20.972  0.00  0.00     0.020 A 
ENDROOT
BRANCH   1   7
ATOM      7  S   UNL d   1     -40.353  14.519  20.009  0.00  0.00     0.287 S 
ATOM      8  O   UNL d   1     -40.050  13.741  20.029  0.00  0.00    -0.198 OA
ATOM      9  O   UNL d   1     -40.666  15.283  19.999  0.00  0.00    -0.198 OA
BRANCH   7  10
ATOM     10  N   UNL d   1     -39.693  14.764  19.576  0.00  0.00    -0.139 NA
BRANCH  10  11
ATOM     11  C   UNL d   1     -39.665  14.685  18.760  0.00  0.00     0.182 A 
ATOM     12  N   UNL d   1     -39.982  15.252  18.285  0.00  0.00    -0.185 NA
ATOM     13  C   UNL d   1     -39.954  15.173  17.458  0.00  0.00     0.274 A 
ATOM     14  N   UNL d   1     -39.614  14.536  17.119  0.00  0.00    -0.181 NA
ATOM     15  C   UNL d   1     -39.286  13.949  17.586  0.00  0.00     0.185 A 
ATOM     16  C   UNL d   1     -39.314  14.030  18.440  0.00  0.00     0.084 A 
BRANCH  13  17
ATOM     17  O   UNL d   1     -40.290  15.773  16.971  0.00  0.00    -0.297 OA
ATOM     18  C   UNL d   1     -41.050  15.716  16.677  0.00  0.00     0.185 C 
ENDBRANCH  13  17
BRANCH  15  19
ATOM     19  O   UNL d   1     -38.935  13.292  17.202  0.00  0.00    -0.312 OA
ATOM     20  C   UNL d   1     -38.177  13.376  16.889  0.00  0.00     0.183 C 
ENDBRANCH  15  19
ENDBRANCH  10  11
ENDBRANCH   7  10
ENDBRANCH   1   7
BRANCH   4  21
ATOM     21  N   UNL d   1     -42.984  13.532  21.732  0.00  0.00    -0.206 NA
ATOM     22  C   UNL d   1     -43.494  13.026  21.408  0.00  0.00     0.304 C 
ATOM     23  O   UNL d   1     -43.387  12.714  20.630  0.00  0.00    -0.263 OA
BRANCH  22  24
ATOM     24  C   UNL d   1     -44.179  12.773  21.832  0.00  0.00     0.185 C 
BRANCH  24  25
ATOM     25  O   UNL d   1     -44.786  13.281  22.048  0.00  0.00    -0.300 OA
BRANCH  25  26
ATOM     26  C   UNL d   1     -45.429  12.980  22.428  0.00  0.00     0.100 A 
ATOM     27  C   UNL d   1     -46.153  13.395  22.385  0.00  0.00     0.025 A 
ATOM     28  C   UNL d   1     -46.844  13.105  22.774  0.00  0.00     0.002 A 
ATOM     29  C   UNL d   1     -46.813  12.445  23.178  0.00  0.00     0.000 A 
ATOM     30  C   UNL d   1     -46.069  12.007  23.229  0.00  0.00     0.002 A 
ATOM     31  C   UNL d   1     -47.523  12.158  23.570  0.00  0.00     0.000 C 
ATOM     32  C   UNL d   1     -45.410  12.306  22.845  0.00  0.00     0.025 A 
ENDBRANCH  25  26
ENDBRANCH  24  25
ENDBRANCH  22  24
ENDBRANCH   4  21
TORSDOF 9
ENDMDL
MODEL 4
REMARK VINA RESULT:      -3.5      2.000      7.284
REMARK  9 active torsions:
REMARK  status: ('A' for Active; 'I' for Inactive)
REMARK    1  A    between atoms: N_2  and  S_1 
REMARK    2  A    between atoms: C_9  and  S_1 
REMARK    3  A    between atoms: C_4  and  N_2 
REMARK    4  A    between atoms: O_19  and  C_6 
REMARK    5  A    between atoms: O_22  and  C_7 
REMARK       I    between atoms: C_12  and  N_13 
REMARK    6  A    between atoms: C_20  and  C_12 
REMARK    7  A    between atoms: N_13  and  C_17 
REMARK    8  A    between atoms: O_18  and  C_20 
REMARK    9  A    between atoms: C_21  and  O_18 
ROOT
ATOM      1  C   UNL d   1     -42.313  13.667  21.140  0.00  0.00     0.105 A 
ATOM      2  C   UNL d   1     -42.986  14.142  21.082  0.00  0.00     0.015 A 
ATOM      3  C   UNL d   1     -42.377  12.890  21.346  0.00  0.00     0.015 A 
ATOM      4  C   UNL d   1     -43.778  13.027  21.443  0.00  0.00     0.085 A 
ATOM      5  C   UNL d   1     -43.730  13.825  21.233  0.00  0.00     0.020 A 
ATOM      6  C   UNL d   1     -43.117  12.555  21.502  0.00  0.00     0.020 A 
ENDROOT
BRANCH   1   7
ATOM      7  S   UNL d   1     -41.558  13.994  20.985  0.00  0.00     0.287 S 
ATOM      8  O   UNL d   1     -41.244  13.223  20.930  0.00  0.00    -0.198 OA
ATOM      9  O   UNL d   1     -41.885  14.750  21.043  0.00  0.00    -0.198 OA
BRANCH   7  10
ATOM     10  N   UNL d   1     -40.810  14.310  20.832  0.00  0.00    -0.139 NA
BRANCH  10  11
ATOM     11  C   UNL d   1     -40.552  14.441  20.064  0.00  0.00     0.182 A 
ATOM     12  N   UNL d   1     -40.069  13.909  19.701  0.00  0.00    -0.185 NA
ATOM     13  C   UNL d   1     -39.806  14.040  18.924  0.00  0.00     0.274 A 
ATOM     14  N   UNL d   1     -40.027  14.693  18.521  0.00  0.00    -0.181 NA
ATOM     15  C   UNL d   1     -40.518  15.245  18.874  0.00  0.00     0.185 A 
ATOM     16  C   UNL d   1     -40.790  15.111  19.677  0.00  0.00     0.084 A 
BRANCH  13  17
ATOM     17  O   UNL d   1     -39.301  13.477  18.553  0.00  0.00    -0.297 OA
ATOM     18  C   UNL d   1     -38.716  13.700  18.028  0.00  0.00     0.185 C 
ENDBRANCH  13  17
BRANCH  15  19
ATOM     19  O   UNL d   1     -40.734  15.921  18.428  0.00  0.00    -0.312 OA
ATOM     20  C   UNL d   1     -41.311  15.843  17.846  0.00  0.00     0.183 C 
ENDBRANCH  15  19
ENDBRANCH  10  11
ENDBRANCH   7  10
ENDBRANCH   1   7
BRANCH   4  21
ATOM     21  N   UNL d   1     -44.521  12.686  21.600  0.00  0.00    -0.206 NA
ATOM     22  C   UNL d   1     -45.023  13.058  22.081  0.00  0.00     0.304 C 
ATOM     23  O   UNL d   1     -44.836  13.797  22.445  0.00  0.00    -0.263 OA
BRANCH  22  24
ATOM     24  C   UNL d   1     -45.781  12.727  22.251  0.00  0.00     0.185 C 
BRANCH  24  25
ATOM     25  O   UNL d   1     -46.403  13.166  22.557  0.00  0.00    -0.300 OA
BRANCH  25  26
ATOM     26  C   UNL d   1     -47.118  12.809  22.659  0.00  0.00     0.100 A 
ATOM     27  C   UNL d   1     -47.190  12.212  23.240  0.00  0.00     0.025 A 
ATOM     28  C   UNL d   1     -47.926  11.820  23.371  0.00  0.00     0.002 A 
ATOM     29  C   UNL d   1     -48.548  12.012  22.950  0.00  0.00     0.000 A 
ATOM     30  C   UNL d   1     -48.484  12.628  22.346  0.00  0.00     0.002 A 
ATOM     31  C   UNL d   1     -49.293  11.606  23.091  0.00  0.00     0.000 C 
ATOM     32  C   UNL d   1     -47.761  12.996  22.235  0.00  0.00     0.025 A 
ENDBRANCH  25  26
ENDBRANCH  24  25
ENDBRANCH  22  24
ENDBRANCH   4  21
TORSDOF 9
ENDMDL
