MODEL 1
REMARK VINA RESULT:      -9.5      0.000      0.000
REMARK  7 active torsions:
REMARK  status: ('A' for Active; 'I' for Inactive)
REMARK    1  A    between atoms: C_12  and  C_1 
REMARK    2  A    between atoms: C_14  and  C_4 
REMARK       I    between atoms: C_10  and  N_9 
REMARK    3  A    between atoms: O_22  and  C_10 
REMARK    4  A    between atoms: O_23  and  C_12 
REMARK    5  A    between atoms: N_13  and  C_14 
REMARK    6  A    between atoms: C_27  and  O_22 
REMARK    7  A    between atoms: C_28  and  O_23 
ROOT
ATOM      1  C   UNL d   1      53.888  33.383  54.370  0.00  0.00     0.088 A 
ATOM      2  C   UNL d   1      53.520  32.811  53.913  0.00  0.00     0.034 A 
ATOM      3  C   UNL d   1      53.718  32.062  54.212  0.00  0.00     0.100 A 
ATOM      4  C   UNL d   1      53.021  32.868  53.251  0.00  0.00     0.059 A 
ATOM      5  C   UNL d   1      54.325  32.986  54.967  0.00  0.00     0.105 A 
ATOM      6  O   UNL d   1      54.217  32.181  54.865  0.00  0.00    -0.307 OA
ATOM      7  C   UNL d   1      52.728  32.191  52.898  0.00  0.00     0.197 A 
ATOM      8  C   UNL d   1      53.418  31.386  53.850  0.00  0.00     0.026 A 
ATOM      9  C   UNL d   1      52.927  31.450  53.198  0.00  0.00     0.041 A 
ATOM     10  O   UNL d   1      52.228  32.244  52.236  0.00  0.00    -0.286 OA
ATOM     11  C   UNL d   1      54.777  33.350  55.546  0.00  0.00     0.027 C 
ATOM     12  C   UNL d   1      53.616  30.641  54.149  0.00  0.00     0.002 A 
ATOM     13  C   UNL d   1      52.629  30.770  52.839  0.00  0.00     0.003 A 
ATOM     14  C   UNL d   1      52.825  30.034  53.135  0.00  0.00     0.000 A 
ATOM     15  C   UNL d   1      53.323  29.969  53.797  0.00  0.00     0.000 A 
ENDROOT
BRANCH   4  16
ATOM     16  C   UNL d   1      52.823  33.617  52.951  0.00  0.00     0.084 C 
BRANCH  16  17
ATOM     17  N   UNL d   1      52.026  33.794  52.795  0.00  0.00    -0.300 N 
ATOM     18  C   UNL d   1      51.810  34.063  52.047  0.00  0.00     0.100 A 
ATOM     19  C   UNL d   1      51.012  34.240  51.891  0.00  0.00     0.104 A 
ATOM     20  N   UNL d   1      50.447  34.144  52.481  0.00  0.00    -0.249 N 
ATOM     21  C   UNL d   1      50.671  33.873  53.230  0.00  0.00     0.104 A 
ATOM     22  C   UNL d   1      49.678  34.314  52.330  0.00  0.00     0.378 C 
ATOM     23  C   UNL d   1      51.457  33.699  53.384  0.00  0.00     0.100 A 
ATOM     24  O   UNL d   1      49.102  34.222  52.915  0.00  0.00    -0.237 OA
BRANCH  22  25
ATOM     25  O   UNL d   1      49.446  34.587  51.580  0.00  0.00    -0.257 OA
BRANCH  25  26
ATOM     26  C   UNL d   1      48.649  34.767  51.448  0.00  0.00     0.128 C 
ATOM     27  C   UNL d   1      48.361  34.795  50.673  0.00  0.00     0.029 C 
ENDBRANCH  25  26
ENDBRANCH  22  25
ENDBRANCH  16  17
ENDBRANCH   4  16
BRANCH   1  28
ATOM     28  C   UNL d   1      53.831  34.193  54.253  0.00  0.00     0.302 C 
ATOM     29  O   UNL d   1      54.201  34.557  53.619  0.00  0.00    -0.259 OA
BRANCH  28  30
ATOM     30  O   UNL d   1      53.389  34.647  54.789  0.00  0.00    -0.271 OA
BRANCH  30  31
ATOM     31  C   UNL d   1      53.530  35.457  54.853  0.00  0.00     0.126 C 
ATOM     32  C   UNL d   1      52.949  35.953  55.177  0.00  0.00     0.029 C 
ENDBRANCH  30  31
ENDBRANCH  28  30
ENDBRANCH   1  28
TORSDOF 7
ENDMDL
MODEL 2
REMARK VINA RESULT:      -7.5      1.439      4.120
REMARK  7 active torsions:
REMARK  status: ('A' for Active; 'I' for Inactive)
REMARK    1  A    between atoms: C_12  and  C_1 
REMARK    2  A    between atoms: C_14  and  C_4 
REMARK       I    between atoms: C_10  and  N_9 
REMARK    3  A    between atoms: O_22  and  C_10 
REMARK    4  A    between atoms: O_23  and  C_12 
REMARK    5  A    between atoms: N_13  and  C_14 
REMARK    6  A    between atoms: C_27  and  O_22 
REMARK    7  A    between atoms: C_28  and  O_23 
ROOT
ATOM      1  C   UNL d   1      53.260  34.569  53.977  0.00  0.00     0.088 A 
ATOM      2  C   UNL d   1      52.676  34.180  53.555  0.00  0.00     0.034 A 
ATOM      3  C   UNL d   1      51.993  34.653  53.548  0.00  0.00     0.100 A 
ATOM      4  C   UNL d   1      52.669  33.446  53.167  0.00  0.00     0.059 A 
ATOM      5  C   UNL d   1      52.940  35.299  54.240  0.00  0.00     0.105 A 
ATOM      6  O   UNL d   1      52.166  35.344  53.975  0.00  0.00    -0.307 OA
ATOM      7  C   UNL d   1      51.995  33.191  52.781  0.00  0.00     0.197 A 
ATOM      8  C   UNL d   1      51.318  34.388  53.157  0.00  0.00     0.026 A 
ATOM      9  C   UNL d   1      51.319  33.662  52.776  0.00  0.00     0.041 A 
ATOM     10  O   UNL d   1      51.984  32.457  52.392  0.00  0.00    -0.286 OA
ATOM     11  C   UNL d   1      53.338  35.861  54.684  0.00  0.00     0.027 C 
ATOM     12  C   UNL d   1      50.639  34.860  53.151  0.00  0.00     0.002 A 
ATOM     13  C   UNL d   1      50.641  33.402  52.386  0.00  0.00     0.003 A 
ATOM     14  C   UNL d   1      49.970  33.868  52.381  0.00  0.00     0.000 A 
ATOM     15  C   UNL d   1      49.969  34.604  52.767  0.00  0.00     0.000 A 
ENDROOT
BRANCH   4  16
ATOM     16  C   UNL d   1      53.352  32.973  53.174  0.00  0.00     0.084 C 
BRANCH  16  17
ATOM     17  N   UNL d   1      53.280  32.157  53.313  0.00  0.00    -0.300 N 
ATOM     18  C   UNL d   1      53.217  31.882  54.087  0.00  0.00     0.100 A 
ATOM     19  C   UNL d   1      53.144  31.064  54.226  0.00  0.00     0.104 A 
ATOM     20  N   UNL d   1      53.136  30.540  53.593  0.00  0.00    -0.249 N 
ATOM     21  C   UNL d   1      53.199  30.823  52.817  0.00  0.00     0.104 A 
ATOM     22  C   UNL d   1      53.066  29.752  53.727  0.00  0.00     0.378 C 
ATOM     23  C   UNL d   1      53.271  31.628  52.681  0.00  0.00     0.100 A 
ATOM     24  O   UNL d   1      53.056  29.216  53.099  0.00  0.00    -0.237 OA
BRANCH  22  25
ATOM     25  O   UNL d   1      53.002  29.461  54.503  0.00  0.00    -0.257 OA
BRANCH  25  26
ATOM     26  C   UNL d   1      53.273  28.696  54.667  0.00  0.00     0.128 C 
ATOM     27  C   UNL d   1      53.317  28.440  55.453  0.00  0.00     0.029 C 
ENDBRANCH  25  26
ENDBRANCH  22  25
ENDBRANCH  16  17
ENDBRANCH   4  16
BRANCH   1  28
ATOM     28  C   UNL d   1      54.018  34.285  54.111  0.00  0.00     0.302 C 
ATOM     29  O   UNL d   1      54.553  34.199  53.495  0.00  0.00    -0.259 OA
BRANCH  28  30
ATOM     30  O   UNL d   1      54.242  34.081  54.883  0.00  0.00    -0.271 OA
BRANCH  30  31
ATOM     31  C   UNL d   1      55.042  34.033  55.079  0.00  0.00     0.126 C 
ATOM     32  C   UNL d   1      55.268  33.748  55.824  0.00  0.00     0.029 C 
ENDBRANCH  30  31
ENDBRANCH  28  30
ENDBRANCH   1  28
TORSDOF 7
ENDMDL
MODEL 3
REMARK VINA RESULT:      -6.8      0.984      2.969
REMARK  7 active torsions:
REMARK  status: ('A' for Active; 'I' for Inactive)
REMARK    1  A    between atoms: C_12  and  C_1 
REMARK    2  A    between atoms: C_14  and  C_4 
REMARK       I    between atoms: C_10  and  N_9 
REMARK    3  A    between atoms: O_22  and  C_10 
REMARK    4  A    between atoms: O_23  and  C_12 
REMARK    5  A    between atoms: N_13  and  C_14 
REMARK    6  A    between atoms: C_27  and  O_22 
REMARK    7  A    between atoms: C_28  and  O_23 
ROOT
ATOM      1  C   UNL d   1      53.519  31.591  53.327  0.00  0.00     0.088 A 
ATOM      2  C   UNL d   1      53.404  32.316  53.690  0.00  0.00     0.034 A 
ATOM      3  C   UNL d   1      54.135  32.589  53.975  0.00  0.00     0.100 A 
ATOM      4  C   UNL d   1      52.722  32.777  53.805  0.00  0.00     0.059 A 
ATOM      5  C   UNL d   1      54.335  31.405  53.384  0.00  0.00     0.105 A 
ATOM      6  O   UNL d   1      54.706  32.018  53.781  0.00  0.00    -0.307 OA
ATOM      7  C   UNL d   1      52.771  33.493  54.195  0.00  0.00     0.197 A 
ATOM      8  C   UNL d   1      54.174  33.313  54.367  0.00  0.00     0.026 A 
ATOM      9  C   UNL d   1      53.498  33.761  54.476  0.00  0.00     0.041 A 
ATOM     10  O   UNL d   1      52.091  33.957  54.312  0.00  0.00    -0.286 OA
ATOM     11  C   UNL d   1      54.690  30.727  53.092  0.00  0.00     0.027 C 
ATOM     12  C   UNL d   1      54.903  33.584  54.650  0.00  0.00     0.002 A 
ATOM     13  C   UNL d   1      53.543  34.485  54.869  0.00  0.00     0.003 A 
ATOM     14  C   UNL d   1      54.263  34.752  55.149  0.00  0.00     0.000 A 
ATOM     15  C   UNL d   1      54.950  34.297  55.038  0.00  0.00     0.000 A 
ENDROOT
BRANCH   4  16
ATOM     16  C   UNL d   1      51.991  32.503  53.520  0.00  0.00     0.084 C 
BRANCH  16  17
ATOM     17  N   UNL d   1      51.461  33.044  53.179  0.00  0.00    -0.300 N 
ATOM     18  C   UNL d   1      50.768  33.240  53.580  0.00  0.00     0.100 A 
ATOM     19  C   UNL d   1      50.237  33.782  53.238  0.00  0.00     0.104 A 
ATOM     20  N   UNL d   1      50.407  34.116  52.506  0.00  0.00    -0.249 N 
ATOM     21  C   UNL d   1      51.104  33.915  52.108  0.00  0.00     0.104 A 
ATOM     22  C   UNL d   1      49.895  34.638  52.177  0.00  0.00     0.378 C 
ATOM     23  C   UNL d   1      51.627  33.381  52.445  0.00  0.00     0.100 A 
ATOM     24  O   UNL d   1      50.054  34.981  51.442  0.00  0.00    -0.237 OA
BRANCH  22  25
ATOM     25  O   UNL d   1      49.192  34.845  52.570  0.00  0.00    -0.257 OA
BRANCH  25  26
ATOM     26  C   UNL d   1      48.658  35.355  52.195  0.00  0.00     0.128 C 
ATOM     27  C   UNL d   1      48.053  35.707  52.637  0.00  0.00     0.029 C 
ENDBRANCH  25  26
ENDBRANCH  22  25
ENDBRANCH  16  17
ENDBRANCH   4  16
BRANCH   1  28
ATOM     28  C   UNL d   1      52.931  31.139  52.975  0.00  0.00     0.302 C 
ATOM     29  O   UNL d   1      52.724  31.250  52.189  0.00  0.00    -0.259 OA
BRANCH  28  30
ATOM     30  O   UNL d   1      52.543  30.561  53.425  0.00  0.00    -0.271 OA
BRANCH  30  31
ATOM     31  C   UNL d   1      52.319  29.849  53.074  0.00  0.00     0.126 C 
ATOM     32  C   UNL d   1      51.945  29.264  53.528  0.00  0.00     0.029 C 
ENDBRANCH  30  31
ENDBRANCH  28  30
ENDBRANCH   1  28
TORSDOF 7
ENDMDL
MODEL 4
REMARK VINA RESULT:      -6.7      1.567      4.363
REMARK  7 active torsions:
REMARK  status: ('A' for Active; 'I' for Inactive)
REMARK    1  A    between atoms: C_12  and  C_1 
REMARK    2  A    between atoms: C_14  and  C_4 
REMARK       I    between atoms: C_10  and  N_9 
REMARK    3  A    between atoms: O_22  and  C_10 
REMARK    4  A    between atoms: O_23  and  C_12 
REMARK    5  A    between atoms: N_13  and  C_14 
REMARK    6  A    between atoms: C_27  and  O_22 
REMARK    7  A    between atoms: C_28  and  O_23 
ROOT
ATOM      1  C   UNL d   1      52.170  34.120  53.647  0.00  0.00     0.088 A 
ATOM      2  C   UNL d   1      52.913  33.807  53.790  0.00  0.00     0.034 A 
ATOM      3  C   UNL d   1      53.329  34.326  54.288  0.00  0.00     0.100 A 
ATOM      4  C   UNL d   1      53.279  33.108  53.531  0.00  0.00     0.059 A 
ATOM      5  C   UNL d   1      52.116  34.847  54.062  0.00  0.00     0.105 A 
ATOM      6  O   UNL d   1      52.827  34.967  54.452  0.00  0.00    -0.307 OA
ATOM      7  C   UNL d   1      54.043  32.932  53.765  0.00  0.00     0.197 A 
ATOM      8  C   UNL d   1      54.098  34.140  54.519  0.00  0.00     0.026 A 
ATOM      9  C   UNL d   1      54.452  33.449  54.260  0.00  0.00     0.041 A 
ATOM     10  O   UNL d   1      54.412  32.233  53.508  0.00  0.00    -0.286 OA
ATOM     11  C   UNL d   1      51.464  35.343  54.071  0.00  0.00     0.027 C 
ATOM     12  C   UNL d   1      54.510  34.658  55.015  0.00  0.00     0.002 A 
ATOM     13  C   UNL d   1      55.222  33.269  54.494  0.00  0.00     0.003 A 
ATOM     14  C   UNL d   1      55.629  33.780  54.984  0.00  0.00     0.000 A 
ATOM     15  C   UNL d   1      55.269  34.481  55.247  0.00  0.00     0.000 A 
ENDROOT
BRANCH   4  16
ATOM     16  C   UNL d   1      52.864  32.589  53.032  0.00  0.00     0.084 C 
BRANCH  16  17
ATOM     17  N   UNL d   1      52.876  31.774  53.194  0.00  0.00    -0.300 N 
ATOM     18  C   UNL d   1      52.878  31.515  53.977  0.00  0.00     0.100 A 
ATOM     19  C   UNL d   1      52.891  30.699  54.138  0.00  0.00     0.104 A 
ATOM     20  N   UNL d   1      52.900  30.159  53.518  0.00  0.00    -0.249 N 
ATOM     21  C   UNL d   1      52.897  30.425  52.734  0.00  0.00     0.104 A 
ATOM     22  C   UNL d   1      52.912  29.372  53.674  0.00  0.00     0.378 C 
ATOM     23  C   UNL d   1      52.886  31.229  52.576  0.00  0.00     0.100 A 
ATOM     24  O   UNL d   1      52.921  28.820  53.059  0.00  0.00    -0.237 OA
BRANCH  22  25
ATOM     25  O   UNL d   1      52.914  29.098  54.458  0.00  0.00    -0.257 OA
BRANCH  25  26
ATOM     26  C   UNL d   1      53.380  28.441  54.651  0.00  0.00     0.128 C 
ATOM     27  C   UNL d   1      53.438  28.202  55.442  0.00  0.00     0.029 C 
ENDBRANCH  25  26
ENDBRANCH  22  25
ENDBRANCH  16  17
ENDBRANCH   4  16
BRANCH   1  28
ATOM     28  C   UNL d   1      51.591  33.772  53.180  0.00  0.00     0.302 C 
ATOM     29  O   UNL d   1      51.062  33.231  53.493  0.00  0.00    -0.259 OA
BRANCH  28  30
ATOM     30  O   UNL d   1      51.546  33.976  52.377  0.00  0.00    -0.271 OA
BRANCH  30  31
ATOM     31  C   UNL d   1      50.816  33.974  51.994  0.00  0.00     0.126 C 
ATOM     32  C   UNL d   1      50.756  34.259  51.217  0.00  0.00     0.029 C 
ENDBRANCH  30  31
ENDBRANCH  28  30
ENDBRANCH   1  28
TORSDOF 7
ENDMDL
