MODEL 1
REMARK VINA RESULT:      60.4      0.000      0.000
REMARK  6 active torsions:
REMARK  status: ('A' for Active; 'I' for Inactive)
REMARK    1  A    between atoms: S_10  and  C_4 
REMARK    2  A    between atoms: C_16  and  S_10 
REMARK    3  A    between atoms: C_11  and  C_14 
REMARK    4  A    between atoms: O_20  and  C_13 
REMARK    5  A    between atoms: C_14  and  C_16 
REMARK    6  A    between atoms: O_21  and  C_15 
ROOT
ATOM      1  C   UNL d   1     -49.289  27.435  34.531  0.00  0.00     0.079 C 
ENDROOT
BRANCH   1   2
ATOM      2  C   UNL d   1     -48.743  27.973  34.219  0.00  0.00     0.202 C 
ATOM      3  O   UNL d   1     -48.526  27.918  33.411  0.00  0.00    -0.286 OA
BRANCH   2   4
ATOM      4  C   UNL d   1     -48.407  28.566  34.693  0.00  0.00     0.042 A 
ATOM      5  C   UNL d   1     -48.263  29.324  34.386  0.00  0.00     0.029 A 
ATOM      6  C   UNL d   1     -47.925  29.913  34.869  0.00  0.00     0.116 A 
ATOM      7  C   UNL d   1     -47.737  29.734  35.654  0.00  0.00     0.116 A 
ATOM      8  C   UNL d   1     -47.877  28.990  35.960  0.00  0.00     0.026 A 
ATOM      9  C   UNL d   1     -48.215  28.400  35.478  0.00  0.00     0.005 A 
BRANCH   6  10
ATOM     10  O   UNL d   1     -47.780  30.670  34.566  0.00  0.00    -0.326 OA
ATOM     11  C   UNL d   1     -48.412  31.209  34.487  0.00  0.00     0.181 C 
ENDBRANCH   6  10
BRANCH   7  12
ATOM     12  O   UNL d   1     -47.398  30.322  36.143  0.00  0.00    -0.326 OA
ATOM     13  C   UNL d   1     -46.757  30.124  36.638  0.00  0.00     0.181 C 
ENDBRANCH   7  12
ENDBRANCH   2   4
ENDBRANCH   1   2
BRANCH   1  14
ATOM     14  S   UNL d   1     -49.808  27.037  34.034  0.00  0.00    -0.063 SA
BRANCH  14  15
ATOM     15  C   UNL d   1     -50.499  26.639  33.781  0.00  0.00     0.132 A 
ATOM     16  N   UNL d   1     -50.476  25.870  33.666  0.00  0.00    -0.050 N 
ATOM     17  C   UNL d   1     -51.132  25.501  33.427  0.00  0.00     0.753 A 
ATOM     18  N   UNL d   1     -49.800  24.694  33.667  0.00  0.00    -0.130 NA
ATOM     19  N   UNL d   1     -51.126  24.727  33.307  0.00  0.00    -0.038 NA
ATOM     20  N   UNL d   1     -51.786  25.906  33.311  0.00  0.00    -0.059 NA
ATOM     21  C   UNL d   1     -50.452  24.328  33.430  0.00  0.00     0.201 A 
ATOM     22  C   UNL d   1     -50.432  23.547  33.312  0.00  0.00     0.044 C 
ATOM     23  C   UNL d   1     -51.801  26.680  33.429  0.00  0.00     0.102 A 
ATOM     24  C   UNL d   1     -51.149  27.047  33.666  0.00  0.00     0.046 A 
ATOM     25  C   UNL d   1     -52.468  27.083  33.309  0.00  0.00     0.021 C 
ENDBRANCH  14  15
ENDBRANCH   1  14
TORSDOF 6
ENDMDL
MODEL 2
REMARK VINA RESULT:      61.4      2.637      5.531
REMARK  6 active torsions:
REMARK  status: ('A' for Active; 'I' for Inactive)
REMARK    1  A    between atoms: S_10  and  C_4 
REMARK    2  A    between atoms: C_16  and  S_10 
REMARK    3  A    between atoms: C_11  and  C_14 
REMARK    4  A    between atoms: O_20  and  C_13 
REMARK    5  A    between atoms: C_14  and  C_16 
REMARK    6  A    between atoms: O_21  and  C_15 
ROOT
ATOM      1  C   UNL d   1     -49.126  28.162  34.430  0.00  0.00     0.079 C 
ENDROOT
BRANCH   1   2
ATOM      2  C   UNL d   1     -49.703  28.179  33.837  0.00  0.00     0.202 C 
ATOM      3  O   UNL d   1     -49.783  28.862  33.359  0.00  0.00    -0.286 OA
BRANCH   2   4
ATOM      4  C   UNL d   1     -50.203  27.529  33.708  0.00  0.00     0.042 A 
ATOM      5  C   UNL d   1     -49.890  26.769  33.587  0.00  0.00     0.029 A 
ATOM      6  C   UNL d   1     -50.398  26.122  33.459  0.00  0.00     0.116 A 
ATOM      7  C   UNL d   1     -51.215  26.245  33.452  0.00  0.00     0.116 A 
ATOM      8  C   UNL d   1     -51.529  26.990  33.570  0.00  0.00     0.026 A 
ATOM      9  C   UNL d   1     -51.020  27.639  33.699  0.00  0.00     0.005 A 
BRANCH   6  10
ATOM     10  O   UNL d   1     -50.089  25.363  33.338  0.00  0.00    -0.326 OA
ATOM     11  C   UNL d   1     -49.283  25.219  33.496  0.00  0.00     0.181 C 
ENDBRANCH   6  10
BRANCH   7  12
ATOM     12  O   UNL d   1     -51.732  25.599  33.323  0.00  0.00    -0.326 OA
ATOM     13  C   UNL d   1     -52.537  25.671  33.526  0.00  0.00     0.181 C 
ENDBRANCH   7  12
ENDBRANCH   2   4
ENDBRANCH   1   2
BRANCH   1  14
ATOM     14  S   UNL d   1     -48.633  28.809  34.544  0.00  0.00    -0.063 SA
BRANCH  14  15
ATOM     15  C   UNL d   1     -48.190  29.394  34.946  0.00  0.00     0.132 A 
ATOM     16  N   UNL d   1     -48.226  30.134  34.706  0.00  0.00    -0.050 N 
ATOM     17  C   UNL d   1     -47.806  30.680  35.090  0.00  0.00     0.753 A 
ATOM     18  N   UNL d   1     -48.705  31.078  33.859  0.00  0.00    -0.130 NA
ATOM     19  N   UNL d   1     -47.832  31.428  34.861  0.00  0.00    -0.038 NA
ATOM     20  N   UNL d   1     -47.364  30.475  35.697  0.00  0.00    -0.059 NA
ATOM     21  C   UNL d   1     -48.286  31.621  34.241  0.00  0.00     0.201 A 
ATOM     22  C   UNL d   1     -48.322  32.373  34.000  0.00  0.00     0.044 C 
ATOM     23  C   UNL d   1     -47.332  29.730  35.933  0.00  0.00     0.102 A 
ATOM     24  C   UNL d   1     -47.750  29.186  35.551  0.00  0.00     0.046 A 
ATOM     25  C   UNL d   1     -46.882  29.531  36.549  0.00  0.00     0.021 C 
ENDBRANCH  14  15
ENDBRANCH   1  14
TORSDOF 6
ENDMDL
MODEL 3
REMARK VINA RESULT:      63.3      0.959      2.133
REMARK  6 active torsions:
REMARK  status: ('A' for Active; 'I' for Inactive)
REMARK    1  A    between atoms: S_10  and  C_4 
REMARK    2  A    between atoms: C_16  and  S_10 
REMARK    3  A    between atoms: C_11  and  C_14 
REMARK    4  A    between atoms: O_20  and  C_13 
REMARK    5  A    between atoms: C_14  and  C_16 
REMARK    6  A    between atoms: O_21  and  C_15 
ROOT
ATOM      1  C   UNL d   1     -48.704  28.208  33.999  0.00  0.00     0.079 C 
ENDROOT
BRANCH   1   2
ATOM      2  C   UNL d   1     -48.290  28.462  34.669  0.00  0.00     0.202 C 
ATOM      3  O   UNL d   1     -48.061  27.901  35.249  0.00  0.00    -0.286 OA
BRANCH   2   4
ATOM      4  C   UNL d   1     -48.099  29.262  34.777  0.00  0.00     0.042 A 
ATOM      5  C   UNL d   1     -47.727  29.521  35.472  0.00  0.00     0.029 A 
ATOM      6  C   UNL d   1     -47.538  30.326  35.572  0.00  0.00     0.116 A 
ATOM      7  C   UNL d   1     -47.726  30.863  34.972  0.00  0.00     0.116 A 
ATOM      8  C   UNL d   1     -48.093  30.614  34.286  0.00  0.00     0.026 A 
ATOM      9  C   UNL d   1     -48.282  29.808  34.185  0.00  0.00     0.005 A 
BRANCH   6  10
ATOM     10  O   UNL d   1     -47.166  30.587  36.264  0.00  0.00    -0.326 OA
ATOM     11  C   UNL d   1     -47.011  30.043  36.877  0.00  0.00     0.181 C 
ENDBRANCH   6  10
BRANCH   7  12
ATOM     12  O   UNL d   1     -47.540  31.673  35.066  0.00  0.00    -0.326 OA
ATOM     13  C   UNL d   1     -47.674  32.201  34.435  0.00  0.00     0.181 C 
ENDBRANCH   7  12
ENDBRANCH   2   4
ENDBRANCH   1   2
BRANCH   1  14
ATOM     14  S   UNL d   1     -49.149  27.518  34.025  0.00  0.00    -0.063 SA
BRANCH  14  15
ATOM     15  C   UNL d   1     -49.486  26.795  33.775  0.00  0.00     0.132 A 
ATOM     16  N   UNL d   1     -50.255  26.749  33.661  0.00  0.00    -0.050 N 
ATOM     17  C   UNL d   1     -50.566  26.064  33.425  0.00  0.00     0.753 A 
ATOM     18  N   UNL d   1     -51.485  27.321  33.663  0.00  0.00    -0.130 NA
ATOM     19  N   UNL d   1     -51.337  26.002  33.307  0.00  0.00    -0.038 NA
ATOM     20  N   UNL d   1     -50.105  25.447  33.310  0.00  0.00    -0.059 NA
ATOM     21  C   UNL d   1     -51.793  26.639  33.428  0.00  0.00     0.201 A 
ATOM     22  C   UNL d   1     -52.574  26.590  33.312  0.00  0.00     0.044 C 
ATOM     23  C   UNL d   1     -49.333  25.499  33.426  0.00  0.00     0.102 A 
ATOM     24  C   UNL d   1     -49.024  26.181  33.661  0.00  0.00     0.046 A 
ATOM     25  C   UNL d   1     -48.874  24.869  33.307  0.00  0.00     0.021 C 
ENDBRANCH  14  15
ENDBRANCH   1  14
TORSDOF 6
ENDMDL
