MODEL 1
REMARK VINA RESULT:      10.4      0.000      0.000
REMARK  3 active torsions:
REMARK  status: ('A' for Active; 'I' for Inactive)
REMARK    1  A    between atoms: S_4  and  C_1 
REMARK    2  A    between atoms: C_8  and  S_4 
REMARK    3  A    between atoms: C_10  and  C_8 
ROOT
ATOM      1  C   UNL d   1      46.279 -18.201  44.197  0.00  0.00     0.114 A 
ATOM      2  C   UNL d   1      46.382 -18.627  43.502  0.00  0.00     0.042 A 
ATOM      3  N   UNL d   1      46.324 -18.589  44.924  0.00  0.00    -0.217 NA
ATOM      4  N   UNL d   1      46.574 -19.827  44.253  0.00  0.00    -0.224 NA
ATOM      5  C   UNL d   1      46.471 -19.402  44.952  0.00  0.00     0.200 A 
ATOM      6  C   UNL d   1      46.530 -19.440  43.530  0.00  0.00     0.085 A 
ATOM      7  C   UNL d   1      46.338 -18.239  42.774  0.00  0.00     0.004 A 
ATOM      8  C   UNL d   1      46.633 -19.866  42.830  0.00  0.00     0.019 A 
ATOM      9  C   UNL d   1      46.441 -18.665  42.075  0.00  0.00     0.000 A 
ATOM     10  C   UNL d   1      46.589 -19.479  42.103  0.00  0.00     0.002 A 
ENDROOT
BRANCH   1  11
ATOM     11  S   UNL d   1      46.133 -17.388  44.169  0.00  0.00    -0.067 SA
BRANCH  11  12
ATOM     12  C   UNL d   1      45.855 -16.995  44.831  0.00  0.00     0.037 C 
BRANCH  12  13
ATOM     13  C   UNL d   1      45.693 -16.193  44.797  0.00  0.00     0.007 A 
ATOM     14  C   UNL d   1      46.289 -15.644  44.608  0.00  0.00     0.003 A 
ATOM     15  C   UNL d   1      46.116 -14.847  44.577  0.00  0.00     0.030 A 
ATOM     16  C   UNL d   1      45.357 -14.585  44.731  0.00  0.00     0.140 A 
ATOM     17  C   UNL d   1      44.765 -15.119  44.917  0.00  0.00     0.030 A 
ATOM     18  F   UNL d   1      45.185 -13.772  44.698  0.00  0.00    -0.204 F 
ATOM     19  C   UNL d   1      44.925 -15.928  44.952  0.00  0.00     0.003 A 
ENDBRANCH  12  13
ENDBRANCH  11  12
ENDBRANCH   1  11
TORSDOF 3
ENDMDL
