MODEL 1
REMARK VINA RESULT:      -5.7      0.000      0.000
REMARK  3 active torsions:
REMARK  status: ('A' for Active; 'I' for Inactive)
REMARK    1  A    between atoms: N_3  and  S_1 
REMARK    2  A    between atoms: C_10  and  S_1 
REMARK    3  A    between atoms: C_2  and  N_3 
ROOT
ATOM      1  N   UNL d   1      57.971   0.117  30.881  0.00  0.00     0.034 NA
ENDROOT
BRANCH   1   2
ATOM      2  C   UNL d   1      57.392  -0.035  31.447  0.00  0.00     0.760 A 
ATOM      3  N   UNL d   1      57.027  -0.759  31.604  0.00  0.00    -0.057 NA
ATOM      4  C   UNL d   1      56.494  -0.665  32.199  0.00  0.00     0.118 A 
ATOM      5  C   UNL d   1      55.983  -1.193  32.573  0.00  0.00     0.021 A 
ATOM      6  C   UNL d   1      56.512   0.126  32.431  0.00  0.00     0.118 A 
ATOM      7  C   UNL d   1      55.508  -0.925  33.162  0.00  0.00     0.002 A 
ATOM      8  C   UNL d   1      55.527  -0.133  33.394  0.00  0.00     0.002 A 
ATOM      9  C   UNL d   1      56.019   0.389  33.038  0.00  0.00     0.021 A 
ATOM     10  N   UNL d   1      57.056   0.508  31.976  0.00  0.00    -0.057 NA
ENDBRANCH   1   2
BRANCH   1  11
ATOM     11  S   UNL d   1      57.756   0.397  30.134  0.00  0.00     0.300 S 
ATOM     12  O   UNL d   1      57.538   0.679  29.386  0.00  0.00    -0.198 OA
ATOM     13  O   UNL d   1      57.008   0.591  30.424  0.00  0.00    -0.198 OA
BRANCH  11  14
ATOM     14  C   UNL d   1      58.505   0.203  29.846  0.00  0.00     0.106 A 
ATOM     15  C   UNL d   1      58.603  -0.465  29.371  0.00  0.00     0.013 A 
ATOM     16  C   UNL d   1      59.353  -0.660  29.082  0.00  0.00     0.001 A 
ATOM     17  C   UNL d   1      60.002  -0.186  29.267  0.00  0.00     0.000 A 
ATOM     18  C   UNL d   1      59.879   0.466  29.736  0.00  0.00     0.001 A 
ATOM     19  C   UNL d   1      59.154   0.677  30.031  0.00  0.00     0.013 A 
ENDBRANCH  11  14
ENDBRANCH   1  11
TORSDOF 3
ENDMDL
MODEL 2
REMARK VINA RESULT:      -5.3      1.136      4.027
REMARK  3 active torsions:
REMARK  status: ('A' for Active; 'I' for Inactive)
REMARK    1  A    between atoms: N_3  and  S_1 
REMARK    2  A    between atoms: C_10  and  S_1 
REMARK    3  A    between atoms: C_2  and  N_3 
ROOT
ATOM      1  N   UNL d   1      56.893  -0.039  31.683  0.00  0.00     0.034 NA
ENDROOT
BRANCH   1   2
ATOM      2  C   UNL d   1      57.368  -0.066  31.011  0.00  0.00     0.760 A 
ATOM      3  N   UNL d   1      57.741  -0.729  30.689  0.00  0.00    -0.057 NA
ATOM      4  C   UNL d   1      58.151  -0.512  30.032  0.00  0.00     0.118 A 
ATOM      5  C   UNL d   1      58.616  -0.941  29.503  0.00  0.00     0.021 A 
ATOM      6  C   UNL d   1      58.044   0.299  29.924  0.00  0.00     0.118 A 
ATOM      7  C   UNL d   1      58.959  -0.557  28.887  0.00  0.00     0.002 A 
ATOM      8  C   UNL d   1      58.853   0.254  28.780  0.00  0.00     0.002 A 
ATOM      9  C   UNL d   1      58.403   0.681  29.288  0.00  0.00     0.021 A 
ATOM     10  N   UNL d   1      57.570   0.570  30.517  0.00  0.00    -0.057 NA
ENDBRANCH   1   2
BRANCH   1  11
ATOM     11  S   UNL d   1      57.200   0.245  32.395  0.00  0.00     0.300 S 
ATOM     12  O   UNL d   1      57.511   0.531  33.108  0.00  0.00    -0.198 OA
ATOM     13  O   UNL d   1      57.914   0.414  32.018  0.00  0.00    -0.198 OA
BRANCH  11  14
ATOM     14  C   UNL d   1      56.485   0.075  32.771  0.00  0.00     0.106 A 
ATOM     15  C   UNL d   1      55.948   0.682  32.928  0.00  0.00     0.013 A 
ATOM     16  C   UNL d   1      55.231   0.513  33.305  0.00  0.00     0.001 A 
ATOM     17  C   UNL d   1      55.054  -0.262  33.524  0.00  0.00     0.000 A 
ATOM     18  C   UNL d   1      55.599  -0.842  33.358  0.00  0.00     0.001 A 
ATOM     19  C   UNL d   1      56.307  -0.700  32.990  0.00  0.00     0.013 A 
ENDBRANCH  11  14
ENDBRANCH   1  11
TORSDOF 3
ENDMDL
MODEL 3
REMARK VINA RESULT:      -4.1      1.298      1.764
REMARK  3 active torsions:
REMARK  status: ('A' for Active; 'I' for Inactive)
REMARK    1  A    between atoms: N_3  and  S_1 
REMARK    2  A    between atoms: C_10  and  S_1 
REMARK    3  A    between atoms: C_2  and  N_3 
ROOT
ATOM      1  N   UNL d   1      57.126   0.357  31.860  0.00  0.00     0.034 NA
ENDROOT
BRANCH   1   2
ATOM      2  C   UNL d   1      56.645   0.422  32.526  0.00  0.00     0.760 A 
ATOM      3  N   UNL d   1      55.828   0.542  32.541  0.00  0.00    -0.057 NA
ATOM      4  C   UNL d   1      55.576   0.572  33.304  0.00  0.00     0.118 A 
ATOM      5  C   UNL d   1      54.830   0.679  33.638  0.00  0.00     0.021 A 
ATOM      6  C   UNL d   1      56.235   0.470  33.791  0.00  0.00     0.118 A 
ATOM      7  C   UNL d   1      54.757   0.682  34.437  0.00  0.00     0.002 A 
ATOM      8  C   UNL d   1      55.416   0.580  34.923  0.00  0.00     0.002 A 
ATOM      9  C   UNL d   1      56.146   0.475  34.610  0.00  0.00     0.021 A 
ATOM     10  N   UNL d   1      56.882   0.379  33.320  0.00  0.00    -0.057 NA
ENDBRANCH   1   2
BRANCH   1  11
ATOM     11  S   UNL d   1      57.192  -0.366  31.467  0.00  0.00     0.300 S 
ATOM     12  O   UNL d   1      57.257  -1.093  31.074  0.00  0.00    -0.198 OA
ATOM     13  O   UNL d   1      56.694  -0.714  32.025  0.00  0.00    -0.198 OA
BRANCH  11  14
ATOM     14  C   UNL d   1      57.691  -0.017  30.909  0.00  0.00     0.106 A 
ATOM     15  C   UNL d   1      57.380   0.274  30.203  0.00  0.00     0.013 A 
ATOM     16  C   UNL d   1      57.879   0.624  29.644  0.00  0.00     0.001 A 
ATOM     17  C   UNL d   1      58.688   0.681  29.793  0.00  0.00     0.000 A 
ATOM     18  C   UNL d   1      58.970   0.386  30.496  0.00  0.00     0.001 A 
ATOM     19  C   UNL d   1      58.501   0.040  31.058  0.00  0.00     0.013 A 
ENDBRANCH  11  14
ENDBRANCH   1  11
TORSDOF 3
ENDMDL
