MODEL 1
REMARK VINA RESULT:      26.3      0.000      0.000
REMARK  5 active torsions:
REMARK  status: ('A' for Active; 'I' for Inactive)
REMARK    1  A    between atoms: C_11  and  N_4 
REMARK    2  A    between atoms: C_12  and  N_10 
REMARK    3  A    between atoms: C_14  and  C_11 
REMARK    4  A    between atoms: O_26  and  C_13 
REMARK    5  A    between atoms: O_28  and  C_24 
ROOT
ATOM      1  C   UNL d   1     -42.367-122.459 -51.654  0.00  0.00     0.191 A 
ATOM      2  C   UNL d   1     -42.202-121.788 -51.201  0.00  0.00     0.173 A 
ATOM      3  C   UNL d   1     -41.814-121.461 -52.608  0.00  0.00     0.722 A 
ATOM      4  N   UNL d   1     -42.671-122.455 -50.041  0.00  0.00    -0.224 N 
ATOM      5  N   UNL d   1     -42.164-122.309 -52.429  0.00  0.00    -0.042 NA
ATOM      6  N   UNL d   1     -41.901-121.235 -51.705  0.00  0.00    -0.132 N 
ATOM      7  N   UNL d   1     -42.684-123.137 -51.313  0.00  0.00    -0.240 N 
ATOM      8  C   UNL d   1     -42.835-123.127 -50.494  0.00  0.00     0.343 A 
ATOM      9  C   UNL d   1     -42.355-121.794 -50.408  0.00  0.00     0.288 A 
ATOM     10  N   UNL d   1     -41.510-120.897 -53.103  0.00  0.00    -0.138 N 
ATOM     11  C   UNL d   1     -41.665-120.492 -51.486  0.00  0.00     0.100 A 
ATOM     12  C   UNL d   1     -41.278-120.144 -52.845  0.00  0.00     0.100 A 
ATOM     13  O   UNL d   1     -43.157-123.810 -50.142  0.00  0.00    -0.245 OA
ATOM     14  O   UNL d   1     -42.190-121.122 -49.956  0.00  0.00    -0.265 OA
ATOM     15  C   UNL d   1     -41.357-119.937 -52.018  0.00  0.00     0.036 A 
ATOM     16  C   UNL d   1     -42.849-123.808 -51.766  0.00  0.00     0.105 C 
ATOM     17  C   UNL d   1     -41.129-119.187 -51.747  0.00  0.00     0.003 C 
ENDROOT
BRANCH  10  18
ATOM     18  C   UNL d   1     -41.437-121.106 -53.900  0.00  0.00     0.104 A 
ATOM     19  C   UNL d   1     -41.592-120.547 -54.487  0.00  0.00     0.113 A 
ATOM     20  C   UNL d   1     -41.531-120.715 -55.275  0.00  0.00     0.050 A 
ATOM     21  C   UNL d   1     -41.303-121.481 -55.517  0.00  0.00     0.096 A 
ATOM     22  C   UNL d   1     -41.143-122.058 -54.926  0.00  0.00     0.026 A 
ATOM     23  C   UNL d   1     -41.213-121.861 -54.135  0.00  0.00     0.022 A 
BRANCH  19  24
ATOM     24  O   UNL d   1     -41.818-119.786 -54.264  0.00  0.00    -0.327 OA
ATOM     25  C   UNL d   1     -42.087-119.270 -54.830  0.00  0.00     0.181 C 
ENDBRANCH  19  24
BRANCH  21  26
ATOM     26  O   UNL d   1     -41.232-121.684 -56.326  0.00  0.00    -0.328 OA
ATOM     27  C   UNL d   1     -41.751-122.230 -56.666  0.00  0.00     0.181 C 
ENDBRANCH  21  26
ENDBRANCH  10  18
BRANCH   4  28
ATOM     28  C   UNL d   1     -42.944-122.844 -49.365  0.00  0.00     0.090 C 
BRANCH  28  29
ATOM     29  C   UNL d   1     -42.416-123.041 -48.761  0.00  0.00     0.045 A 
ATOM     30  C   UNL d   1     -42.653-122.970 -47.981  0.00  0.00     0.141 A 
ATOM     31  F   UNL d   1     -43.412-122.704 -47.801  0.00  0.00    -0.204 F 
ATOM     32  C   UNL d   1     -42.130-123.166 -47.379  0.00  0.00     0.030 A 
ATOM     33  C   UNL d   1     -41.371-123.432 -47.555  0.00  0.00     0.002 A 
ATOM     34  C   UNL d   1     -41.139-123.501 -48.346  0.00  0.00     0.000 A 
ATOM     35  C   UNL d   1     -41.663-123.305 -48.949  0.00  0.00     0.004 A 
ENDBRANCH  28  29
ENDBRANCH   4  28
TORSDOF 5
ENDMDL
