MODEL 1
REMARK VINA RESULT:      80.0      0.000      0.000
REMARK  8 active torsions:
REMARK  status: ('A' for Active; 'I' for Inactive)
REMARK    1  A    between atoms: S_11  and  C_6 
REMARK    2  A    between atoms: O_23  and  C_10 
REMARK    3  A    between atoms: C_19  and  S_11 
REMARK    4  A    between atoms: C_12  and  C_19 
REMARK       I    between atoms: N_18  and  C_12 
REMARK    5  A    between atoms: O_25  and  C_13 
REMARK    6  A    between atoms: C_26  and  N_18 
REMARK    7  A    between atoms: C_20  and  C_27 
REMARK    8  A    between atoms: C_27  and  C_26 
ROOT
ATOM      1  C   UNL d   1      61.151  47.727  50.812  0.00  0.00     0.286 C 
ATOM      2  O   UNL d   1      61.288  47.482  51.588  0.00  0.00    -0.265 OA
ATOM      3  N   UNL d   1      60.717  48.417  50.662  0.00  0.00    -0.206 NA
ENDROOT
BRANCH   1   4
ATOM      4  C   UNL d   1      61.446  47.284  50.177  0.00  0.00     0.101 C 
BRANCH   4   5
ATOM      5  S   UNL d   1      61.000  46.675  49.854  0.00  0.00    -0.043 SA
BRANCH   5   6
ATOM      6  C   UNL d   1      61.229  45.888  49.967  0.00  0.00     0.198 A 
ATOM      7  N   UNL d   1      61.610  45.466  49.355  0.00  0.00    -0.200 NA
ATOM      8  C   UNL d   1      61.839  44.675  49.470  0.00  0.00     0.189 A 
ATOM      9  C   UNL d   1      61.688  44.305  50.199  0.00  0.00     0.081 A 
ATOM     10  N   UNL d   1      62.213  44.264  48.865  0.00  0.00    -0.127 N 
ATOM     11  C   UNL d   1      61.309  44.722  50.810  0.00  0.00     0.187 A 
ATOM     12  C   UNL d   1      61.849  43.541  50.470  0.00  0.00     0.029 A 
ATOM     13  N   UNL d   1      61.082  45.512  50.690  0.00  0.00    -0.197 NA
ATOM     14  O   UNL d   1      61.241  44.208  51.454  0.00  0.00    -0.289 OA
ATOM     15  C   UNL d   1      61.572  43.475  51.251  0.00  0.00     0.102 A 
ATOM     16  C   UNL d   1      61.617  42.814  51.730  0.00  0.00     0.027 C 
ATOM     17  C   UNL d   1      62.223  42.938  50.037  0.00  0.00     0.002 C 
ENDBRANCH   5   6
ENDBRANCH   4   5
ENDBRANCH   1   4
BRANCH   3  18
ATOM     18  C   UNL d   1      60.421  48.861  51.289  0.00  0.00     0.102 C 
BRANCH  18  19
ATOM     19  C   UNL d   1      60.064  49.587  51.144  0.00  0.00     0.021 C 
BRANCH  19  20
ATOM     20  C   UNL d   1      59.343  49.616  50.746  0.00  0.00     0.004 A 
ATOM     21  C   UNL d   1      58.641  49.640  51.175  0.00  0.00     0.026 A 
ATOM     22  C   UNL d   1      57.918  49.668  50.784  0.00  0.00     0.116 A 
ATOM     23  C   UNL d   1      57.894  49.674  49.960  0.00  0.00     0.116 A 
ATOM     24  C   UNL d   1      58.599  49.650  49.533  0.00  0.00     0.026 A 
ATOM     25  C   UNL d   1      59.323  49.621  49.924  0.00  0.00     0.002 A 
BRANCH  22  26
ATOM     26  O   UNL d   1      57.214  49.692  51.220  0.00  0.00    -0.326 OA
ATOM     27  C   UNL d   1      56.567  49.245  50.978  0.00  0.00     0.181 C 
ENDBRANCH  22  26
BRANCH  23  28
ATOM     28  O   UNL d   1      57.167  49.702  49.569  0.00  0.00    -0.326 OA
ATOM     29  C   UNL d   1      56.789  48.994  49.362  0.00  0.00     0.181 C 
ENDBRANCH  23  28
ENDBRANCH  19  20
ENDBRANCH  18  19
ENDBRANCH   3  18
TORSDOF 8
ENDMDL
