MODEL 1
REMARK VINA RESULT:      18.0      0.000      0.000
REMARK  2 active torsions:
REMARK  status: ('A' for Active; 'I' for Inactive)
REMARK    1  A    between atoms: N_2  and  S_1 
REMARK    2  A    between atoms: C_3  and  S_1 
ROOT
ATOM      1  N   UNL d   1      58.466  49.689  50.239  0.00  0.00    -0.231 N 
ATOM      2  C   UNL d   1      57.679  49.685  50.503  0.00  0.00     0.075 A 
ATOM      3  C   UNL d   1      58.427  49.702  49.396  0.00  0.00     0.092 A 
ATOM      4  C   UNL d   1      57.178  49.697  49.820  0.00  0.00     0.018 A 
ATOM      5  C   UNL d   1      57.668  49.707  49.158  0.00  0.00     0.021 A 
ATOM      6  C   UNL d   1      57.338  49.674  51.242  0.00  0.00     0.018 A 
ATOM      7  C   UNL d   1      56.370  49.696  49.907  0.00  0.00     0.002 A 
ATOM      8  C   UNL d   1      56.518  49.673  51.335  0.00  0.00     0.002 A 
ATOM      9  C   UNL d   1      56.034  49.684  50.660  0.00  0.00     0.000 A 
ENDROOT
BRANCH   1  10
ATOM     10  S   UNL d   1      59.186  49.682  50.626  0.00  0.00     0.277 S 
ATOM     11  O   UNL d   1      58.798  49.705  51.374  0.00  0.00    -0.199 OA
ATOM     12  O   UNL d   1      59.598  49.659  49.885  0.00  0.00    -0.199 OA
BRANCH  10  13
ATOM     13  C   UNL d   1      59.902  49.675  51.026  0.00  0.00     0.133 A 
ATOM     14  S   UNL d   1      60.676  49.635  50.696  0.00  0.00    -0.074 SA
ATOM     15  C   UNL d   1      61.220  49.644  51.303  0.00  0.00     0.036 A 
ATOM     16  C   UNL d   1      60.837  49.688  52.029  0.00  0.00     0.008 A 
ATOM     17  C   UNL d   1      60.022  49.708  51.861  0.00  0.00     0.020 A 
ENDBRANCH  10  13
ENDBRANCH   1  10
TORSDOF 2
ENDMDL
MODEL 2
REMARK VINA RESULT:      19.5      1.025      3.553
REMARK  2 active torsions:
REMARK  status: ('A' for Active; 'I' for Inactive)
REMARK    1  A    between atoms: N_2  and  S_1 
REMARK    2  A    between atoms: C_3  and  S_1 
ROOT
ATOM      1  N   UNL d   1      58.767  49.679  51.067  0.00  0.00    -0.231 N 
ATOM      2  C   UNL d   1      59.559  49.675  50.819  0.00  0.00     0.075 A 
ATOM      3  C   UNL d   1      58.790  49.698  51.910  0.00  0.00     0.092 A 
ATOM      4  C   UNL d   1      60.046  49.691  51.511  0.00  0.00     0.018 A 
ATOM      5  C   UNL d   1      59.543  49.705  52.164  0.00  0.00     0.021 A 
ATOM      6  C   UNL d   1      59.915  49.659  50.087  0.00  0.00     0.018 A 
ATOM      7  C   UNL d   1      60.856  49.690  51.441  0.00  0.00     0.002 A 
ATOM      8  C   UNL d   1      60.736  49.658  50.011  0.00  0.00     0.002 A 
ATOM      9  C   UNL d   1      61.207  49.674  50.694  0.00  0.00     0.000 A 
ENDROOT
BRANCH   1  10
ATOM     10  S   UNL d   1      58.055  49.670  50.666  0.00  0.00     0.277 S 
ATOM     11  O   UNL d   1      58.457  49.705  49.926  0.00  0.00    -0.199 OA
ATOM     12  O   UNL d   1      57.628  49.634  51.398  0.00  0.00    -0.199 OA
BRANCH  10  13
ATOM     13  C   UNL d   1      57.346  49.661  50.252  0.00  0.00     0.133 A 
ATOM     14  S   UNL d   1      56.567  49.603  50.566  0.00  0.00    -0.074 SA
ATOM     15  C   UNL d   1      56.035  49.615  49.948  0.00  0.00     0.036 A 
ATOM     16  C   UNL d   1      56.432  49.679  49.230  0.00  0.00     0.008 A 
ATOM     17  C   UNL d   1      57.242  49.707  49.416  0.00  0.00     0.020 A 
ENDBRANCH  10  13
ENDBRANCH   1  10
TORSDOF 2
ENDMDL
