MODEL 1
REMARK VINA RESULT:      -4.9      0.000      0.000
REMARK  6 active torsions:
REMARK  status: ('A' for Active; 'I' for Inactive)
REMARK    1  A    between atoms: C_4  and  C_1 
REMARK       I    between atoms: N_6  and  C_1 
REMARK    2  A    between atoms: C_7  and  C_4 
REMARK    3  A    between atoms: O_20  and  C_5 
REMARK    4  A    between atoms: C_8  and  N_6 
REMARK    5  A    between atoms: C_13  and  C_7 
REMARK    6  A    between atoms: O_21  and  C_10 
ROOT
ATOM      1  C   UNL d   1      58.160  -0.479  30.246  0.00  0.00     0.076 C 
ENDROOT
BRANCH   1   2
ATOM      2  C   UNL d   1      57.592   0.052  30.453  0.00  0.00     0.328 C 
ATOM      3  N   UNL d   1      57.206   0.002  31.182  0.00  0.00    -0.365 NA
ATOM      4  O   UNL d   1      57.385   0.661  29.933  0.00  0.00    -0.251 OA
BRANCH   3   5
ATOM      5  C   UNL d   1      56.821  -0.059  31.925  0.00  0.00     0.136 A 
ATOM      6  C   UNL d   1      56.377  -0.725  32.108  0.00  0.00     0.044 A 
ATOM      7  C   UNL d   1      55.985  -0.794  32.857  0.00  0.00     0.071 A 
ATOM      8 CL   UNL d   1      55.546  -1.451  33.037  0.00  0.00    -0.081 Cl
ATOM      9  C   UNL d   1      56.068  -0.167  33.394  0.00  0.00     0.069 A 
ATOM     10  C   UNL d   1      56.513   0.499  33.212  0.00  0.00     0.015 A 
ATOM     11 CL   UNL d   1      55.681  -0.246  34.121  0.00  0.00    -0.082 Cl
ATOM     12  C   UNL d   1      56.894   0.567  32.485  0.00  0.00     0.033 A 
ENDBRANCH   3   5
ENDBRANCH   1   2
BRANCH   1  13
ATOM     13  C   UNL d   1      58.316  -0.634  29.445  0.00  0.00     0.006 C 
BRANCH  13  14
ATOM     14  C   UNL d   1      58.943  -1.131  29.244  0.00  0.00     0.002 A 
ATOM     15  C   UNL d   1      59.683  -0.830  29.045  0.00  0.00     0.026 A 
ATOM     16  C   UNL d   1      60.302  -1.338  28.845  0.00  0.00     0.116 A 
ATOM     17  C   UNL d   1      60.189  -2.150  28.843  0.00  0.00     0.116 A 
ATOM     18  C   UNL d   1      59.440  -2.470  29.044  0.00  0.00     0.026 A 
ATOM     19  C   UNL d   1      58.820  -1.962  29.244  0.00  0.00     0.002 A 
BRANCH  16  20
ATOM     20  O   UNL d   1      61.048  -1.022  28.645  0.00  0.00    -0.326 OA
ATOM     21  C   UNL d   1      61.133  -0.213  28.534  0.00  0.00     0.181 C 
ENDBRANCH  16  20
BRANCH  17  22
ATOM     22  O   UNL d   1      60.805  -2.655  28.644  0.00  0.00    -0.326 OA
ATOM     23  C   UNL d   1      60.648  -3.468  28.545  0.00  0.00     0.181 C 
ENDBRANCH  17  22
ENDBRANCH  13  14
ENDBRANCH   1  13
TORSDOF 6
ENDMDL
MODEL 2
REMARK VINA RESULT:      -3.3      2.641      5.562
REMARK  6 active torsions:
REMARK  status: ('A' for Active; 'I' for Inactive)
REMARK    1  A    between atoms: C_4  and  C_1 
REMARK       I    between atoms: N_6  and  C_1 
REMARK    2  A    between atoms: C_7  and  C_4 
REMARK    3  A    between atoms: O_20  and  C_5 
REMARK    4  A    between atoms: C_8  and  N_6 
REMARK    5  A    between atoms: C_13  and  C_7 
REMARK    6  A    between atoms: O_21  and  C_10 
ROOT
ATOM      1  C   UNL d   1      57.346  -0.035  31.046  0.00  0.00     0.076 C 
ENDROOT
BRANCH   1   2
ATOM      2  C   UNL d   1      57.518   0.058  30.266  0.00  0.00     0.328 C 
ATOM      3  N   UNL d   1      58.094  -0.405  29.897  0.00  0.00    -0.365 NA
ATOM      4  O   UNL d   1      57.114   0.626  29.819  0.00  0.00    -0.251 OA
BRANCH   3   5
ATOM      5  C   UNL d   1      58.681  -0.881  29.533  0.00  0.00     0.136 A 
ATOM      6  C   UNL d   1      59.343  -0.534  29.193  0.00  0.00     0.044 A 
ATOM      7  C   UNL d   1      59.942  -1.009  28.823  0.00  0.00     0.071 A 
ATOM      8 CL   UNL d   1      60.594  -0.667  28.489  0.00  0.00    -0.081 Cl
ATOM      9  C   UNL d   1      59.832  -1.832  28.819  0.00  0.00     0.069 A 
ATOM     10  C   UNL d   1      59.170  -2.179  29.159  0.00  0.00     0.015 A 
ATOM     11 CL   UNL d   1      60.422  -2.284  28.456  0.00  0.00    -0.082 Cl
ATOM     12  C   UNL d   1      58.588  -1.719  29.519  0.00  0.00     0.033 A 
ENDBRANCH   3   5
ENDBRANCH   1   2
BRANCH   1  13
ATOM     13  C   UNL d   1      56.898   0.536  31.448  0.00  0.00     0.006 C 
BRANCH  13  14
ATOM     14  C   UNL d   1      56.798   0.473  32.265  0.00  0.00     0.002 A 
ATOM     15  C   UNL d   1      56.091   0.211  32.593  0.00  0.00     0.026 A 
ATOM     16  C   UNL d   1      56.004   0.152  33.411  0.00  0.00     0.116 A 
ATOM     17  C   UNL d   1      56.624   0.354  33.910  0.00  0.00     0.116 A 
ATOM     18  C   UNL d   1      57.350   0.623  33.588  0.00  0.00     0.026 A 
ATOM     19  C   UNL d   1      57.437   0.682  32.770  0.00  0.00     0.002 A 
BRANCH  16  20
ATOM     20  O   UNL d   1      55.282  -0.115  33.734  0.00  0.00    -0.326 OA
ATOM     21  C   UNL d   1      54.572   0.117  33.393  0.00  0.00     0.181 C 
ENDBRANCH  16  20
BRANCH  17  22
ATOM     22  O   UNL d   1      56.537   0.295  34.724  0.00  0.00    -0.326 OA
ATOM     23  C   UNL d   1      57.102   0.658  35.220  0.00  0.00     0.181 C 
ENDBRANCH  17  22
ENDBRANCH  13  14
ENDBRANCH   1  13
TORSDOF 6
ENDMDL
MODEL 3
REMARK VINA RESULT:      -3.0      1.364      2.241
REMARK  6 active torsions:
REMARK  status: ('A' for Active; 'I' for Inactive)
REMARK    1  A    between atoms: C_4  and  C_1 
REMARK       I    between atoms: N_6  and  C_1 
REMARK    2  A    between atoms: C_7  and  C_4 
REMARK    3  A    between atoms: O_20  and  C_5 
REMARK    4  A    between atoms: C_8  and  N_6 
REMARK    5  A    between atoms: C_13  and  C_7 
REMARK    6  A    between atoms: O_21  and  C_10 
ROOT
ATOM      1  C   UNL d   1      57.418  -0.374  31.486  0.00  0.00     0.076 C 
ENDROOT
BRANCH   1   2
ATOM      2  C   UNL d   1      56.815  -0.798  31.806  0.00  0.00     0.328 C 
ATOM      3  N   UNL d   1      56.401  -0.522  32.465  0.00  0.00    -0.365 NA
ATOM      4  O   UNL d   1      56.600  -1.526  31.475  0.00  0.00    -0.251 OA
BRANCH   3   5
ATOM      5  C   UNL d   1      55.988  -0.230  33.135  0.00  0.00     0.136 A 
ATOM      6  C   UNL d   1      56.383  -0.107  33.844  0.00  0.00     0.044 A 
ATOM      7  C   UNL d   1      55.972   0.188  34.525  0.00  0.00     0.071 A 
ATOM      8 CL   UNL d   1      56.361   0.310  35.224  0.00  0.00    -0.081 Cl
ATOM      9  C   UNL d   1      55.160   0.344  34.447  0.00  0.00     0.069 A 
ATOM     10  C   UNL d   1      54.765   0.220  33.738  0.00  0.00     0.015 A 
ATOM     11 CL   UNL d   1      54.771   0.631  35.118  0.00  0.00    -0.082 Cl
ATOM     12  C   UNL d   1      55.163  -0.065  33.076  0.00  0.00     0.033 A 
ENDBRANCH   3   5
ENDBRANCH   1   2
BRANCH   1  13
ATOM     13  C   UNL d   1      57.422  -0.199  30.674  0.00  0.00     0.006 C 
BRANCH  13  14
ATOM     14  C   UNL d   1      58.143  -0.125  30.279  0.00  0.00     0.002 A 
ATOM     15  C   UNL d   1      58.407  -0.701  29.754  0.00  0.00     0.026 A 
ATOM     16  C   UNL d   1      59.129  -0.616  29.365  0.00  0.00     0.116 A 
ATOM     17  C   UNL d   1      59.596   0.045  29.498  0.00  0.00     0.116 A 
ATOM     18  C   UNL d   1      59.339   0.640  30.031  0.00  0.00     0.026 A 
ATOM     19  C   UNL d   1      58.617   0.555  30.419  0.00  0.00     0.002 A 
BRANCH  16  20
ATOM     20  O   UNL d   1      59.387  -1.206  28.834  0.00  0.00    -0.326 OA
ATOM     21  C   UNL d   1      59.044  -1.952  28.855  0.00  0.00     0.181 C 
ENDBRANCH  16  20
BRANCH  17  22
ATOM     22  O   UNL d   1      60.316   0.130  29.111  0.00  0.00    -0.326 OA
ATOM     23  C   UNL d   1      60.872   0.679  29.403  0.00  0.00     0.181 C 
ENDBRANCH  17  22
ENDBRANCH  13  14
ENDBRANCH   1  13
TORSDOF 6
ENDMDL
