MODEL 1
REMARK VINA RESULT:      -7.1      0.000      0.000
REMARK  6 active torsions:
REMARK  status: ('A' for Active; 'I' for Inactive)
REMARK    1  A    between atoms: C_15  and  N_1 
REMARK    2  A    between atoms: S_12  and  C_3 
REMARK    3  A    between atoms: C_4  and  N_11 
REMARK    4  A    between atoms: C_14  and  C_8 
REMARK       I    between atoms: N_11  and  C_13 
REMARK    5  A    between atoms: C_17  and  S_12 
REMARK    6  A    between atoms: C_13  and  C_17 
ROOT
ATOM      1  N   UNL d   1     -47.674  11.758  23.697  0.00  0.00    -0.018 NA
ATOM      2  C   UNL d   1     -48.437  11.862  23.415  0.00  0.00     0.302 C 
ATOM      3  O   UNL d   1     -49.045  11.355  23.670  0.00  0.00    -0.264 OA
ENDROOT
BRANCH   2   4
ATOM      4  C   UNL d   1     -48.600  12.467  22.881  0.00  0.00     0.101 C 
BRANCH   4   5
ATOM      5  S   UNL d   1     -49.363  12.797  22.844  0.00  0.00    -0.041 SA
BRANCH   5   6
ATOM      6  C   UNL d   1     -49.696  12.988  22.115  0.00  0.00     0.219 A 
ATOM      7  N   UNL d   1     -50.096  13.708  22.027  0.00  0.00    -0.186 N 
ATOM      8  N   UNL d   1     -50.369  13.752  21.247  0.00  0.00    -0.038 NA
ATOM      9  N   UNL d   1     -50.140  13.067  20.859  0.00  0.00    -0.022 NA
ATOM     10  N   UNL d   1     -49.724  12.598  21.397  0.00  0.00    -0.101 NA
BRANCH   7  11
ATOM     11  C   UNL d   1     -50.225  14.299  22.581  0.00  0.00     0.087 A 
ATOM     12  C   UNL d   1     -49.685  14.920  22.645  0.00  0.00     0.019 A 
ATOM     13  C   UNL d   1     -49.810  15.516  23.200  0.00  0.00     0.002 A 
ATOM     14  C   UNL d   1     -50.463  15.503  23.690  0.00  0.00     0.000 A 
ATOM     15  C   UNL d   1     -51.014  14.876  23.629  0.00  0.00     0.002 A 
ATOM     16  C   UNL d   1     -50.891  14.272  23.070  0.00  0.00     0.019 A 
ENDBRANCH   7  11
ENDBRANCH   5   6
ENDBRANCH   4   5
ENDBRANCH   2   4
BRANCH   1  17
ATOM     17  C   UNL d   1     -47.065  12.265  23.443  0.00  0.00     0.760 A 
ATOM     18  N   UNL d   1     -46.405  12.061  23.008  0.00  0.00    -0.051 NA
ATOM     19  C   UNL d   1     -45.965  12.738  22.890  0.00  0.00     0.147 A 
ATOM     20  S   UNL d   1     -46.351  13.352  23.248  0.00  0.00     0.052 SA
ATOM     21  N   UNL d   1     -47.033  13.049  23.589  0.00  0.00    -0.019 NA
BRANCH  19  22
ATOM     22  C   UNL d   1     -45.250  12.752  22.468  0.00  0.00     0.026 A 
ATOM     23  C   UNL d   1     -44.689  12.161  22.600  0.00  0.00     0.003 A 
ATOM     24  C   UNL d   1     -43.982  12.178  22.181  0.00  0.00     0.011 A 
ATOM     25  C   UNL d   1     -43.837  12.782  21.635  0.00  0.00     0.058 A 
ATOM     26  C   UNL d   1     -44.391  13.361  21.509  0.00  0.00     0.011 A 
ATOM     27 CL   UNL d   1     -43.138  12.811  21.211  0.00  0.00    -0.082 Cl
ATOM     28  C   UNL d   1     -45.105  13.350  21.927  0.00  0.00     0.003 A 
ENDBRANCH  19  22
ENDBRANCH   1  17
TORSDOF 6
ENDMDL
MODEL 2
REMARK VINA RESULT:      -6.1      1.172      1.484
REMARK  6 active torsions:
REMARK  status: ('A' for Active; 'I' for Inactive)
REMARK    1  A    between atoms: C_15  and  N_1 
REMARK    2  A    between atoms: S_12  and  C_3 
REMARK    3  A    between atoms: C_4  and  N_11 
REMARK    4  A    between atoms: C_14  and  C_8 
REMARK       I    between atoms: N_11  and  C_13 
REMARK    5  A    between atoms: C_17  and  S_12 
REMARK    6  A    between atoms: C_13  and  C_17 
ROOT
ATOM      1  N   UNL d   1     -48.202  11.182  23.694  0.00  0.00    -0.018 NA
ATOM      2  C   UNL d   1     -48.812  11.601  23.342  0.00  0.00     0.302 C 
ATOM      3  O   UNL d   1     -49.600  11.365  23.464  0.00  0.00    -0.264 OA
ENDROOT
BRANCH   2   4
ATOM      4  C   UNL d   1     -48.645  12.254  22.870  0.00  0.00     0.101 C 
BRANCH   4   5
ATOM      5  S   UNL d   1     -49.227  12.833  22.736  0.00  0.00    -0.041 SA
BRANCH   5   6
ATOM      6  C   UNL d   1     -49.310  13.171  21.989  0.00  0.00     0.219 A 
ATOM      7  N   UNL d   1     -49.661  13.917  21.918  0.00  0.00    -0.186 N 
ATOM      8  N   UNL d   1     -49.672  14.116  21.115  0.00  0.00    -0.038 NA
ATOM      9  N   UNL d   1     -49.332  13.499  20.696  0.00  0.00    -0.022 NA
ATOM     10  N   UNL d   1     -49.110  12.917  21.238  0.00  0.00    -0.101 NA
BRANCH   7  11
ATOM     11  C   UNL d   1     -49.957  14.408  22.505  0.00  0.00     0.087 A 
ATOM     12  C   UNL d   1     -49.490  15.022  22.796  0.00  0.00     0.019 A 
ATOM     13  C   UNL d   1     -49.784  15.517  23.385  0.00  0.00     0.002 A 
ATOM     14  C   UNL d   1     -50.535  15.409  23.688  0.00  0.00     0.000 A 
ATOM     15  C   UNL d   1     -51.013  14.788  23.397  0.00  0.00     0.002 A 
ATOM     16  C   UNL d   1     -50.719  14.286  22.801  0.00  0.00     0.019 A 
ENDBRANCH   7  11
ENDBRANCH   5   6
ENDBRANCH   4   5
ENDBRANCH   2   4
BRANCH   1  17
ATOM     17  C   UNL d   1     -47.413  11.418  23.573  0.00  0.00     0.760 A 
ATOM     18  N   UNL d   1     -46.753  10.937  23.558  0.00  0.00    -0.051 NA
ATOM     19  C   UNL d   1     -46.102  11.411  23.423  0.00  0.00     0.147 A 
ATOM     20  S   UNL d   1     -46.359  12.175  23.354  0.00  0.00     0.052 SA
ATOM     21  N   UNL d   1     -47.174  12.169  23.449  0.00  0.00    -0.019 NA
BRANCH  19  22
ATOM     22  C   UNL d   1     -45.326  11.120  23.370  0.00  0.00     0.026 A 
ATOM     23  C   UNL d   1     -44.747  11.574  22.997  0.00  0.00     0.003 A 
ATOM     24  C   UNL d   1     -43.979  11.283  22.947  0.00  0.00     0.011 A 
ATOM     25  C   UNL d   1     -43.794  10.544  23.269  0.00  0.00     0.058 A 
ATOM     26  C   UNL d   1     -44.367  10.101  23.635  0.00  0.00     0.011 A 
ATOM     27 CL   UNL d   1     -43.034  10.243  23.226  0.00  0.00    -0.082 Cl
ATOM     28  C   UNL d   1     -45.140  10.388  23.689  0.00  0.00     0.003 A 
ENDBRANCH  19  22
ENDBRANCH   1  17
TORSDOF 6
ENDMDL
MODEL 3
REMARK VINA RESULT:      -5.7      2.657      3.989
REMARK  6 active torsions:
REMARK  status: ('A' for Active; 'I' for Inactive)
REMARK    1  A    between atoms: C_15  and  N_1 
REMARK    2  A    between atoms: S_12  and  C_3 
REMARK    3  A    between atoms: C_4  and  N_11 
REMARK    4  A    between atoms: C_14  and  C_8 
REMARK       I    between atoms: N_11  and  C_13 
REMARK    5  A    between atoms: C_17  and  S_12 
REMARK    6  A    between atoms: C_13  and  C_17 
ROOT
ATOM      1  N   UNL d   1     -43.602  11.900  22.285  0.00  0.00    -0.018 NA
ATOM      2  C   UNL d   1     -44.355  12.033  22.577  0.00  0.00     0.302 C 
ATOM      3  O   UNL d   1     -44.694  11.493  23.111  0.00  0.00    -0.264 OA
ENDROOT
BRANCH   2   4
ATOM      4  C   UNL d   1     -44.777  12.701  22.342  0.00  0.00     0.101 C 
BRANCH   4   5
ATOM      5  S   UNL d   1     -45.587  12.767  22.519  0.00  0.00    -0.041 SA
BRANCH   5   6
ATOM      6  C   UNL d   1     -45.930  13.510  22.616  0.00  0.00     0.219 A 
ATOM      7  N   UNL d   1     -46.754  13.573  22.669  0.00  0.00    -0.186 N 
ATOM      8  N   UNL d   1     -46.940  14.374  22.764  0.00  0.00    -0.038 NA
ATOM      9  N   UNL d   1     -46.239  14.799  22.768  0.00  0.00    -0.022 NA
ATOM     10  N   UNL d   1     -45.617  14.263  22.677  0.00  0.00    -0.101 NA
BRANCH   7  11
ATOM     11  C   UNL d   1     -47.321  12.982  22.640  0.00  0.00     0.087 A 
ATOM     12  C   UNL d   1     -47.689  12.807  21.922  0.00  0.00     0.019 A 
ATOM     13  C   UNL d   1     -48.259  12.213  21.888  0.00  0.00     0.002 A 
ATOM     14  C   UNL d   1     -48.468  11.793  22.556  0.00  0.00     0.000 A 
ATOM     15  C   UNL d   1     -48.099  11.966  23.287  0.00  0.00     0.002 A 
ATOM     16  C   UNL d   1     -47.522  12.565  23.325  0.00  0.00     0.019 A 
ENDBRANCH   7  11
ENDBRANCH   5   6
ENDBRANCH   4   5
ENDBRANCH   2   4
BRANCH   1  17
ATOM     17  C   UNL d   1     -43.262  12.441  21.750  0.00  0.00     0.760 A 
ATOM     18  N   UNL d   1     -42.620  12.926  21.884  0.00  0.00    -0.051 NA
ATOM     19  C   UNL d   1     -42.488  13.358  21.204  0.00  0.00     0.147 A 
ATOM     20  S   UNL d   1     -43.044  13.140  20.658  0.00  0.00     0.052 SA
ATOM     21  N   UNL d   1     -43.520  12.570  21.006  0.00  0.00    -0.019 NA
BRANCH  19  22
ATOM     22  C   UNL d   1     -41.877  13.915  21.126  0.00  0.00     0.026 A 
ATOM     23  C   UNL d   1     -41.092  13.663  21.147  0.00  0.00     0.003 A 
ATOM     24  C   UNL d   1     -40.490  14.217  21.069  0.00  0.00     0.011 A 
ATOM     25  C   UNL d   1     -40.673  15.018  20.971  0.00  0.00     0.058 A 
ATOM     26  C   UNL d   1     -41.447  15.261  20.951  0.00  0.00     0.011 A 
ATOM     27 CL   UNL d   1     -40.083  15.580  20.893  0.00  0.00    -0.082 Cl
ATOM     28  C   UNL d   1     -42.057  14.709  21.029  0.00  0.00     0.003 A 
ENDBRANCH  19  22
ENDBRANCH   1  17
TORSDOF 6
ENDMDL
MODEL 4
REMARK VINA RESULT:      -4.6      7.239      9.796
REMARK  6 active torsions:
REMARK  status: ('A' for Active; 'I' for Inactive)
REMARK    1  A    between atoms: C_15  and  N_1 
REMARK    2  A    between atoms: S_12  and  C_3 
REMARK    3  A    between atoms: C_4  and  N_11 
REMARK    4  A    between atoms: C_14  and  C_8 
REMARK       I    between atoms: N_11  and  C_13 
REMARK    5  A    between atoms: C_17  and  S_12 
REMARK    6  A    between atoms: C_13  and  C_17 
ROOT
ATOM      1  N   UNL d   1     -38.867  15.422  20.285  0.00  0.00    -0.018 NA
ATOM      2  C   UNL d   1     -38.731  15.546  19.487  0.00  0.00     0.302 C 
ATOM      3  O   UNL d   1     -37.953  15.639  19.209  0.00  0.00    -0.264 OA
ENDROOT
BRANCH   2   4
ATOM      4  C   UNL d   1     -39.364  15.578  18.961  0.00  0.00     0.101 C 
BRANCH   4   5
ATOM      5  S   UNL d   1     -39.238  15.456  18.148  0.00  0.00    -0.041 SA
BRANCH   5   6
ATOM      6  C   UNL d   1     -39.858  15.550  17.614  0.00  0.00     0.219 A 
ATOM      7  N   UNL d   1     -39.794  15.226  16.855  0.00  0.00    -0.186 N 
ATOM      8  N   UNL d   1     -40.490  15.404  16.444  0.00  0.00    -0.038 NA
ATOM      9  N   UNL d   1     -40.977  15.833  16.944  0.00  0.00    -0.022 NA
ATOM     10  N   UNL d   1     -40.585  15.922  17.666  0.00  0.00    -0.101 NA
BRANCH   7  11
ATOM     11  C   UNL d   1     -39.176  14.799  16.525  0.00  0.00     0.087 A 
ATOM     12  C   UNL d   1     -39.153  13.980  16.618  0.00  0.00     0.019 A 
ATOM     13  C   UNL d   1     -38.533  13.547  16.288  0.00  0.00     0.002 A 
ATOM     14  C   UNL d   1     -37.940  13.918  15.869  0.00  0.00     0.000 A 
ATOM     15  C   UNL d   1     -37.958  14.749  15.771  0.00  0.00     0.002 A 
ATOM     16  C   UNL d   1     -38.582  15.189  16.103  0.00  0.00     0.019 A 
ENDBRANCH   7  11
ENDBRANCH   5   6
ENDBRANCH   4   5
ENDBRANCH   2   4
BRANCH   1  17
ATOM     17  C   UNL d   1     -39.646  15.329  20.564  0.00  0.00     0.760 A 
ATOM     18  N   UNL d   1     -40.069  14.633  20.616  0.00  0.00    -0.051 NA
ATOM     19  C   UNL d   1     -40.806  14.811  20.920  0.00  0.00     0.147 A 
ATOM     20  S   UNL d   1     -40.835  15.608  21.053  0.00  0.00     0.052 SA
ATOM     21  N   UNL d   1     -40.110  15.922  20.829  0.00  0.00    -0.019 NA
BRANCH  19  22
ATOM     22  C   UNL d   1     -41.396  14.242  21.054  0.00  0.00     0.026 A 
ATOM     23  C   UNL d   1     -41.182  13.489  21.314  0.00  0.00     0.003 A 
ATOM     24  C   UNL d   1     -41.769  12.928  21.447  0.00  0.00     0.011 A 
ATOM     25  C   UNL d   1     -42.564  13.121  21.319  0.00  0.00     0.058 A 
ATOM     26  C   UNL d   1     -42.768  13.863  21.063  0.00  0.00     0.011 A 
ATOM     27 CL   UNL d   1     -43.157  12.573  21.446  0.00  0.00    -0.082 Cl
ATOM     28  C   UNL d   1     -42.183  14.431  20.928  0.00  0.00     0.003 A 
ENDBRANCH  19  22
ENDBRANCH   1  17
TORSDOF 6
ENDMDL
MODEL 5
REMARK VINA RESULT:      -4.5      2.104      4.938
REMARK  6 active torsions:
REMARK  status: ('A' for Active; 'I' for Inactive)
REMARK    1  A    between atoms: C_15  and  N_1 
REMARK    2  A    between atoms: S_12  and  C_3 
REMARK    3  A    between atoms: C_4  and  N_11 
REMARK    4  A    between atoms: C_14  and  C_8 
REMARK       I    between atoms: N_11  and  C_13 
REMARK    5  A    between atoms: C_17  and  S_12 
REMARK    6  A    between atoms: C_13  and  C_17 
ROOT
ATOM      1  N   UNL d   1     -47.932  10.731  23.210  0.00  0.00    -0.018 NA
ATOM      2  C   UNL d   1     -47.203  11.103  23.238  0.00  0.00     0.302 C 
ATOM      3  O   UNL d   1     -46.507  10.649  23.268  0.00  0.00    -0.264 OA
ENDROOT
BRANCH   2   4
ATOM      4  C   UNL d   1     -47.160  11.926  23.236  0.00  0.00     0.101 C 
BRANCH   4   5
ATOM      5  S   UNL d   1     -46.436  12.305  23.082  0.00  0.00    -0.041 SA
BRANCH   5   6
ATOM      6  C   UNL d   1     -46.394  13.128  23.072  0.00  0.00     0.219 A 
ATOM      7  N   UNL d   1     -45.764  13.499  22.682  0.00  0.00    -0.186 N 
ATOM      8  N   UNL d   1     -45.864  14.317  22.761  0.00  0.00    -0.038 NA
ATOM      9  N   UNL d   1     -46.547  14.448  23.194  0.00  0.00    -0.022 NA
ATOM     10  N   UNL d   1     -46.873  13.713  23.384  0.00  0.00    -0.101 NA
BRANCH   7  11
ATOM     11  C   UNL d   1     -45.135  13.161  22.279  0.00  0.00     0.087 A 
ATOM     12  C   UNL d   1     -45.069  13.269  21.464  0.00  0.00     0.019 A 
ATOM     13  C   UNL d   1     -44.438  12.931  21.056  0.00  0.00     0.002 A 
ATOM     14  C   UNL d   1     -43.874  12.490  21.446  0.00  0.00     0.000 A 
ATOM     15  C   UNL d   1     -43.935  12.377  22.273  0.00  0.00     0.002 A 
ATOM     16  C   UNL d   1     -44.571  12.716  22.689  0.00  0.00     0.019 A 
ENDBRANCH   7  11
ENDBRANCH   5   6
ENDBRANCH   4   5
ENDBRANCH   2   4
BRANCH   1  17
ATOM     17  C   UNL d   1     -48.629  11.185  23.179  0.00  0.00     0.760 A 
ATOM     18  N   UNL d   1     -48.820  11.756  22.628  0.00  0.00    -0.051 NA
ATOM     19  C   UNL d   1     -49.556  12.052  22.819  0.00  0.00     0.147 A 
ATOM     20  S   UNL d   1     -49.816  11.667  23.481  0.00  0.00     0.052 SA
ATOM     21  N   UNL d   1     -49.234  11.130  23.698  0.00  0.00    -0.019 NA
BRANCH  19  22
ATOM     22  C   UNL d   1     -49.939  12.646  22.383  0.00  0.00     0.026 A 
ATOM     23  C   UNL d   1     -50.420  13.190  22.775  0.00  0.00     0.003 A 
ATOM     24  C   UNL d   1     -50.797  13.777  22.340  0.00  0.00     0.011 A 
ATOM     25  C   UNL d   1     -50.694  13.819  21.520  0.00  0.00     0.058 A 
ATOM     26  C   UNL d   1     -50.220  13.281  21.140  0.00  0.00     0.011 A 
ATOM     27 CL   UNL d   1     -51.064  14.398  21.076  0.00  0.00    -0.082 Cl
ATOM     28  C   UNL d   1     -49.838  12.688  21.571  0.00  0.00     0.003 A 
ENDBRANCH  19  22
ENDBRANCH   1  17
TORSDOF 6
ENDMDL
MODEL 6
REMARK VINA RESULT:      -4.4      1.299      1.671
REMARK  6 active torsions:
REMARK  status: ('A' for Active; 'I' for Inactive)
REMARK    1  A    between atoms: C_15  and  N_1 
REMARK    2  A    between atoms: S_12  and  C_3 
REMARK    3  A    between atoms: C_4  and  N_11 
REMARK    4  A    between atoms: C_14  and  C_8 
REMARK       I    between atoms: N_11  and  C_13 
REMARK    5  A    between atoms: C_17  and  S_12 
REMARK    6  A    between atoms: C_13  and  C_17 
ROOT
ATOM      1  N   UNL d   1     -47.311  11.460  22.902  0.00  0.00    -0.018 NA
ATOM      2  C   UNL d   1     -47.880  12.045  22.834  0.00  0.00     0.302 C 
ATOM      3  O   UNL d   1     -48.679  11.837  22.739  0.00  0.00    -0.264 OA
ENDROOT
BRANCH   2   4
ATOM      4  C   UNL d   1     -47.660  12.839  22.860  0.00  0.00     0.101 C 
BRANCH   4   5
ATOM      5  S   UNL d   1     -48.242  13.433  22.851  0.00  0.00    -0.041 SA
BRANCH   5   6
ATOM      6  C   UNL d   1     -48.026  14.221  22.746  0.00  0.00     0.219 A 
ATOM      7  N   UNL d   1     -48.613  14.805  22.735  0.00  0.00    -0.186 N 
ATOM      8  N   UNL d   1     -48.240  15.536  22.622  0.00  0.00    -0.038 NA
ATOM      9  N   UNL d   1     -47.434  15.403  22.564  0.00  0.00    -0.022 NA
ATOM     10  N   UNL d   1     -47.304  14.591  22.641  0.00  0.00    -0.101 NA
BRANCH   7  11
ATOM     11  C   UNL d   1     -49.425  14.725  22.816  0.00  0.00     0.087 A 
ATOM     12  C   UNL d   1     -49.887  14.573  22.150  0.00  0.00     0.019 A 
ATOM     13  C   UNL d   1     -50.703  14.491  22.227  0.00  0.00     0.002 A 
ATOM     14  C   UNL d   1     -51.064  14.558  22.956  0.00  0.00     0.000 A 
ATOM     15  C   UNL d   1     -50.601  14.712  23.636  0.00  0.00     0.002 A 
ATOM     16  C   UNL d   1     -49.776  14.795  23.561  0.00  0.00     0.019 A 
ENDBRANCH   7  11
ENDBRANCH   5   6
ENDBRANCH   4   5
ENDBRANCH   2   4
BRANCH   1  17
ATOM     17  C   UNL d   1     -46.510  11.668  22.998  0.00  0.00     0.760 A 
ATOM     18  N   UNL d   1     -45.980  11.864  22.409  0.00  0.00    -0.051 NA
ATOM     19  C   UNL d   1     -45.263  12.027  22.763  0.00  0.00     0.147 A 
ATOM     20  S   UNL d   1     -45.351  11.932  23.562  0.00  0.00     0.052 SA
ATOM     21  N   UNL d   1     -46.129  11.709  23.698  0.00  0.00    -0.019 NA
BRANCH  19  22
ATOM     22  C   UNL d   1     -44.583  12.249  22.341  0.00  0.00     0.026 A 
ATOM     23  C   UNL d   1     -44.627  12.866  21.795  0.00  0.00     0.003 A 
ATOM     24  C   UNL d   1     -43.952  13.083  21.379  0.00  0.00     0.011 A 
ATOM     25  C   UNL d   1     -43.238  12.685  21.509  0.00  0.00     0.058 A 
ATOM     26  C   UNL d   1     -43.200  12.079  22.047  0.00  0.00     0.011 A 
ATOM     27 CL   UNL d   1     -42.559  12.891  21.102  0.00  0.00    -0.082 Cl
ATOM     28  C   UNL d   1     -43.875  11.855  22.468  0.00  0.00     0.003 A 
ENDBRANCH  19  22
ENDBRANCH   1  17
TORSDOF 6
ENDMDL
