MODEL 1
REMARK VINA RESULT:     108.5      0.000      0.000
REMARK  3 active torsions:
REMARK  status: ('A' for Active; 'I' for Inactive)
REMARK       I    between atoms: N_2  and  C_1 
REMARK    1  A    between atoms: C_9  and  C_1 
REMARK    2  A    between atoms: C_6  and  N_5 
REMARK    3  A    between atoms: N_8  and  C_7 
ROOT
ATOM      1  C   UNL d   1      60.180  49.111  50.530  0.00  0.00     0.265 C 
ATOM      2  N   UNL d   1      60.439  48.329  50.579  0.00  0.00    -0.269 N 
ATOM      3  N   UNL d   1      60.951  46.767  50.680  0.00  0.00    -0.285 N 
ATOM      4  C   UNL d   1      59.908  47.739  50.826  0.00  0.00     0.102 A 
ATOM      5  C   UNL d   1      61.215  48.136  50.386  0.00  0.00     0.102 A 
ATOM      6  C   UNL d   1      60.168  46.954  50.875  0.00  0.00     0.101 A 
ATOM      7  C   UNL d   1      61.481  47.359  50.433  0.00  0.00     0.101 A 
ATOM      8  O   UNL d   1      60.703  49.708  50.284  0.00  0.00    -0.267 OA
ENDROOT
BRANCH   3   9
ATOM      9  C   UNL d   1      61.210  45.983  50.729  0.00  0.00     0.170 A 
ATOM     10  N   UNL d   1      61.069  45.549  51.412  0.00  0.00    -0.129 NA
ATOM     11  N   UNL d   1      61.327  44.769  51.461  0.00  0.00    -0.129 NA
ATOM     12  C   UNL d   1      61.730  44.414  50.825  0.00  0.00     0.170 A 
ATOM     13  C   UNL d   1      61.866  44.860  50.144  0.00  0.00     0.042 A 
ATOM     14  C   UNL d   1      61.608  45.640  50.094  0.00  0.00     0.042 A 
BRANCH  12  15
ATOM     15  N   UNL d   1      61.988  43.634  50.875  0.00  0.00    -0.284 N 
ATOM     16  C   UNL d   1      61.821  43.183  51.545  0.00  0.00     0.108 A 
ATOM     17  C   UNL d   1      62.079  42.403  51.594  0.00  0.00     0.142 A 
ATOM     18  O   UNL d   1      62.503  42.077  50.974  0.00  0.00    -0.300 OA
ATOM     19  C   UNL d   1      62.672  42.519  50.306  0.00  0.00     0.142 A 
ATOM     20  C   UNL d   1      62.418  43.304  50.244  0.00  0.00     0.108 A 
ENDBRANCH  12  15
ENDBRANCH   3   9
BRANCH   1  21
ATOM     21  C   UNL d   1      59.400  49.311  50.722  0.00  0.00     0.057 A 
ATOM     22  C   UNL d   1      58.829  49.403  50.130  0.00  0.00     0.005 A 
ATOM     23  C   UNL d   1      58.058  49.602  50.325  0.00  0.00     0.000 A 
ATOM     24  C   UNL d   1      57.498  49.690  49.727  0.00  0.00     0.000 C 
ATOM     25  C   UNL d   1      57.861  49.708  51.120  0.00  0.00     0.000 A 
ATOM     26  C   UNL d   1      58.426  49.618  51.718  0.00  0.00     0.000 A 
ATOM     27  C   UNL d   1      59.191  49.420  51.511  0.00  0.00     0.005 A 
ENDBRANCH   1  21
TORSDOF 3
ENDMDL
MODEL 2
REMARK VINA RESULT:     109.7      0.777      1.069
REMARK  3 active torsions:
REMARK  status: ('A' for Active; 'I' for Inactive)
REMARK       I    between atoms: N_2  and  C_1 
REMARK    1  A    between atoms: C_9  and  C_1 
REMARK    2  A    between atoms: C_6  and  N_5 
REMARK    3  A    between atoms: N_8  and  C_7 
ROOT
ATOM      1  C   UNL d   1      60.694  49.021  50.425  0.00  0.00     0.265 C 
ATOM      2  N   UNL d   1      60.936  48.233  50.404  0.00  0.00    -0.269 N 
ATOM      3  N   UNL d   1      61.416  46.658  50.363  0.00  0.00    -0.285 N 
ATOM      4  C   UNL d   1      60.521  47.667  50.848  0.00  0.00     0.102 A 
ATOM      5  C   UNL d   1      61.582  48.010  49.946  0.00  0.00     0.102 A 
ATOM      6  C   UNL d   1      60.764  46.875  50.826  0.00  0.00     0.101 A 
ATOM      7  C   UNL d   1      61.830  47.226  49.918  0.00  0.00     0.101 A 
ATOM      8  O   UNL d   1      61.102  49.595  49.984  0.00  0.00    -0.267 OA
ENDROOT
BRANCH   3   9
ATOM      9  C   UNL d   1      61.659  45.868  50.341  0.00  0.00     0.170 A 
ATOM     10  N   UNL d   1      62.238  45.633  49.810  0.00  0.00    -0.129 NA
ATOM     11  N   UNL d   1      62.480  44.846  49.788  0.00  0.00    -0.129 NA
ATOM     12  C   UNL d   1      62.142  44.285  50.301  0.00  0.00     0.170 A 
ATOM     13  C   UNL d   1      61.559  44.531  50.832  0.00  0.00     0.042 A 
ATOM     14  C   UNL d   1      61.318  45.318  50.853  0.00  0.00     0.042 A 
BRANCH  12  15
ATOM     15  N   UNL d   1      62.384  43.498  50.279  0.00  0.00    -0.284 N 
ATOM     16  C   UNL d   1      62.583  43.144  49.562  0.00  0.00     0.108 A 
ATOM     17  C   UNL d   1      62.825  42.357  49.540  0.00  0.00     0.142 A 
ATOM     18  O   UNL d   1      62.866  41.928  50.236  0.00  0.00    -0.300 OA
ATOM     19  C   UNL d   1      62.669  42.273  50.952  0.00  0.00     0.142 A 
ATOM     20  C   UNL d   1      62.425  43.063  50.986  0.00  0.00     0.108 A 
ENDBRANCH  12  15
ENDBRANCH   3   9
BRANCH   1  21
ATOM     21  C   UNL d   1      60.044  49.251  50.884  0.00  0.00     0.057 A 
ATOM     22  C   UNL d   1      59.298  49.352  50.540  0.00  0.00     0.005 A 
ATOM     23  C   UNL d   1      58.657  49.580  50.997  0.00  0.00     0.000 A 
ATOM     24  C   UNL d   1      57.919  49.677  50.644  0.00  0.00     0.000 C 
ATOM     25  C   UNL d   1      58.768  49.707  51.805  0.00  0.00     0.000 A 
ATOM     26  C   UNL d   1      59.510  49.609  52.158  0.00  0.00     0.000 A 
ATOM     27  C   UNL d   1      60.142  49.381  51.691  0.00  0.00     0.005 A 
ENDBRANCH   1  21
TORSDOF 3
ENDMDL
