MODEL 1
REMARK VINA RESULT:      -1.7      0.000      0.000
REMARK  4 active torsions:
REMARK  status: ('A' for Active; 'I' for Inactive)
REMARK    1  A    between atoms: C_5  and  N_1 
REMARK    2  A    between atoms: C_7  and  C_5 
REMARK    3  A    between atoms: O_11  and  C_8 
REMARK    4  A    between atoms: C_16  and  O_11 
ROOT
ATOM      1  N   UNL d   1     -42.724-122.691 -50.314  0.00  0.00    -0.251 N 
ATOM      2  C   UNL d   1     -43.459-122.294 -50.303  0.00  0.00     0.378 A 
ATOM      3  C   UNL d   1     -42.528-122.895 -49.541  0.00  0.00     0.092 A 
ATOM      4  O   UNL d   1     -43.651-122.291 -49.501  0.00  0.00    -0.258 OA
ATOM      5  C   UNL d   1     -43.138-122.627 -49.044  0.00  0.00     0.121 A 
ATOM      6  O   UNL d   1     -43.863-121.992 -50.962  0.00  0.00    -0.237 OA
ATOM      7  C   UNL d   1     -41.879-123.287 -49.223  0.00  0.00     0.020 A 
ATOM      8  C   UNL d   1     -43.091-122.756 -48.221  0.00  0.00     0.026 A 
ATOM      9  C   UNL d   1     -41.833-123.415 -48.400  0.00  0.00     0.002 A 
ATOM     10  C   UNL d   1     -42.436-123.152 -47.894  0.00  0.00     0.002 A 
ATOM     11  C   UNL d   1     -41.168-123.816 -48.080  0.00  0.00     0.000 C 
ENDROOT
BRANCH   1  12
ATOM     12  C   UNL d   1     -42.283-122.846 -50.987  0.00  0.00     0.087 C 
BRANCH  12  13
ATOM     13  C   UNL d   1     -41.895-122.234 -51.383  0.00  0.00     0.041 A 
ATOM     14  C   UNL d   1     -41.689-122.331 -52.175  0.00  0.00     0.101 A 
ATOM     15  C   UNL d   1     -41.303-121.718 -52.567  0.00  0.00     0.025 A 
ATOM     16  C   UNL d   1     -41.123-121.016 -52.175  0.00  0.00     0.002 A 
ATOM     17  C   UNL d   1     -41.333-120.924 -51.377  0.00  0.00     0.000 A 
ATOM     18  C   UNL d   1     -41.720-121.537 -50.985  0.00  0.00     0.004 A 
BRANCH  14  19
ATOM     19  O   UNL d   1     -41.882-123.042 -52.538  0.00  0.00    -0.307 OA
BRANCH  19  20
ATOM     20  C   UNL d   1     -41.646-123.184 -53.324  0.00  0.00     0.100 C 
ATOM     21  C   UNL d   1     -41.926-122.699 -53.933  0.00  0.00     0.027 C 
ATOM     22  C   UNL d   1     -41.133-123.808 -53.494  0.00  0.00     0.027 C 
ENDBRANCH  19  20
ENDBRANCH  14  19
ENDBRANCH  12  13
ENDBRANCH   1  12
TORSDOF 4
ENDMDL
MODEL 2
REMARK VINA RESULT:      -0.3      1.184      3.946
REMARK  4 active torsions:
REMARK  status: ('A' for Active; 'I' for Inactive)
REMARK    1  A    between atoms: C_5  and  N_1 
REMARK    2  A    between atoms: C_7  and  C_5 
REMARK    3  A    between atoms: O_11  and  C_8 
REMARK    4  A    between atoms: C_16  and  O_11 
ROOT
ATOM      1  N   UNL d   1     -41.347-121.791 -51.386  0.00  0.00    -0.251 N 
ATOM      2  C   UNL d   1     -41.228-120.966 -51.449  0.00  0.00     0.378 A 
ATOM      3  C   UNL d   1     -41.375-122.107 -52.145  0.00  0.00     0.092 A 
ATOM      4  O   UNL d   1     -41.194-120.850 -52.264  0.00  0.00    -0.258 OA
ATOM      5  C   UNL d   1     -41.275-121.483 -52.685  0.00  0.00     0.121 A 
ATOM      6  O   UNL d   1     -41.166-120.430 -50.817  0.00  0.00    -0.237 OA
ATOM      7  C   UNL d   1     -41.478-122.875 -52.417  0.00  0.00     0.020 A 
ATOM      8  C   UNL d   1     -41.278-121.638 -53.505  0.00  0.00     0.026 A 
ATOM      9  C   UNL d   1     -41.482-123.029 -53.238  0.00  0.00     0.002 A 
ATOM     10  C   UNL d   1     -41.382-122.414 -53.786  0.00  0.00     0.002 A 
ATOM     11  C   UNL d   1     -41.588-123.817 -53.511  0.00  0.00     0.000 C 
ENDROOT
BRANCH   1  12
ATOM     12  C   UNL d   1     -41.421-122.203 -50.682  0.00  0.00     0.087 C 
BRANCH  12  13
ATOM     13  C   UNL d   1     -42.166-122.363 -50.366  0.00  0.00     0.041 A 
ATOM     14  C   UNL d   1     -42.227-122.806 -49.675  0.00  0.00     0.101 A 
ATOM     15  C   UNL d   1     -42.973-122.963 -49.363  0.00  0.00     0.025 A 
ATOM     16  C   UNL d   1     -43.653-122.682 -49.735  0.00  0.00     0.002 A 
ATOM     17  C   UNL d   1     -43.585-122.236 -50.432  0.00  0.00     0.000 A 
ATOM     18  C   UNL d   1     -42.839-122.078 -50.745  0.00  0.00     0.004 A 
BRANCH  14  19
ATOM     19  O   UNL d   1     -41.533-123.073 -49.326  0.00  0.00    -0.307 OA
BRANCH  19  20
ATOM     20  C   UNL d   1     -41.469-123.102 -48.496  0.00  0.00     0.100 C 
ATOM     21  C   UNL d   1     -41.582-122.415 -48.049  0.00  0.00     0.027 C 
ATOM     22  C   UNL d   1     -41.294-123.816 -48.122  0.00  0.00     0.027 C 
ENDBRANCH  19  20
ENDBRANCH  14  19
ENDBRANCH  12  13
ENDBRANCH   1  12
TORSDOF 4
ENDMDL
