MODEL 1
REMARK VINA RESULT:      67.4      0.000      0.000
REMARK  4 active torsions:
REMARK  status: ('A' for Active; 'I' for Inactive)
REMARK    1  A    between atoms: C_10  and  C_4 
REMARK       I    between atoms: N_11  and  C_10 
REMARK    2  A    between atoms: C_12  and  C_19 
REMARK    3  A    between atoms: O_26  and  C_12 
REMARK    4  A    between atoms: C_27  and  O_26 
ROOT
ATOM      1  C   UNL d   1      15.107  14.679  -0.803  0.00  0.00     0.154 A 
ATOM      2  C   UNL d   1      14.692  14.565  -1.504  0.00  0.00     0.093 A 
ATOM      3  N   UNL d   1      15.258  14.031  -0.301  0.00  0.00    -0.211 NA
ATOM      4  C   UNL d   1      15.003  15.861  -1.413  0.00  0.00     0.122 A 
ATOM      5  N   UNL d   1      15.299  15.476  -0.746  0.00  0.00    -0.285 N 
ATOM      6  C   UNL d   1      14.423  13.810  -1.713  0.00  0.00     0.269 A 
ATOM      7  N   UNL d   1      14.570  13.169  -1.221  0.00  0.00    -0.259 N 
ATOM      8  C   UNL d   1      14.992  13.277  -0.507  0.00  0.00     0.140 A 
ATOM      9  C   UNL d   1      14.628  15.292  -1.879  0.00  0.00     0.030 A 
ATOM     10  C   UNL d   1      14.305  12.415  -1.425  0.00  0.00     0.084 A 
ATOM     11  O   UNL d   1      14.006  13.699  -2.419  0.00  0.00    -0.266 OA
ATOM     12  C   UNL d   1      15.140  12.644  -0.015  0.00  0.00     0.064 A 
ATOM     13  C   UNL d   1      14.456  11.779  -0.927  0.00  0.00     0.018 A 
ATOM     14  C   UNL d   1      14.878  11.895  -0.215  0.00  0.00    -0.008 A 
ATOM     15  C   UNL d   1      15.718  15.830  -0.125  0.00  0.00     0.101 C 
ENDROOT
BRANCH   4  16
ATOM     16  C   UNL d   1      15.069  16.669  -1.583  0.00  0.00     0.281 C 
ATOM     17  N   UNL d   1      15.052  16.924  -2.366  0.00  0.00    -0.271 N 
ATOM     18  C   UNL d   1      14.969  16.382  -2.981  0.00  0.00     0.083 A 
ATOM     19  C   UNL d   1      15.119  17.732  -2.537  0.00  0.00     0.083 A 
ATOM     20  C   UNL d   1      14.953  16.642  -3.760  0.00  0.00     0.025 A 
ATOM     21  C   UNL d   1      15.019  17.450  -3.930  0.00  0.00     0.067 A 
ATOM     22  C   UNL d   1      15.102  17.991  -3.321  0.00  0.00     0.025 A 
ATOM     23  O   UNL d   1      15.152  17.211  -0.970  0.00  0.00    -0.265 OA
BRANCH  21  24
ATOM     24  C   UNL d   1      15.003  17.710  -4.714  0.00  0.00     0.300 C 
ATOM     25  O   UNL d   1      15.312  17.227  -5.312  0.00  0.00    -0.259 OA
BRANCH  24  26
ATOM     26  O   UNL d   1      14.681  18.445  -4.898  0.00  0.00    -0.271 OA
BRANCH  26  27
ATOM     27  C   UNL d   1      14.735  18.730  -5.667  0.00  0.00     0.126 C 
ATOM     28  C   UNL d   1      14.296  19.396  -5.887  0.00  0.00     0.029 C 
ENDBRANCH  26  27
ENDBRANCH  24  26
ENDBRANCH  21  24
ENDBRANCH   4  16
TORSDOF 4
ENDMDL
