MODEL 1
REMARK VINA RESULT:      19.6      0.000      0.000
REMARK  3 active torsions:
REMARK  status: ('A' for Active; 'I' for Inactive)
REMARK    1  A    between atoms: C_6  and  C_2 
REMARK    2  A    between atoms: O_7  and  C_6 
REMARK    3  A    between atoms: C_8  and  O_7 
ROOT
ATOM      1  N   UNL d   1      14.288  11.858  -2.446  0.00  0.00    -0.224 NA
ATOM      2  C   UNL d   1      13.475  11.804  -2.570  0.00  0.00     0.188 A 
ATOM      3  N   UNL d   1      13.103  11.781  -1.810  0.00  0.00    -0.224 NA
ATOM      4  C   UNL d   1      14.419  11.869  -1.615  0.00  0.00     0.101 A 
ATOM      5  C   UNL d   1      13.693  11.822  -1.225  0.00  0.00     0.101 A 
ATOM      6  C   UNL d   1      15.118  11.916  -1.179  0.00  0.00     0.021 A 
ATOM      7  C   UNL d   1      13.667  11.823  -0.400  0.00  0.00     0.021 A 
ATOM      8  C   UNL d   1      15.066  11.915  -0.404  0.00  0.00     0.002 A 
ATOM      9  C   UNL d   1      14.339  11.868  -0.014  0.00  0.00     0.002 A 
ENDROOT
BRANCH   2  10
ATOM     10  C   UNL d   1      13.510  11.803  -3.371  0.00  0.00     0.161 C 
BRANCH  10  11
ATOM     11  O   UNL d   1      13.126  12.396  -3.794  0.00  0.00    -0.302 OA
BRANCH  11  12
ATOM     12  C   UNL d   1      13.152  13.097  -4.229  0.00  0.00     0.100 A 
ATOM     13  C   UNL d   1      12.770  13.771  -3.948  0.00  0.00     0.026 A 
ATOM     14  C   UNL d   1      12.796  14.468  -4.380  0.00  0.00     0.013 A 
ATOM     15  C   UNL d   1      13.204  14.498  -5.098  0.00  0.00     0.058 A 
ATOM     16  C   UNL d   1      13.587  13.819  -5.380  0.00  0.00     0.013 A 
ATOM     17 CL   UNL d   1      13.229  15.195  -5.530  0.00  0.00    -0.082 Cl
ATOM     18  C   UNL d   1      13.561  13.122  -4.948  0.00  0.00     0.026 A 
ENDBRANCH  11  12
ENDBRANCH  10  11
ENDBRANCH   2  10
TORSDOF 3
ENDMDL
