MODEL 1
REMARK VINA RESULT:      -5.2      0.000      0.000
REMARK  5 active torsions:
REMARK  status: ('A' for Active; 'I' for Inactive)
REMARK    1  A    between atoms: N_5  and  C_1 
REMARK    2  A    between atoms: C_8  and  C_2 
REMARK       I    between atoms: C_7  and  N_5 
REMARK    3  A    between atoms: C_10  and  C_7 
REMARK    4  A    between atoms: O_12  and  C_8 
REMARK    5  A    between atoms: C_16  and  O_12 
ROOT
ATOM      1  C   UNL d   1      57.915   0.194  30.578  0.00  0.00     0.114 A 
ATOM      2  C   UNL d   1      58.945  -0.053  29.775  0.00  0.00     0.094 A 
ATOM      3  S   UNL d   1      58.651  -0.169  30.517  0.00  0.00    -0.062 SA
ATOM      4  C   UNL d   1      58.363   0.399  29.369  0.00  0.00     0.013 A 
ATOM      5  C   UNL d   1      57.762   0.537  29.852  0.00  0.00     0.027 A 
ATOM      6  C   UNL d   1      58.411   0.658  28.585  0.00  0.00     0.001 C 
ENDROOT
BRANCH   1   7
ATOM      7  N   UNL d   1      57.399   0.214  31.264  0.00  0.00    -0.201 NA
ATOM      8  C   UNL d   1      56.988  -0.461  31.481  0.00  0.00     0.280 C 
ATOM      9  O   UNL d   1      57.064  -1.155  31.053  0.00  0.00    -0.265 OA
BRANCH   8  10
ATOM     10  C   UNL d   1      56.497  -0.441  32.133  0.00  0.00     0.058 A 
ATOM     11  C   UNL d   1      56.241  -1.131  32.493  0.00  0.00     0.005 A 
ATOM     12  C   UNL d   1      55.745  -1.124  33.153  0.00  0.00     0.000 A 
ATOM     13  C   UNL d   1      55.506  -0.390  33.451  0.00  0.00     0.000 A 
ATOM     14  C   UNL d   1      55.755   0.313  33.100  0.00  0.00     0.000 A 
ATOM     15  C   UNL d   1      56.251   0.293  32.441  0.00  0.00     0.005 A 
ENDBRANCH   8  10
ENDBRANCH   1   7
BRANCH   2  16
ATOM     16  C   UNL d   1      59.673  -0.322  29.469  0.00  0.00     0.306 C 
ATOM     17  O   UNL d   1      60.285   0.213  29.400  0.00  0.00    -0.258 OA
BRANCH  16  18
ATOM     18  O   UNL d   1      59.782  -1.100  29.242  0.00  0.00    -0.271 OA
BRANCH  18  19
ATOM     19  C   UNL d   1      60.538  -1.390  29.096  0.00  0.00     0.126 C 
ATOM     20  C   UNL d   1      60.624  -2.181  28.868  0.00  0.00     0.029 C 
ENDBRANCH  18  19
ENDBRANCH  16  18
ENDBRANCH   2  16
TORSDOF 5
ENDMDL
MODEL 2
REMARK VINA RESULT:      -4.5      0.925      1.151
REMARK  5 active torsions:
REMARK  status: ('A' for Active; 'I' for Inactive)
REMARK    1  A    between atoms: N_5  and  C_1 
REMARK    2  A    between atoms: C_8  and  C_2 
REMARK       I    between atoms: C_7  and  N_5 
REMARK    3  A    between atoms: C_10  and  C_7 
REMARK    4  A    between atoms: O_12  and  C_8 
REMARK    5  A    between atoms: C_16  and  O_12 
ROOT
ATOM      1  C   UNL d   1      57.829   0.144  30.895  0.00  0.00     0.114 A 
ATOM      2  C   UNL d   1      58.475  -0.359  29.848  0.00  0.00     0.094 A 
ATOM      3  S   UNL d   1      57.846  -0.465  30.341  0.00  0.00    -0.062 SA
ATOM      4  C   UNL d   1      58.856   0.343  30.114  0.00  0.00     0.013 A 
ATOM      5  C   UNL d   1      58.466   0.629  30.730  0.00  0.00     0.027 A 
ATOM      6  C   UNL d   1      59.534   0.682  29.781  0.00  0.00     0.001 C 
ENDROOT
BRANCH   1   7
ATOM      7  N   UNL d   1      57.259   0.259  31.526  0.00  0.00    -0.201 NA
ATOM      8  C   UNL d   1      56.872  -0.390  31.843  0.00  0.00     0.280 C 
ATOM      9  O   UNL d   1      57.021  -1.146  31.566  0.00  0.00    -0.265 OA
BRANCH   8  10
ATOM     10  C   UNL d   1      56.330  -0.281  32.445  0.00  0.00     0.058 A 
ATOM     11  C   UNL d   1      56.123   0.469  32.700  0.00  0.00     0.005 A 
ATOM     12  C   UNL d   1      55.577   0.591  33.306  0.00  0.00     0.000 A 
ATOM     13  C   UNL d   1      55.233  -0.074  33.660  0.00  0.00     0.000 A 
ATOM     14  C   UNL d   1      55.430  -0.835  33.415  0.00  0.00     0.000 A 
ATOM     15  C   UNL d   1      55.978  -0.945  32.807  0.00  0.00     0.005 A 
ENDBRANCH   8  10
ENDBRANCH   1   7
BRANCH   2  16
ATOM     16  C   UNL d   1      58.705  -0.842  29.207  0.00  0.00     0.306 C 
ATOM     17  O   UNL d   1      58.443  -0.643  28.460  0.00  0.00    -0.258 OA
BRANCH  16  18
ATOM     18  O   UNL d   1      59.181  -1.498  29.313  0.00  0.00    -0.271 OA
BRANCH  18  19
ATOM     19  C   UNL d   1      59.273  -2.049  28.709  0.00  0.00     0.126 C 
ATOM     20  C   UNL d   1      59.463  -2.829  28.906  0.00  0.00     0.029 C 
ENDBRANCH  18  19
ENDBRANCH  16  18
ENDBRANCH   2  16
TORSDOF 5
ENDMDL
MODEL 3
REMARK VINA RESULT:      -3.9      1.050      1.530
REMARK  5 active torsions:
REMARK  status: ('A' for Active; 'I' for Inactive)
REMARK    1  A    between atoms: N_5  and  C_1 
REMARK    2  A    between atoms: C_8  and  C_2 
REMARK       I    between atoms: C_7  and  N_5 
REMARK    3  A    between atoms: C_10  and  C_7 
REMARK    4  A    between atoms: O_12  and  C_8 
REMARK    5  A    between atoms: C_16  and  O_12 
ROOT
ATOM      1  C   UNL d   1      57.547  -0.126  30.956  0.00  0.00     0.114 A 
ATOM      2  C   UNL d   1      58.251  -0.123  29.827  0.00  0.00     0.094 A 
ATOM      3  S   UNL d   1      57.901   0.347  30.382  0.00  0.00    -0.062 SA
ATOM      4  C   UNL d   1      58.103  -0.913  30.076  0.00  0.00     0.013 A 
ATOM      5  C   UNL d   1      57.689  -0.902  30.740  0.00  0.00     0.027 A 
ATOM      6  C   UNL d   1      58.354  -1.598  29.684  0.00  0.00     0.001 C 
ENDROOT
BRANCH   1   7
ATOM      7  N   UNL d   1      57.113   0.133  31.649  0.00  0.00    -0.201 NA
ATOM      8  C   UNL d   1      56.705  -0.417  32.099  0.00  0.00     0.280 C 
ATOM      9  O   UNL d   1      56.708  -1.210  31.897  0.00  0.00    -0.265 OA
BRANCH   8  10
ATOM     10  C   UNL d   1      56.292  -0.171  32.759  0.00  0.00     0.058 A 
ATOM     11  C   UNL d   1      56.591   0.406  33.258  0.00  0.00     0.005 A 
ATOM     12  C   UNL d   1      56.183   0.663  33.927  0.00  0.00     0.000 A 
ATOM     13  C   UNL d   1      55.447   0.319  34.090  0.00  0.00     0.000 A 
ATOM     14  C   UNL d   1      55.132  -0.262  33.598  0.00  0.00     0.000 A 
ATOM     15  C   UNL d   1      55.550  -0.511  32.931  0.00  0.00     0.005 A 
ENDBRANCH   8  10
ENDBRANCH   1   7
BRANCH   2  16
ATOM     16  C   UNL d   1      58.672   0.119  29.149  0.00  0.00     0.306 C 
ATOM     17  O   UNL d   1      58.255   0.237  28.458  0.00  0.00    -0.258 OA
BRANCH  16  18
ATOM     18  O   UNL d   1      59.481   0.238  29.165  0.00  0.00    -0.271 OA
BRANCH  18  19
ATOM     19  C   UNL d   1      59.857   0.630  28.548  0.00  0.00     0.126 C 
ATOM     20  C   UNL d   1      60.683   0.675  28.549  0.00  0.00     0.029 C 
ENDBRANCH  18  19
ENDBRANCH  16  18
ENDBRANCH   2  16
TORSDOF 5
ENDMDL
