MODEL 1
REMARK VINA RESULT:      -4.1      0.000      0.000
REMARK  4 active torsions:
REMARK  status: ('A' for Active; 'I' for Inactive)
REMARK    1  A    between atoms: N_4  and  S_1 
REMARK    2  A    between atoms: C_5  and  S_1 
REMARK    3  A    between atoms: C_3  and  C_9 
REMARK    4  A    between atoms: C_14  and  N_4 
ROOT
ATOM      1  S   UNL d   1      33.029  18.968 -22.823  0.00  0.00     0.285 S 
ATOM      2  O   UNL d   1      33.241  18.399 -22.268  0.00  0.00    -0.198 OA
ATOM      3  O   UNL d   1      32.793  19.371 -23.505  0.00  0.00    -0.198 OA
ENDROOT
BRANCH   1   4
ATOM      4  N   UNL d   1      32.814  18.750 -23.587  0.00  0.00    -0.158 NA
BRANCH   4   5
ATOM      5  C   UNL d   1      32.610  17.966 -23.748  0.00  0.00     0.094 A 
ATOM      6  C   UNL d   1      31.814  17.745 -23.802  0.00  0.00     0.021 A 
ATOM      7  C   UNL d   1      31.617  16.966 -23.962  0.00  0.00     0.020 A 
ATOM      8  C   UNL d   1      32.212  16.397 -24.071  0.00  0.00     0.002 A 
ATOM      9  C   UNL d   1      32.997  16.613 -24.018  0.00  0.00     0.002 A 
ATOM     10  C   UNL d   1      33.204  17.397 -23.857  0.00  0.00     0.020 A 
BRANCH   7  11
ATOM     11  C   UNL d   1      30.822  16.745 -24.016  0.00  0.00     0.088 A 
ATOM     12  N   UNL d   1      29.953  15.912 -23.245  0.00  0.00    -0.238 NA
ATOM     13  C   UNL d   1      29.324  16.082 -23.771  0.00  0.00     0.111 A 
ATOM     14  C   UNL d   1      28.580  15.750 -23.645  0.00  0.00     0.028 C 
ATOM     15  S   UNL d   1      29.440  16.583 -24.419  0.00  0.00    -0.066 SA
ATOM     16  C   UNL d   1      30.196  16.914 -24.539  0.00  0.00     0.056 A 
ENDBRANCH   7  11
ENDBRANCH   4   5
ENDBRANCH   1   4
BRANCH   1  17
ATOM     17  C   UNL d   1      33.035  19.765 -22.607  0.00  0.00     0.105 A 
ATOM     18  C   UNL d   1      32.838  19.980 -21.835  0.00  0.00     0.013 A 
ATOM     19  C   UNL d   1      32.845  20.785 -21.620  0.00  0.00     0.001 A 
ATOM     20  C   UNL d   1      32.647  20.995 -20.844  0.00  0.00     0.000 A 
ATOM     21  C   UNL d   1      33.046  21.359 -22.173  0.00  0.00     0.000 A 
ATOM     22  C   UNL d   1      32.654  21.792 -20.633  0.00  0.00     0.000 A 
ATOM     23  C   UNL d   1      32.855  22.371 -21.186  0.00  0.00     0.000 A 
ATOM     24  C   UNL d   1      33.050  22.156 -21.954  0.00  0.00     0.000 A 
ATOM     25  C   UNL d   1      33.240  21.136 -22.941  0.00  0.00     0.001 A 
ATOM     26  C   UNL d   1      33.236  20.343 -23.161  0.00  0.00     0.013 A 
ENDBRANCH   1  17
TORSDOF 4
ENDMDL
MODEL 2
REMARK VINA RESULT:      -3.4      1.394      5.226
REMARK  4 active torsions:
REMARK  status: ('A' for Active; 'I' for Inactive)
REMARK    1  A    between atoms: N_4  and  S_1 
REMARK    2  A    between atoms: C_5  and  S_1 
REMARK    3  A    between atoms: C_3  and  C_9 
REMARK    4  A    between atoms: C_14  and  N_4 
ROOT
ATOM      1  S   UNL d   1      30.836  17.426 -24.407  0.00  0.00     0.285 S 
ATOM      2  O   UNL d   1      30.777  17.988 -25.005  0.00  0.00    -0.198 OA
ATOM      3  O   UNL d   1      31.088  16.943 -23.786  0.00  0.00    -0.198 OA
ENDROOT
BRANCH   1   4
ATOM      4  N   UNL d   1      31.525  17.353 -23.965  0.00  0.00    -0.158 NA
BRANCH   4   5
ATOM      5  C   UNL d   1      32.077  17.969 -23.959  0.00  0.00     0.094 A 
ATOM      6  C   UNL d   1      32.163  18.445 -23.288  0.00  0.00     0.021 A 
ATOM      7  C   UNL d   1      32.712  19.054 -23.289  0.00  0.00     0.020 A 
ATOM      8  C   UNL d   1      33.181  19.196 -23.958  0.00  0.00     0.002 A 
ATOM      9  C   UNL d   1      33.096  18.728 -24.621  0.00  0.00     0.002 A 
ATOM     10  C   UNL d   1      32.546  18.111 -24.629  0.00  0.00     0.020 A 
BRANCH   7  11
ATOM     11  C   UNL d   1      32.798  19.531 -22.618  0.00  0.00     0.088 A 
ATOM     12  N   UNL d   1      32.245  20.777 -22.189  0.00  0.00    -0.238 NA
ATOM     13  C   UNL d   1      32.691  20.730 -21.480  0.00  0.00     0.111 A 
ATOM     14  C   UNL d   1      32.634  21.329 -20.918  0.00  0.00     0.028 C 
ATOM     15  S   UNL d   1      33.190  20.086 -21.338  0.00  0.00    -0.066 SA
ATOM     16  C   UNL d   1      33.241  19.485 -21.913  0.00  0.00     0.056 A 
ENDBRANCH   7  11
ENDBRANCH   4   5
ENDBRANCH   1   4
BRANCH   1  17
ATOM     17  C   UNL d   1      30.193  16.932 -24.252  0.00  0.00     0.105 A 
ATOM     18  C   UNL d   1      29.474  17.260 -24.013  0.00  0.00     0.013 A 
ATOM     19  C   UNL d   1      28.827  16.759 -23.858  0.00  0.00     0.001 A 
ATOM     20  C   UNL d   1      28.108  17.092 -23.617  0.00  0.00     0.000 A 
ATOM     21  C   UNL d   1      28.904  15.944 -23.944  0.00  0.00     0.000 A 
ATOM     22  C   UNL d   1      27.469  16.595 -23.464  0.00  0.00     0.000 A 
ATOM     23  C   UNL d   1      27.544  15.777 -23.550  0.00  0.00     0.000 A 
ATOM     24  C   UNL d   1      28.258  15.453 -23.788  0.00  0.00     0.000 A 
ATOM     25  C   UNL d   1      29.624  15.626 -24.183  0.00  0.00     0.001 A 
ATOM     26  C   UNL d   1      30.267  16.114 -24.338  0.00  0.00     0.013 A 
ENDBRANCH   1  17
TORSDOF 4
ENDMDL
MODEL 3
REMARK VINA RESULT:      -2.7      1.301      5.082
REMARK  4 active torsions:
REMARK  status: ('A' for Active; 'I' for Inactive)
REMARK    1  A    between atoms: N_4  and  S_1 
REMARK    2  A    between atoms: C_5  and  S_1 
REMARK    3  A    between atoms: C_3  and  C_9 
REMARK    4  A    between atoms: C_14  and  N_4 
ROOT
ATOM      1  S   UNL d   1      32.313  18.161 -24.291  0.00  0.00     0.285 S 
ATOM      2  O   UNL d   1      32.282  18.489 -25.045  0.00  0.00    -0.198 OA
ATOM      3  O   UNL d   1      32.493  17.978 -23.506  0.00  0.00    -0.198 OA
ENDROOT
BRANCH   1   4
ATOM      4  N   UNL d   1      32.835  18.454 -23.727  0.00  0.00    -0.158 NA
BRANCH   4   5
ATOM      5  C   UNL d   1      32.946  19.270 -23.654  0.00  0.00     0.094 A 
ATOM      6  C   UNL d   1      32.872  19.636 -22.916  0.00  0.00     0.021 A 
ATOM      7  C   UNL d   1      32.983  20.446 -22.850  0.00  0.00     0.020 A 
ATOM      8  C   UNL d   1      33.168  20.900 -23.520  0.00  0.00     0.002 A 
ATOM      9  C   UNL d   1      33.241  20.540 -24.248  0.00  0.00     0.002 A 
ATOM     10  C   UNL d   1      33.131  19.724 -24.324  0.00  0.00     0.020 A 
BRANCH   7  11
ATOM     11  C   UNL d   1      32.910  20.813 -22.112  0.00  0.00     0.088 A 
ATOM     12  N   UNL d   1      32.167  21.925 -21.610  0.00  0.00    -0.238 NA
ATOM     13  C   UNL d   1      32.495  21.800 -20.849  0.00  0.00     0.111 A 
ATOM     14  C   UNL d   1      32.285  22.294 -20.224  0.00  0.00     0.028 C 
ATOM     15  S   UNL d   1      33.029  21.183 -20.717  0.00  0.00    -0.066 SA
ATOM     16  C   UNL d   1      33.235  20.689 -21.356  0.00  0.00     0.056 A 
ENDBRANCH   7  11
ENDBRANCH   4   5
ENDBRANCH   1   4
BRANCH   1  17
ATOM     17  C   UNL d   1      31.814  17.531 -24.103  0.00  0.00     0.105 A 
ATOM     18  C   UNL d   1      30.997  17.621 -24.179  0.00  0.00     0.013 A 
ATOM     19  C   UNL d   1      30.495  16.984 -23.989  0.00  0.00     0.001 A 
ATOM     20  C   UNL d   1      29.676  17.080 -24.066  0.00  0.00     0.000 A 
ATOM     21  C   UNL d   1      30.812  16.271 -23.728  0.00  0.00     0.000 A 
ATOM     22  C   UNL d   1      29.181  16.448 -23.878  0.00  0.00     0.000 A 
ATOM     23  C   UNL d   1      29.497  15.732 -23.616  0.00  0.00     0.000 A 
ATOM     24  C   UNL d   1      30.309  15.643 -23.541  0.00  0.00     0.000 A 
ATOM     25  C   UNL d   1      31.627  16.189 -23.656  0.00  0.00     0.001 A 
ATOM     26  C   UNL d   1      32.129  16.815 -23.842  0.00  0.00     0.013 A 
ENDBRANCH   1  17
TORSDOF 4
ENDMDL
MODEL 4
REMARK VINA RESULT:      -2.2      1.655      2.689
REMARK  4 active torsions:
REMARK  status: ('A' for Active; 'I' for Inactive)
REMARK    1  A    between atoms: N_4  and  S_1 
REMARK    2  A    between atoms: C_5  and  S_1 
REMARK    3  A    between atoms: C_3  and  C_9 
REMARK    4  A    between atoms: C_14  and  N_4 
ROOT
ATOM      1  S   UNL d   1      32.441  20.940 -21.718  0.00  0.00     0.285 S 
ATOM      2  O   UNL d   1      31.718  20.564 -21.832  0.00  0.00    -0.198 OA
ATOM      3  O   UNL d   1      33.238  21.158 -21.723  0.00  0.00    -0.198 OA
ENDROOT
BRANCH   1   4
ATOM      4  N   UNL d   1      33.130  20.635 -22.049  0.00  0.00    -0.158 NA
BRANCH   4   5
ATOM      5  C   UNL d   1      33.094  20.222 -22.764  0.00  0.00     0.094 A 
ATOM      6  C   UNL d   1      32.927  19.412 -22.770  0.00  0.00     0.021 A 
ATOM      7  C   UNL d   1      32.893  19.008 -23.483  0.00  0.00     0.020 A 
ATOM      8  C   UNL d   1      33.024  19.408 -24.198  0.00  0.00     0.002 A 
ATOM      9  C   UNL d   1      33.189  20.207 -24.194  0.00  0.00     0.002 A 
ATOM     10  C   UNL d   1      33.226  20.622 -23.480  0.00  0.00     0.020 A 
BRANCH   7  11
ATOM     11  C   UNL d   1      32.726  18.198 -23.489  0.00  0.00     0.088 A 
ATOM     12  N   UNL d   1      31.844  17.357 -24.235  0.00  0.00    -0.238 NA
ATOM     13  C   UNL d   1      32.119  16.690 -23.809  0.00  0.00     0.111 A 
ATOM     14  C   UNL d   1      31.814  15.943 -23.972  0.00  0.00     0.028 C 
ATOM     15  S   UNL d   1      32.697  16.774 -23.223  0.00  0.00    -0.066 SA
ATOM     16  C   UNL d   1      32.999  17.535 -23.066  0.00  0.00     0.056 A 
ENDBRANCH   7  11
ENDBRANCH   4   5
ENDBRANCH   1   4
BRANCH   1  17
ATOM     17  C   UNL d   1      32.472  21.631 -21.267  0.00  0.00     0.105 A 
ATOM     18  C   UNL d   1      32.678  21.589 -20.470  0.00  0.00     0.013 A 
ATOM     19  C   UNL d   1      32.708  22.288 -20.017  0.00  0.00     0.001 A 
ATOM     20  C   UNL d   1      32.916  22.240 -19.217  0.00  0.00     0.000 A 
ATOM     21  C   UNL d   1      32.532  23.013 -20.363  0.00  0.00     0.000 A 
ATOM     22  C   UNL d   1      32.945  22.933 -18.770  0.00  0.00     0.000 A 
ATOM     23  C   UNL d   1      32.769  23.662 -19.115  0.00  0.00     0.000 A 
ATOM     24  C   UNL d   1      32.564  23.702 -19.908  0.00  0.00     0.000 A 
ATOM     25  C   UNL d   1      32.327  23.046 -21.159  0.00  0.00     0.001 A 
ATOM     26  C   UNL d   1      32.296  22.360 -21.612  0.00  0.00     0.013 A 
ENDBRANCH   1  17
TORSDOF 4
ENDMDL
MODEL 5
REMARK VINA RESULT:      -1.5      1.307      1.811
REMARK  4 active torsions:
REMARK  status: ('A' for Active; 'I' for Inactive)
REMARK    1  A    between atoms: N_4  and  S_1 
REMARK    2  A    between atoms: C_5  and  S_1 
REMARK    3  A    between atoms: C_3  and  C_9 
REMARK    4  A    between atoms: C_14  and  N_4 
ROOT
ATOM      1  S   UNL d   1      32.428  18.078 -24.573  0.00  0.00     0.285 S 
ATOM      2  O   UNL d   1      33.025  17.572 -24.828  0.00  0.00    -0.198 OA
ATOM      3  O   UNL d   1      31.705  18.434 -24.394  0.00  0.00    -0.198 OA
ENDROOT
BRANCH   1   4
ATOM      4  N   UNL d   1      31.637  17.878 -24.674  0.00  0.00    -0.158 NA
BRANCH   4   5
ATOM      5  C   UNL d   1      31.398  17.092 -24.590  0.00  0.00     0.094 A 
ATOM      6  C   UNL d   1      30.671  16.912 -24.237  0.00  0.00     0.021 A 
ATOM      7  C   UNL d   1      30.439  16.130 -24.156  0.00  0.00     0.020 A 
ATOM      8  C   UNL d   1      30.929  15.517 -24.427  0.00  0.00     0.002 A 
ATOM      9  C   UNL d   1      31.645  15.693 -24.775  0.00  0.00     0.002 A 
ATOM     10  C   UNL d   1      31.887  16.479 -24.861  0.00  0.00     0.020 A 
BRANCH   7  11
ATOM     11  C   UNL d   1      29.713  15.951 -23.803  0.00  0.00     0.088 A 
ATOM     12  N   UNL d   1      28.348  16.256 -24.097  0.00  0.00    -0.238 NA
ATOM     13  C   UNL d   1      28.106  15.822 -23.422  0.00  0.00     0.111 A 
ATOM     14  C   UNL d   1      27.306  15.762 -23.237  0.00  0.00     0.028 C 
ATOM     15  S   UNL d   1      28.664  15.453 -22.937  0.00  0.00    -0.066 SA
ATOM     16  C   UNL d   1      29.472  15.520 -23.132  0.00  0.00     0.056 A 
ENDBRANCH   7  11
ENDBRANCH   4   5
ENDBRANCH   1   4
BRANCH   1  17
ATOM     17  C   UNL d   1      32.631  18.793 -24.212  0.00  0.00     0.105 A 
ATOM     18  C   UNL d   1      32.619  18.852 -23.390  0.00  0.00     0.013 A 
ATOM     19  C   UNL d   1      32.825  19.575 -23.029  0.00  0.00     0.001 A 
ATOM     20  C   UNL d   1      32.811  19.630 -22.203  0.00  0.00     0.000 A 
ATOM     21  C   UNL d   1      33.037  20.222 -23.490  0.00  0.00     0.000 A 
ATOM     22  C   UNL d   1      33.015  20.346 -21.847  0.00  0.00     0.000 A 
ATOM     23  C   UNL d   1      33.228  20.997 -22.308  0.00  0.00     0.000 A 
ATOM     24  C   UNL d   1      33.240  20.936 -23.126  0.00  0.00     0.000 A 
ATOM     25  C   UNL d   1      33.046  20.154 -24.309  0.00  0.00     0.001 A 
ATOM     26  C   UNL d   1      32.845  19.443 -24.673  0.00  0.00     0.013 A 
ENDBRANCH   1  17
TORSDOF 4
ENDMDL
MODEL 6
REMARK VINA RESULT:      -1.4      2.703      6.089
REMARK  4 active torsions:
REMARK  status: ('A' for Active; 'I' for Inactive)
REMARK    1  A    between atoms: N_4  and  S_1 
REMARK    2  A    between atoms: C_5  and  S_1 
REMARK    3  A    between atoms: C_3  and  C_9 
REMARK    4  A    between atoms: C_14  and  N_4 
ROOT
ATOM      1  S   UNL d   1      32.667  20.923 -21.261  0.00  0.00     0.285 S 
ATOM      2  O   UNL d   1      33.053  20.729 -20.561  0.00  0.00    -0.198 OA
ATOM      3  O   UNL d   1      32.207  21.278 -21.848  0.00  0.00    -0.198 OA
ENDROOT
BRANCH   1   4
ATOM      4  N   UNL d   1      32.182  21.586 -21.304  0.00  0.00    -0.158 NA
BRANCH   4   5
ATOM      5  C   UNL d   1      32.418  22.291 -20.941  0.00  0.00     0.094 A 
ATOM      6  C   UNL d   1      32.367  22.375 -20.120  0.00  0.00     0.021 A 
ATOM      7  C   UNL d   1      32.602  23.076 -19.766  0.00  0.00     0.020 A 
ATOM      8  C   UNL d   1      32.891  23.702 -20.227  0.00  0.00     0.002 A 
ATOM      9  C   UNL d   1      32.942  23.621 -21.037  0.00  0.00     0.002 A 
ATOM     10  C   UNL d   1      32.707  22.917 -21.403  0.00  0.00     0.020 A 
BRANCH   7  11
ATOM     11  C   UNL d   1      32.551  23.159 -18.944  0.00  0.00     0.088 A 
ATOM     12  N   UNL d   1      33.241  22.591 -17.830  0.00  0.00    -0.238 NA
ATOM     13  C   UNL d   1      32.766  23.041 -17.306  0.00  0.00     0.111 A 
ATOM     14  C   UNL d   1      32.876  22.979 -16.492  0.00  0.00     0.028 C 
ATOM     15  S   UNL d   1      32.183  23.551 -17.599  0.00  0.00    -0.066 SA
ATOM     16  C   UNL d   1      32.078  23.607 -18.424  0.00  0.00     0.056 A 
ENDBRANCH   7  11
ENDBRANCH   4   5
ENDBRANCH   1   4
BRANCH   1  17
ATOM     17  C   UNL d   1      32.770  20.444 -21.926  0.00  0.00     0.105 A 
ATOM     18  C   UNL d   1      32.539  19.652 -21.897  0.00  0.00     0.013 A 
ATOM     19  C   UNL d   1      32.644  19.171 -22.569  0.00  0.00     0.001 A 
ATOM     20  C   UNL d   1      32.411  18.377 -22.536  0.00  0.00     0.000 A 
ATOM     21  C   UNL d   1      32.975  19.484 -23.254  0.00  0.00     0.000 A 
ATOM     22  C   UNL d   1      32.515  17.903 -23.202  0.00  0.00     0.000 A 
ATOM     23  C   UNL d   1      32.848  18.214 -23.891  0.00  0.00     0.000 A 
ATOM     24  C   UNL d   1      33.077  19.001 -23.918  0.00  0.00     0.000 A 
ATOM     25  C   UNL d   1      33.203  20.274 -23.274  0.00  0.00     0.001 A 
ATOM     26  C   UNL d   1      33.102  20.755 -22.614  0.00  0.00     0.013 A 
ENDBRANCH   1  17
TORSDOF 4
ENDMDL
MODEL 7
REMARK VINA RESULT:      -1.3      1.654      5.408
REMARK  4 active torsions:
REMARK  status: ('A' for Active; 'I' for Inactive)
REMARK    1  A    between atoms: N_4  and  S_1 
REMARK    2  A    between atoms: C_5  and  S_1 
REMARK    3  A    between atoms: C_3  and  C_9 
REMARK    4  A    between atoms: C_14  and  N_4 
ROOT
ATOM      1  S   UNL d   1      32.481  19.199 -23.456  0.00  0.00     0.285 S 
ATOM      2  O   UNL d   1      31.780  19.611 -23.583  0.00  0.00    -0.198 OA
ATOM      3  O   UNL d   1      33.241  18.965 -23.233  0.00  0.00    -0.198 OA
ENDROOT
BRANCH   1   4
ATOM      4  N   UNL d   1      33.108  19.551 -23.058  0.00  0.00    -0.158 NA
BRANCH   4   5
ATOM      5  C   UNL d   1      33.138  20.374 -22.984  0.00  0.00     0.094 A 
ATOM      6  C   UNL d   1      33.094  20.727 -22.237  0.00  0.00     0.021 A 
ATOM      7  C   UNL d   1      33.123  21.544 -22.169  0.00  0.00     0.020 A 
ATOM      8  C   UNL d   1      33.197  22.018 -22.846  0.00  0.00     0.002 A 
ATOM      9  C   UNL d   1      33.241  21.671 -23.583  0.00  0.00     0.002 A 
ATOM     10  C   UNL d   1      33.212  20.848 -23.661  0.00  0.00     0.020 A 
BRANCH   7  11
ATOM     11  C   UNL d   1      33.079  21.896 -21.422  0.00  0.00     0.088 A 
ATOM     12  N   UNL d   1      32.834  23.222 -20.948  0.00  0.00    -0.238 NA
ATOM     13  C   UNL d   1      32.914  22.954 -20.158  0.00  0.00     0.111 A 
ATOM     14  C   UNL d   1      32.831  23.483 -19.533  0.00  0.00     0.028 C 
ATOM     15  S   UNL d   1      33.076  22.159 -19.998  0.00  0.00    -0.066 SA
ATOM     16  C   UNL d   1      33.158  21.630 -20.637  0.00  0.00     0.056 A 
ENDBRANCH   7  11
ENDBRANCH   4   5
ENDBRANCH   1   4
BRANCH   1  17
ATOM     17  C   UNL d   1      32.550  18.424 -23.732  0.00  0.00     0.105 A 
ATOM     18  C   UNL d   1      32.084  17.829 -23.399  0.00  0.00     0.013 A 
ATOM     19  C   UNL d   1      32.157  17.048 -23.680  0.00  0.00     0.001 A 
ATOM     20  C   UNL d   1      31.687  16.455 -23.344  0.00  0.00     0.000 A 
ATOM     21  C   UNL d   1      32.687  16.872 -24.283  0.00  0.00     0.000 A 
ATOM     22  C   UNL d   1      31.760  15.682 -23.623  0.00  0.00     0.000 A 
ATOM     23  C   UNL d   1      32.292  15.503 -24.228  0.00  0.00     0.000 A 
ATOM     24  C   UNL d   1      32.754  16.095 -24.557  0.00  0.00     0.000 A 
ATOM     25  C   UNL d   1      33.148  17.471 -24.609  0.00  0.00     0.001 A 
ATOM     26  C   UNL d   1      33.082  18.245 -24.337  0.00  0.00     0.013 A 
ENDBRANCH   1  17
TORSDOF 4
ENDMDL
