MODEL 1
REMARK VINA RESULT:       4.4      0.000      0.000
REMARK  4 active torsions:
REMARK  status: ('A' for Active; 'I' for Inactive)
REMARK    1  A    between atoms: C_6  and  N_1 
REMARK    2  A    between atoms: C_8  and  C_2 
REMARK    3  A    between atoms: C_16  and  C_5 
REMARK    4  A    between atoms: C_7  and  C_8 
ROOT
ATOM      1  N   UNL d   1      59.341  -0.732  29.708  0.00  0.00    -0.251 N 
ATOM      2  C   UNL d   1      58.103  -0.685  30.195  0.00  0.00     0.101 A 
ATOM      3  C   UNL d   1      59.235   0.002  30.068  0.00  0.00     0.305 A 
ATOM      4  C   UNL d   1      58.464   0.032  30.371  0.00  0.00     0.256 A 
ATOM      5  C   UNL d   1      58.639  -1.153  29.790  0.00  0.00     0.075 A 
ATOM      6  O   UNL d   1      59.799   0.608  30.119  0.00  0.00    -0.263 OA
ATOM      7  O   UNL d   1      58.136   0.672  30.772  0.00  0.00    -0.281 OA
ENDROOT
BRANCH   2   8
ATOM      8  C   UNL d   1      57.326  -0.889  30.398  0.00  0.00     0.223 C 
ATOM      9  O   UNL d   1      56.845  -1.272  29.848  0.00  0.00    -0.284 OA
BRANCH   8  10
ATOM     10  C   UNL d   1      57.033  -0.714  31.142  0.00  0.00     0.139 A 
ATOM     11  O   UNL d   1      56.760   0.021  31.397  0.00  0.00    -0.304 OA
ATOM     12  C   UNL d   1      56.515  -0.049  32.182  0.00  0.00     0.100 A 
ATOM     13  C   UNL d   1      56.201   0.496  32.706  0.00  0.00     0.025 A 
ATOM     14  C   UNL d   1      56.638  -0.826  32.407  0.00  0.00     0.025 A 
ATOM     15  C   UNL d   1      56.007   0.260  33.468  0.00  0.00     0.002 A 
ATOM     16  C   UNL d   1      56.128  -0.525  33.703  0.00  0.00     0.000 A 
ATOM     17  C   UNL d   1      56.444  -1.062  33.169  0.00  0.00     0.002 A 
ATOM     18  C   UNL d   1      56.956  -1.240  31.772  0.00  0.00     0.030 A 
ENDBRANCH   8  10
ENDBRANCH   2   8
BRANCH   5  19
ATOM     19  C   UNL d   1      58.494  -1.924  29.509  0.00  0.00     0.017 A 
ATOM     20  C   UNL d   1      58.683  -2.579  29.987  0.00  0.00     0.002 A 
ATOM     21  C   UNL d   1      58.542  -3.349  29.715  0.00  0.00     0.000 A 
ATOM     22  C   UNL d   1      58.208  -3.472  28.958  0.00  0.00     0.000 A 
ATOM     23  C   UNL d   1      58.021  -2.808  28.482  0.00  0.00     0.000 A 
ATOM     24  C   UNL d   1      58.165  -2.035  28.760  0.00  0.00     0.002 A 
ENDBRANCH   5  19
BRANCH   1  25
ATOM     25  C   UNL d   1      60.024  -0.992  29.338  0.00  0.00     0.182 A 
ATOM     26  N   UNL d   1      60.351  -0.689  28.640  0.00  0.00    -0.220 NA
ATOM     27  C   UNL d   1      61.033  -1.114  28.471  0.00  0.00     0.108 A 
ATOM     28  C   UNL d   1      61.133  -1.681  29.061  0.00  0.00     0.059 A 
ATOM     29  S   UNL d   1      60.510  -1.606  29.596  0.00  0.00    -0.048 SA
ENDBRANCH   1  25
TORSDOF 4
ENDMDL
MODEL 2
REMARK VINA RESULT:       7.0      1.761      4.459
REMARK  4 active torsions:
REMARK  status: ('A' for Active; 'I' for Inactive)
REMARK    1  A    between atoms: C_6  and  N_1 
REMARK    2  A    between atoms: C_8  and  C_2 
REMARK    3  A    between atoms: C_16  and  C_5 
REMARK    4  A    between atoms: C_7  and  C_8 
ROOT
ATOM      1  N   UNL d   1      58.176  -0.671  30.797  0.00  0.00    -0.251 N 
ATOM      2  C   UNL d   1      58.672  -1.208  29.683  0.00  0.00     0.101 A 
ATOM      3  C   UNL d   1      57.620  -1.202  30.499  0.00  0.00     0.305 A 
ATOM      4  C   UNL d   1      57.928  -1.536  29.805  0.00  0.00     0.256 A 
ATOM      5  C   UNL d   1      58.824  -0.679  30.290  0.00  0.00     0.075 A 
ATOM      6  O   UNL d   1      56.880  -1.373  30.831  0.00  0.00    -0.263 OA
ATOM      7  O   UNL d   1      57.545  -2.094  29.336  0.00  0.00    -0.281 OA
ENDROOT
BRANCH   2   8
ATOM      8  C   UNL d   1      59.174  -1.389  29.051  0.00  0.00     0.223 C 
ATOM      9  O   UNL d   1      59.318  -0.825  28.466  0.00  0.00    -0.284 OA
BRANCH   8  10
ATOM     10  C   UNL d   1      59.530  -2.125  29.001  0.00  0.00     0.139 A 
ATOM     11  O   UNL d   1      60.299  -2.310  29.234  0.00  0.00    -0.304 OA
ATOM     12  C   UNL d   1      60.431  -3.111  29.088  0.00  0.00     0.100 A 
ATOM     13  C   UNL d   1      61.085  -3.588  29.209  0.00  0.00     0.025 A 
ATOM     14  C   UNL d   1      59.743  -3.416  28.766  0.00  0.00     0.025 A 
ATOM     15  C   UNL d   1      61.052  -4.382  29.005  0.00  0.00     0.002 A 
ATOM     16  C   UNL d   1      60.358  -4.698  28.678  0.00  0.00     0.000 A 
ATOM     17  C   UNL d   1      59.708  -4.210  28.562  0.00  0.00     0.002 A 
ATOM     18  C   UNL d   1      59.186  -2.815  28.711  0.00  0.00     0.030 A 
ENDBRANCH   8  10
ENDBRANCH   2   8
BRANCH   5  19
ATOM     19  C   UNL d   1      59.519  -0.227  30.376  0.00  0.00     0.017 A 
ATOM     20  C   UNL d   1      59.795   0.229  29.736  0.00  0.00     0.002 A 
ATOM     21  C   UNL d   1      60.485   0.682  29.814  0.00  0.00     0.000 A 
ATOM     22  C   UNL d   1      60.908   0.682  30.536  0.00  0.00     0.000 A 
ATOM     23  C   UNL d   1      60.624   0.220  31.174  0.00  0.00     0.000 A 
ATOM     24  C   UNL d   1      59.929  -0.233  31.092  0.00  0.00     0.002 A 
ENDBRANCH   5  19
BRANCH   1  25
ATOM     25  C   UNL d   1      58.095  -0.221  31.475  0.00  0.00     0.182 A 
ATOM     26  N   UNL d   1      58.607   0.378  31.733  0.00  0.00    -0.220 NA
ATOM     27  C   UNL d   1      58.313   0.681  32.437  0.00  0.00     0.108 A 
ATOM     28  C   UNL d   1      57.620   0.274  32.621  0.00  0.00     0.059 A 
ATOM     29  S   UNL d   1      57.485  -0.283  32.028  0.00  0.00    -0.048 SA
ENDBRANCH   1  25
TORSDOF 4
ENDMDL
