MODEL 1
REMARK VINA RESULT:      -2.6      0.000      0.000
REMARK  5 active torsions:
REMARK  status: ('A' for Active; 'I' for Inactive)
REMARK    1  A    between atoms: N_8  and  C_1 
REMARK    2  A    between atoms: C_11  and  N_4 
REMARK    3  A    between atoms: N_6  and  C_7 
REMARK       I    between atoms: C_9  and  N_6 
REMARK    4  A    between atoms: C_7  and  N_8 
REMARK    5  A    between atoms: C_14  and  C_9 
ROOT
ATOM      1  C   UNL d   1      31.481  17.426 -23.948  0.00  0.00     0.209 A 
ATOM      2  C   UNL d   1      30.121  17.425 -23.980  0.00  0.00     0.310 A 
ATOM      3  N   UNL d   1      30.806  16.259 -24.118  0.00  0.00    -0.237 N 
ATOM      4  N   UNL d   1      30.127  16.647 -24.083  0.00  0.00    -0.208 N 
ATOM      5  C   UNL d   1      31.485  16.651 -24.050  0.00  0.00     0.116 A 
ATOM      6  O   UNL d   1      29.512  18.034 -23.915  0.00  0.00    -0.262 OA
ATOM      7  C   UNL d   1      30.809  15.484 -24.220  0.00  0.00     0.120 C 
ATOM      8  C   UNL d   1      32.166  16.258 -24.085  0.00  0.00     0.024 C 
ENDROOT
BRANCH   1   9
ATOM      9  N   UNL d   1      32.092  18.036 -23.853  0.00  0.00    -0.366 NA
BRANCH   9  10
ATOM     10  C   UNL d   1      32.674  18.619 -23.762  0.00  0.00     0.275 C 
ATOM     11  S   UNL d   1      33.194  18.791 -24.387  0.00  0.00    -0.023 SA
BRANCH  10  12
ATOM     12  N   UNL d   1      32.737  19.031 -23.044  0.00  0.00    -0.168 NA
ATOM     13  C   UNL d   1      32.981  19.823 -23.044  0.00  0.00     0.282 C 
ATOM     14  O   UNL d   1      33.162  20.204 -23.760  0.00  0.00    -0.265 OA
BRANCH  13  15
ATOM     15  C   UNL d   1      33.044  20.235 -22.326  0.00  0.00     0.058 A 
ATOM     16  C   UNL d   1      32.974  21.058 -22.314  0.00  0.00     0.005 A 
ATOM     17  C   UNL d   1      33.037  21.470 -21.592  0.00  0.00     0.000 A 
ATOM     18  C   UNL d   1      33.172  21.045 -20.879  0.00  0.00     0.000 A 
ATOM     19  C   UNL d   1      33.240  20.217 -20.901  0.00  0.00     0.000 A 
ATOM     20  C   UNL d   1      33.177  19.814 -21.617  0.00  0.00     0.005 A 
ENDBRANCH  13  15
ENDBRANCH  10  12
ENDBRANCH   9  10
ENDBRANCH   1   9
BRANCH   4  21
ATOM     21  C   UNL d   1      29.450  16.259 -24.150  0.00  0.00     0.085 A 
ATOM     22  C   UNL d   1      29.095  16.213 -24.845  0.00  0.00     0.019 A 
ATOM     23  C   UNL d   1      28.418  15.827 -24.920  0.00  0.00     0.002 A 
ATOM     24  C   UNL d   1      28.092  15.479 -24.281  0.00  0.00     0.000 A 
ATOM     25  C   UNL d   1      28.455  15.530 -23.589  0.00  0.00     0.002 A 
ATOM     26  C   UNL d   1      29.130  15.917 -23.522  0.00  0.00     0.019 A 
ENDBRANCH   4  21
TORSDOF 5
ENDMDL
MODEL 2
REMARK VINA RESULT:      -2.2      1.598      5.888
REMARK  5 active torsions:
REMARK  status: ('A' for Active; 'I' for Inactive)
REMARK    1  A    between atoms: N_8  and  C_1 
REMARK    2  A    between atoms: C_11  and  N_4 
REMARK    3  A    between atoms: N_6  and  C_7 
REMARK       I    between atoms: C_9  and  N_6 
REMARK    4  A    between atoms: C_7  and  N_8 
REMARK    5  A    between atoms: C_14  and  C_9 
ROOT
ATOM      1  C   UNL d   1      32.940  20.393 -22.227  0.00  0.00     0.209 A 
ATOM      2  C   UNL d   1      32.748  21.738 -22.148  0.00  0.00     0.310 A 
ATOM      3  N   UNL d   1      33.048  21.027 -21.029  0.00  0.00    -0.237 N 
ATOM      4  N   UNL d   1      32.884  21.710 -21.376  0.00  0.00    -0.208 N 
ATOM      5  C   UNL d   1      33.076  20.368 -21.458  0.00  0.00     0.116 A 
ATOM      6  O   UNL d   1      32.555  22.358 -22.718  0.00  0.00    -0.262 OA
ATOM      7  C   UNL d   1      33.184  21.001 -20.260  0.00  0.00     0.120 C 
ATOM      8  C   UNL d   1      33.241  19.683 -21.106  0.00  0.00     0.024 C 
ENDROOT
BRANCH   1   9
ATOM      9  N   UNL d   1      32.920  19.808 -22.868  0.00  0.00    -0.366 NA
BRANCH   9  10
ATOM     10  C   UNL d   1      32.900  19.249 -23.480  0.00  0.00     0.275 C 
ATOM     11  S   UNL d   1      33.226  19.432 -24.222  0.00  0.00    -0.023 SA
BRANCH  10  12
ATOM     12  N   UNL d   1      32.555  18.506 -23.349  0.00  0.00    -0.168 NA
ATOM     13  C   UNL d   1      32.135  18.134 -23.959  0.00  0.00     0.282 C 
ATOM     14  O   UNL d   1      32.060  18.503 -24.700  0.00  0.00    -0.265 OA
BRANCH  13  15
ATOM     15  C   UNL d   1      31.790  17.391 -23.828  0.00  0.00     0.058 A 
ATOM     16  C   UNL d   1      31.004  17.255 -24.044  0.00  0.00     0.005 A 
ATOM     17  C   UNL d   1      30.659  16.509 -23.912  0.00  0.00     0.000 A 
ATOM     18  C   UNL d   1      31.113  15.896 -23.558  0.00  0.00     0.000 A 
ATOM     19  C   UNL d   1      31.903  16.040 -23.344  0.00  0.00     0.000 A 
ATOM     20  C   UNL d   1      32.240  16.781 -23.477  0.00  0.00     0.005 A 
ENDBRANCH  13  15
ENDBRANCH  10  12
ENDBRANCH   9  10
ENDBRANCH   1   9
BRANCH   4  21
ATOM     21  C   UNL d   1      32.856  22.367 -20.952  0.00  0.00     0.085 A 
ATOM     22  C   UNL d   1      33.221  23.010 -21.206  0.00  0.00     0.019 A 
ATOM     23  C   UNL d   1      33.197  23.671 -20.787  0.00  0.00     0.002 A 
ATOM     24  C   UNL d   1      32.798  23.685 -20.098  0.00  0.00     0.000 A 
ATOM     25  C   UNL d   1      32.434  23.036 -19.851  0.00  0.00     0.002 A 
ATOM     26  C   UNL d   1      32.462  22.381 -20.274  0.00  0.00     0.019 A 
ENDBRANCH   4  21
TORSDOF 5
ENDMDL
MODEL 3
REMARK VINA RESULT:      -0.9      2.839      6.367
REMARK  5 active torsions:
REMARK  status: ('A' for Active; 'I' for Inactive)
REMARK    1  A    between atoms: N_8  and  C_1 
REMARK    2  A    between atoms: C_11  and  N_4 
REMARK    3  A    between atoms: N_6  and  C_7 
REMARK       I    between atoms: C_9  and  N_6 
REMARK    4  A    between atoms: C_7  and  N_8 
REMARK    5  A    between atoms: C_14  and  C_9 
ROOT
ATOM      1  C   UNL d   1      32.829  21.825 -22.010  0.00  0.00     0.209 A 
ATOM      2  C   UNL d   1      32.916  21.808 -20.653  0.00  0.00     0.310 A 
ATOM      3  N   UNL d   1      32.543  22.946 -21.297  0.00  0.00    -0.237 N 
ATOM      4  N   UNL d   1      32.696  22.561 -20.631  0.00  0.00    -0.208 N 
ATOM      5  C   UNL d   1      32.610  22.575 -21.987  0.00  0.00     0.116 A 
ATOM      6  O   UNL d   1      33.127  21.210 -20.065  0.00  0.00    -0.262 OA
ATOM      7  C   UNL d   1      32.324  23.696 -21.273  0.00  0.00     0.120 C 
ATOM      8  C   UNL d   1      32.455  22.964 -22.653  0.00  0.00     0.024 C 
ENDROOT
BRANCH   1   9
ATOM      9  N   UNL d   1      32.962  21.242 -22.640  0.00  0.00    -0.366 NA
BRANCH   9  10
ATOM     10  C   UNL d   1      33.088  20.686 -23.242  0.00  0.00     0.275 C 
ATOM     11  S   UNL d   1      33.241  20.939 -24.019  0.00  0.00    -0.023 SA
BRANCH  10  12
ATOM     12  N   UNL d   1      33.063  19.876 -23.066  0.00  0.00    -0.168 NA
ATOM     13  C   UNL d   1      33.094  19.320 -23.680  0.00  0.00     0.282 C 
ATOM     14  O   UNL d   1      33.150  19.573 -24.470  0.00  0.00    -0.265 OA
BRANCH  13  15
ATOM     15  C   UNL d   1      33.068  18.509 -23.504  0.00  0.00     0.058 A 
ATOM     16  C   UNL d   1      33.240  18.245 -22.741  0.00  0.00     0.005 A 
ATOM     17  C   UNL d   1      33.213  17.431 -22.566  0.00  0.00     0.000 A 
ATOM     18  C   UNL d   1      33.011  16.881 -23.169  0.00  0.00     0.000 A 
ATOM     19  C   UNL d   1      32.840  17.155 -23.935  0.00  0.00     0.000 A 
ATOM     20  C   UNL d   1      32.867  17.962 -24.103  0.00  0.00     0.005 A 
ENDBRANCH  13  15
ENDBRANCH  10  12
ENDBRANCH   9  10
ENDBRANCH   1   9
BRANCH   4  21
ATOM     21  C   UNL d   1      32.630  22.927 -19.943  0.00  0.00     0.085 A 
ATOM     22  C   UNL d   1      33.241  23.316 -19.649  0.00  0.00     0.019 A 
ATOM     23  C   UNL d   1      33.183  23.686 -18.961  0.00  0.00     0.002 A 
ATOM     24  C   UNL d   1      32.495  23.662 -18.561  0.00  0.00     0.000 A 
ATOM     25  C   UNL d   1      31.887  23.269 -18.862  0.00  0.00     0.002 A 
ATOM     26  C   UNL d   1      31.953  22.904 -19.549  0.00  0.00     0.019 A 
ENDBRANCH   4  21
TORSDOF 5
ENDMDL
