MODEL 1
REMARK VINA RESULT:      16.9      0.000      0.000
REMARK  6 active torsions:
REMARK  status: ('A' for Active; 'I' for Inactive)
REMARK    1  A    between atoms: C_3  and  C_1 
REMARK    2  A    between atoms: C_2  and  C_4 
REMARK    3  A    between atoms: C_9  and  C_3 
REMARK    4  A    between atoms: C_4  and  C_10 
REMARK    5  A    between atoms: C_17  and  C_9 
REMARK    6  A    between atoms: C_10  and  C_17 
ROOT
ATOM      1  C   UNL d   1      14.622  12.523  -1.187  0.00  0.00     0.006 C 
ATOM      2  C   UNL d   1      15.027  11.780  -1.161  0.00  0.00     0.000 C 
ENDROOT
BRANCH   1   3
ATOM      3  C   UNL d   1      14.628  12.987  -0.506  0.00  0.00     0.043 C 
BRANCH   3   4
ATOM      4  C   UNL d   1      15.283  13.427  -0.287  0.00  0.00     0.202 C 
ATOM      5  O   UNL d   1      16.030  13.070  -0.156  0.00  0.00    -0.286 OA
BRANCH   4   6
ATOM      6  C   UNL d   1      15.223  14.245  -0.190  0.00  0.00     0.068 A 
ATOM      7  S   UNL d   1      15.884  14.742  -0.148  0.00  0.00    -0.083 SA
ATOM      8  C   UNL d   1      15.638  15.516  -0.050  0.00  0.00     0.035 A 
ATOM      9  C   UNL d   1      14.806  15.509  -0.030  0.00  0.00     0.008 A 
ATOM     10  C   UNL d   1      14.564  14.730  -0.116  0.00  0.00     0.010 A 
ENDBRANCH   4   6
ENDBRANCH   3   4
ENDBRANCH   1   3
BRANCH   1  11
ATOM     11  C   UNL d   1      14.235  12.779  -1.864  0.00  0.00     0.043 C 
BRANCH  11  12
ATOM     12  C   UNL d   1      13.622  12.299  -2.210  0.00  0.00     0.202 C 
ATOM     13  O   UNL d   1      13.198  11.780  -1.743  0.00  0.00    -0.286 OA
BRANCH  12  14
ATOM     14  C   UNL d   1      13.462  12.366  -3.031  0.00  0.00     0.068 A 
ATOM     15  S   UNL d   1      13.081  11.780  -3.514  0.00  0.00    -0.083 SA
ATOM     16  C   UNL d   1      13.037  12.074  -4.279  0.00  0.00     0.035 A 
ATOM     17  C   UNL d   1      13.382  12.831  -4.286  0.00  0.00     0.008 A 
ATOM     18  C   UNL d   1      13.636  13.004  -3.535  0.00  0.00     0.010 A 
ENDBRANCH  12  14
ENDBRANCH  11  12
ENDBRANCH   1  11
TORSDOF 6
ENDMDL
MODEL 2
REMARK VINA RESULT:      19.5      2.132      3.776
REMARK  6 active torsions:
REMARK  status: ('A' for Active; 'I' for Inactive)
REMARK    1  A    between atoms: C_3  and  C_1 
REMARK    2  A    between atoms: C_2  and  C_4 
REMARK    3  A    between atoms: C_9  and  C_3 
REMARK    4  A    between atoms: C_4  and  C_10 
REMARK    5  A    between atoms: C_17  and  C_9 
REMARK    6  A    between atoms: C_10  and  C_17 
ROOT
ATOM      1  C   UNL d   1      13.180  12.198  -3.434  0.00  0.00     0.006 C 
ATOM      2  C   UNL d   1      13.348  11.780  -4.151  0.00  0.00     0.000 C 
ENDROOT
BRANCH   1   3
ATOM      3  C   UNL d   1      12.946  12.985  -3.494  0.00  0.00     0.043 C 
BRANCH   3   4
ATOM      4  C   UNL d   1      12.978  13.393  -4.203  0.00  0.00     0.202 C 
ATOM      5  O   UNL d   1      12.806  13.020  -4.935  0.00  0.00    -0.286 OA
BRANCH   4   6
ATOM      6  C   UNL d   1      13.184  14.193  -4.216  0.00  0.00     0.068 A 
ATOM      7  S   UNL d   1      12.888  14.724  -4.779  0.00  0.00    -0.083 SA
ATOM      8  C   UNL d   1      13.197  15.469  -4.640  0.00  0.00     0.035 A 
ATOM      9  C   UNL d   1      13.697  15.407  -3.978  0.00  0.00     0.008 A 
ATOM     10  C   UNL d   1      13.682  14.627  -3.728  0.00  0.00     0.010 A 
ENDBRANCH   4   6
ENDBRANCH   3   4
ENDBRANCH   1   3
BRANCH   1  11
ATOM     11  C   UNL d   1      13.247  11.836  -2.700  0.00  0.00     0.043 C 
BRANCH  11  12
ATOM     12  C   UNL d   1      13.991  11.850  -2.285  0.00  0.00     0.202 C 
ATOM     13  O   UNL d   1      14.692  11.851  -2.705  0.00  0.00    -0.286 OA
BRANCH  12  14
ATOM     14  C   UNL d   1      13.993  11.863  -1.446  0.00  0.00     0.068 A 
ATOM     15  S   UNL d   1      14.677  11.966  -0.951  0.00  0.00    -0.083 SA
ATOM     16  C   UNL d   1      14.427  11.943  -0.170  0.00  0.00     0.035 A 
ATOM     17  C   UNL d   1      13.603  11.828  -0.164  0.00  0.00     0.008 A 
ATOM     18  C   UNL d   1      13.346  11.780  -0.932  0.00  0.00     0.010 A 
ENDBRANCH  12  14
ENDBRANCH  11  12
ENDBRANCH   1  11
TORSDOF 6
ENDMDL
MODEL 3
REMARK VINA RESULT:      19.6      2.193      3.024
REMARK  6 active torsions:
REMARK  status: ('A' for Active; 'I' for Inactive)
REMARK    1  A    between atoms: C_3  and  C_1 
REMARK    2  A    between atoms: C_2  and  C_4 
REMARK    3  A    between atoms: C_9  and  C_3 
REMARK    4  A    between atoms: C_4  and  C_10 
REMARK    5  A    between atoms: C_17  and  C_9 
REMARK    6  A    between atoms: C_10  and  C_17 
ROOT
ATOM      1  C   UNL d   1      13.141  12.222  -3.348  0.00  0.00     0.006 C 
ATOM      2  C   UNL d   1      12.770  11.779  -3.967  0.00  0.00     0.000 C 
ENDROOT
BRANCH   1   3
ATOM      3  C   UNL d   1      13.166  11.885  -2.596  0.00  0.00     0.043 C 
BRANCH   3   4
ATOM      4  C   UNL d   1      13.851  11.878  -2.147  0.00  0.00     0.202 C 
ATOM      5  O   UNL d   1      14.610  11.905  -2.502  0.00  0.00    -0.286 OA
BRANCH   4   6
ATOM      6  C   UNL d   1      13.810  11.845  -1.324  0.00  0.00     0.068 A 
ATOM      7  S   UNL d   1      14.481  11.854  -0.839  0.00  0.00    -0.083 SA
ATOM      8  C   UNL d   1      14.253  11.815  -0.054  0.00  0.00     0.035 A 
ATOM      9  C   UNL d   1      13.422  11.780  -0.042  0.00  0.00     0.008 A 
ATOM     10  C   UNL d   1      13.163  11.799  -0.820  0.00  0.00     0.010 A 
ENDBRANCH   4   6
ENDBRANCH   3   4
ENDBRANCH   1   3
BRANCH   1  11
ATOM     11  C   UNL d   1      13.468  12.962  -3.486  0.00  0.00     0.043 C 
BRANCH  11  12
ATOM     12  C   UNL d   1      13.368  13.336  -4.245  0.00  0.00     0.202 C 
ATOM     13  O   UNL d   1      13.262  12.879  -4.914  0.00  0.00    -0.286 OA
BRANCH  12  14
ATOM     14  C   UNL d   1      13.381  14.174  -4.295  0.00  0.00     0.068 A 
ATOM     15  S   UNL d   1      13.969  14.684  -3.954  0.00  0.00    -0.083 SA
ATOM     16  C   UNL d   1      13.767  15.457  -4.137  0.00  0.00     0.035 A 
ATOM     17  C   UNL d   1      13.067  15.444  -4.585  0.00  0.00     0.008 A 
ATOM     18  C   UNL d   1      12.837  14.671  -4.679  0.00  0.00     0.010 A 
ENDBRANCH  12  14
ENDBRANCH  11  12
ENDBRANCH   1  11
TORSDOF 6
ENDMDL
