MODEL 1
REMARK VINA RESULT:      -2.8      0.000      0.000
REMARK  6 active torsions:
REMARK  status: ('A' for Active; 'I' for Inactive)
REMARK    1  A    between atoms: C_4  and  C_1 
REMARK    2  A    between atoms: C_3  and  N_8 
REMARK       I    between atoms: N_8  and  C_4 
REMARK    3  A    between atoms: C_14  and  C_6 
REMARK    4  A    between atoms: C_15  and  C_10 
REMARK    5  A    between atoms: C_12  and  C_16 
REMARK    6  A    between atoms: C_19  and  C_15 
ROOT
ATOM      1  C   UNL d   1      32.199  17.925 -23.383  0.00  0.00     0.083 A 
ATOM      2  C   UNL d   1      31.466  17.822 -23.740  0.00  0.00     0.032 A 
ATOM      3  C   UNL d   1      31.324  17.013 -23.805  0.00  0.00     0.100 A 
ATOM      4  C   UNL d   1      32.514  17.178 -23.226  0.00  0.00     0.105 A 
ATOM      5  O   UNL d   1      31.973  16.613 -23.487  0.00  0.00    -0.307 OA
ATOM      6  C   UNL d   1      33.241  17.020 -22.871  0.00  0.00     0.027 C 
ENDROOT
BRANCH   1   7
ATOM      7  C   UNL d   1      32.557  18.649 -23.212  0.00  0.00     0.283 C 
ATOM      8  N   UNL d   1      32.238  19.137 -22.626  0.00  0.00    -0.181 NA
ATOM      9  O   UNL d   1      33.227  18.883 -23.623  0.00  0.00    -0.265 OA
BRANCH   8  10
ATOM     10  C   UNL d   1      32.595  19.860 -22.454  0.00  0.00     0.216 A 
ATOM     11  N   UNL d   1      32.661  20.199 -21.710  0.00  0.00    -0.200 NA
ATOM     12  C   UNL d   1      33.055  20.918 -21.794  0.00  0.00     0.175 A 
ATOM     13  N   UNL d   1      33.230  21.019 -22.595  0.00  0.00    -0.187 NA
ATOM     14  S   UNL d   1      32.944  20.362 -22.999  0.00  0.00     0.054 SA
BRANCH  12  15
ATOM     15  C   UNL d   1      33.240  21.443 -21.188  0.00  0.00     0.082 C 
BRANCH  15  16
ATOM     16  C   UNL d   1      32.700  22.030 -20.973  0.00  0.00     0.199 C 
ATOM     17  O   UNL d   1      32.080  21.844 -20.459  0.00  0.00    -0.286 OA
ATOM     18  C   UNL d   1      32.779  22.794 -21.269  0.00  0.00     0.045 C 
ENDBRANCH  15  16
ENDBRANCH  12  15
ENDBRANCH   8  10
ENDBRANCH   1   7
BRANCH   3  19
ATOM     19  C   UNL d   1      30.649  16.664 -24.132  0.00  0.00     0.023 A 
ATOM     20  C   UNL d   1      29.896  16.860 -23.848  0.00  0.00     0.006 A 
ATOM     21  C   UNL d   1      29.229  16.509 -24.179  0.00  0.00     0.071 A 
ATOM     22  C   UNL d   1      29.307  15.963 -24.792  0.00  0.00     0.004 A 
ATOM     23  C   UNL d   1      30.060  15.767 -25.076  0.00  0.00     0.000 A 
ATOM     24  C   UNL d   1      30.729  16.118 -24.745  0.00  0.00     0.002 A 
BRANCH  21  25
ATOM     25  C   UNL d   1      28.478  16.704 -23.896  0.00  0.00     0.419 C 
ATOM     26  F   UNL d   1      28.174  16.321 -23.230  0.00  0.00    -0.166 F 
ATOM     27  F   UNL d   1      28.030  17.282 -24.277  0.00  0.00    -0.166 F 
ATOM     28  F   UNL d   1      28.752  16.119 -23.386  0.00  0.00    -0.166 F 
ENDBRANCH  21  25
ENDBRANCH   3  19
TORSDOF 6
ENDMDL
MODEL 2
REMARK VINA RESULT:      -2.6      3.082      5.901
REMARK  6 active torsions:
REMARK  status: ('A' for Active; 'I' for Inactive)
REMARK    1  A    between atoms: C_4  and  C_1 
REMARK    2  A    between atoms: C_3  and  N_8 
REMARK       I    between atoms: N_8  and  C_4 
REMARK    3  A    between atoms: C_14  and  C_6 
REMARK    4  A    between atoms: C_15  and  C_10 
REMARK    5  A    between atoms: C_12  and  C_16 
REMARK    6  A    between atoms: C_19  and  C_15 
ROOT
ATOM      1  C   UNL d   1      32.827  19.699 -22.268  0.00  0.00     0.083 A 
ATOM      2  C   UNL d   1      32.726  20.480 -22.505  0.00  0.00     0.032 A 
ATOM      3  C   UNL d   1      32.910  20.967 -21.866  0.00  0.00     0.100 A 
ATOM      4  C   UNL d   1      33.074  19.701 -21.480  0.00  0.00     0.105 A 
ATOM      5  O   UNL d   1      33.126  20.485 -21.230  0.00  0.00    -0.307 OA
ATOM      6  C   UNL d   1      33.240  19.037 -21.021  0.00  0.00     0.027 C 
ENDROOT
BRANCH   1   7
ATOM      7  C   UNL d   1      32.702  19.031 -22.737  0.00  0.00     0.283 C 
ATOM      8  N   UNL d   1      32.032  18.988 -23.221  0.00  0.00    -0.181 NA
ATOM      9  O   UNL d   1      33.240  18.413 -22.724  0.00  0.00    -0.265 OA
BRANCH   8  10
ATOM     10  C   UNL d   1      31.907  18.322 -23.690  0.00  0.00     0.216 A 
ATOM     11  N   UNL d   1      31.437  17.678 -23.494  0.00  0.00    -0.200 NA
ATOM     12  C   UNL d   1      31.470  17.142 -24.119  0.00  0.00     0.175 A 
ATOM     13  N   UNL d   1      31.963  17.461 -24.700  0.00  0.00    -0.187 NA
ATOM     14  S   UNL d   1      32.230  18.190 -24.430  0.00  0.00     0.054 SA
BRANCH  12  15
ATOM     15  C   UNL d   1      31.081  16.418 -24.158  0.00  0.00     0.082 C 
BRANCH  15  16
ATOM     16  C   UNL d   1      30.265  16.397 -24.283  0.00  0.00     0.199 C 
ATOM     17  O   UNL d   1      29.966  16.517 -25.044  0.00  0.00    -0.286 OA
ATOM     18  C   UNL d   1      29.753  16.256 -23.654  0.00  0.00     0.045 C 
ENDBRANCH  15  16
ENDBRANCH  12  15
ENDBRANCH   8  10
ENDBRANCH   1   7
BRANCH   3  19
ATOM     19  C   UNL d   1      32.883  21.794 -21.863  0.00  0.00     0.023 A 
ATOM     20  C   UNL d   1      32.556  22.201 -21.220  0.00  0.00     0.006 A 
ATOM     21  C   UNL d   1      32.533  23.024 -21.225  0.00  0.00     0.071 A 
ATOM     22  C   UNL d   1      32.834  23.444 -21.867  0.00  0.00     0.004 A 
ATOM     23  C   UNL d   1      33.161  23.037 -22.509  0.00  0.00     0.000 A 
ATOM     24  C   UNL d   1      33.185  22.213 -22.506  0.00  0.00     0.002 A 
BRANCH  21  25
ATOM     25  C   UNL d   1      32.206  23.430 -20.584  0.00  0.00     0.419 C 
ATOM     26  F   UNL d   1      32.691  23.687 -19.967  0.00  0.00    -0.166 F 
ATOM     27  F   UNL d   1      31.395  23.580 -20.559  0.00  0.00    -0.166 F 
ATOM     28  F   UNL d   1      33.011  23.385 -20.419  0.00  0.00    -0.166 F 
ENDBRANCH  21  25
ENDBRANCH   3  19
TORSDOF 6
ENDMDL
