MODEL 1
REMARK VINA RESULT:      44.9      0.000      0.000
REMARK  10 active torsions:
REMARK  status: ('A' for Active; 'I' for Inactive)
REMARK    1  A    between atoms: C_5  and  C_1 
REMARK    2  A    between atoms: N_6  and  C_2 
REMARK    3  A    between atoms: C_7  and  C_5 
REMARK    4  A    between atoms: C_8  and  C_5 
REMARK    5  A    between atoms: O_18  and  C_7 
REMARK    6  A    between atoms: C_22  and  O_18 
REMARK    7  A    between atoms: C_23  and  C_22 
REMARK    8  A    between atoms: C_26  and  C_23 
REMARK    9  A    between atoms: C_24  and  C_25 
REMARK   10  A    between atoms: C_25  and  C_26 
ROOT
ATOM      1  C   UNL d   1      13.986  13.517  -2.627  0.00  0.00     0.122 A 
ATOM      2  C   UNL d   1      13.926  12.717  -2.830  0.00  0.00     0.166 A 
ATOM      3  N   UNL d   1      14.129  12.146  -2.271  0.00  0.00    -0.225 NA
ATOM      4  N   UNL d   1      14.246  13.742  -1.873  0.00  0.00    -0.241 NA
ATOM      5  C   UNL d   1      14.386  12.361  -1.524  0.00  0.00     0.101 A 
ATOM      6  C   UNL d   1      14.445  13.165  -1.323  0.00  0.00     0.099 A 
ATOM      7  C   UNL d   1      14.703  13.383  -0.574  0.00  0.00     0.021 A 
ATOM      8  C   UNL d   1      14.588  11.782  -0.966  0.00  0.00     0.021 A 
ATOM      9  C   UNL d   1      14.847  12.007  -0.212  0.00  0.00     0.002 A 
ATOM     10  C   UNL d   1      14.905  12.804  -0.017  0.00  0.00     0.002 A 
ENDROOT
BRANCH   1  11
ATOM     11  C   UNL d   1      13.785  14.109  -3.182  0.00  0.00     0.105 C 
BRANCH  11  12
ATOM     12  C   UNL d   1      14.313  14.714  -3.363  0.00  0.00     0.303 C 
ATOM     13  O   UNL d   1      14.847  14.979  -2.789  0.00  0.00    -0.259 OA
BRANCH  12  14
ATOM     14  O   UNL d   1      14.309  15.052  -4.113  0.00  0.00    -0.271 OA
BRANCH  14  15
ATOM     15  C   UNL d   1      14.811  15.696  -4.269  0.00  0.00     0.126 C 
BRANCH  15  16
ATOM     16  C   UNL d   1      14.488  16.437  -4.413  0.00  0.00     0.027 C 
BRANCH  16  17
ATOM     17  C   UNL d   1      14.959  17.108  -4.343  0.00  0.00     0.002 C 
BRANCH  17  18
ATOM     18  C   UNL d   1      15.011  17.636  -4.970  0.00  0.00     0.000 C 
BRANCH  18  19
ATOM     19  C   UNL d   1      14.328  17.980  -5.280  0.00  0.00     0.000 C 
ATOM     20  C   UNL d   1      14.317  18.782  -5.440  0.00  0.00     0.000 C 
ENDBRANCH  18  19
ENDBRANCH  17  18
ENDBRANCH  16  17
ENDBRANCH  15  16
ENDBRANCH  14  15
ENDBRANCH  12  14
ENDBRANCH  11  12
BRANCH  11  21
ATOM     21  C   UNL d   1      13.036  14.085  -3.559  0.00  0.00     0.129 C 
ATOM     22  N   UNL d   1      12.787  14.698  -4.246  0.00  0.00    -0.146 N 
ENDBRANCH  11  21
ENDBRANCH   1  11
BRANCH   2  23
ATOM     23  N   UNL d   1      13.667  12.500  -3.583  0.00  0.00    -0.285 N 
ATOM     24  C   UNL d   1      14.059  12.797  -4.252  0.00  0.00     0.101 A 
ATOM     25  C   UNL d   1      13.810  12.587  -5.007  0.00  0.00     0.100 A 
ATOM     26  N   UNL d   1      13.162  12.076  -5.097  0.00  0.00    -0.299 N 
ATOM     27  C   UNL d   1      12.771  11.779  -4.428  0.00  0.00     0.100 A 
ATOM     28  C   UNL d   1      12.902  11.858  -5.862  0.00  0.00     0.100 C 
ATOM     29  C   UNL d   1      13.026  11.993  -3.667  0.00  0.00     0.101 A 
ENDBRANCH   2  23
TORSDOF 10
ENDMDL
