MODEL 1
REMARK VINA RESULT:      -6.4      0.000      0.000
REMARK  6 active torsions:
REMARK  status: ('A' for Active; 'I' for Inactive)
REMARK    1  A    between atoms: C_6  and  C_1 
REMARK    2  A    between atoms: C_9  and  N_3 
REMARK       I    between atoms: N_7  and  C_6 
REMARK    3  A    between atoms: C_8  and  N_7 
REMARK    4  A    between atoms: C_14  and  C_9 
REMARK    5  A    between atoms: O_21  and  C_12 
REMARK    6  A    between atoms: O_22  and  C_19 
ROOT
ATOM      1  C   UNL d   1     -46.819  13.734  22.923  0.00  0.00     0.199 A 
ATOM      2  C   UNL d   1     -47.153  14.462  22.702  0.00  0.00     0.211 A 
ATOM      3  N   UNL d   1     -47.940  14.467  22.953  0.00  0.00    -0.190 N 
ATOM      4  N   UNL d   1     -47.401  13.295  23.310  0.00  0.00    -0.122 NA
ATOM      5  N   UNL d   1     -48.096  13.750  23.328  0.00  0.00    -0.058 NA
ATOM      6  N   UNL d   1     -46.766  15.074  22.301  0.00  0.00    -0.125 N 
ENDROOT
BRANCH   1   7
ATOM      7  C   UNL d   1     -46.043  13.500  22.779  0.00  0.00     0.302 C 
ATOM      8  N   UNL d   1     -45.876  12.701  22.645  0.00  0.00    -0.205 NA
ATOM      9  O   UNL d   1     -45.435  14.058  22.769  0.00  0.00    -0.263 OA
BRANCH   8  10
ATOM     10  C   UNL d   1     -45.094  12.461  22.499  0.00  0.00     0.108 A 
ATOM     11  C   UNL d   1     -44.636  12.863  21.944  0.00  0.00     0.033 A 
ATOM     12  C   UNL d   1     -43.859  12.625  21.799  0.00  0.00     0.059 A 
ATOM     13 CL   UNL d   1     -43.404  13.032  21.240  0.00  0.00    -0.082 Cl
ATOM     14  C   UNL d   1     -43.538  11.983  22.212  0.00  0.00     0.013 A 
ATOM     15  C   UNL d   1     -44.002  11.577  22.774  0.00  0.00     0.027 A 
ATOM     16  C   UNL d   1     -44.780  11.822  22.913  0.00  0.00     0.112 A 
BRANCH  16  17
ATOM     17  O   UNL d   1     -45.241  11.420  23.470  0.00  0.00    -0.327 OA
ATOM     18  C   UNL d   1     -45.067  10.636  23.659  0.00  0.00     0.181 C 
ENDBRANCH  16  17
ENDBRANCH   8  10
ENDBRANCH   1   7
BRANCH   3  19
ATOM     19  C   UNL d   1     -48.483  15.080  22.851  0.00  0.00     0.104 C 
BRANCH  19  20
ATOM     20  C   UNL d   1     -49.291  14.934  22.854  0.00  0.00     0.021 A 
ATOM     21  C   UNL d   1     -49.659  14.589  22.202  0.00  0.00     0.026 A 
ATOM     22  C   UNL d   1     -50.467  14.445  22.209  0.00  0.00     0.094 A 
ATOM     23  C   UNL d   1     -50.924  14.645  22.872  0.00  0.00     0.024 A 
ATOM     24  C   UNL d   1     -50.550  14.995  23.533  0.00  0.00     0.002 A 
ATOM     25  C   UNL d   1     -49.743  15.136  23.520  0.00  0.00     0.002 A 
BRANCH  22  26
ATOM     26  O   UNL d   1     -50.828  14.099  21.552  0.00  0.00    -0.328 OA
ATOM     27  C   UNL d   1     -51.064  13.309  21.576  0.00  0.00     0.181 C 
ENDBRANCH  22  26
ENDBRANCH  19  20
ENDBRANCH   3  19
TORSDOF 6
ENDMDL
MODEL 2
REMARK VINA RESULT:      -6.1      1.922      5.392
REMARK  6 active torsions:
REMARK  status: ('A' for Active; 'I' for Inactive)
REMARK    1  A    between atoms: C_6  and  C_1 
REMARK    2  A    between atoms: C_9  and  N_3 
REMARK       I    between atoms: N_7  and  C_6 
REMARK    3  A    between atoms: C_8  and  N_7 
REMARK    4  A    between atoms: C_14  and  C_9 
REMARK    5  A    between atoms: O_21  and  C_12 
REMARK    6  A    between atoms: O_22  and  C_19 
ROOT
ATOM      1  C   UNL d   1     -47.085  13.898  22.815  0.00  0.00     0.199 A 
ATOM      2  C   UNL d   1     -46.804  13.495  22.145  0.00  0.00     0.211 A 
ATOM      3  N   UNL d   1     -46.008  13.315  22.272  0.00  0.00    -0.190 N 
ATOM      4  N   UNL d   1     -46.461  13.964  23.352  0.00  0.00    -0.122 NA
ATOM      5  N   UNL d   1     -45.794  13.602  23.014  0.00  0.00    -0.058 NA
ATOM      6  N   UNL d   1     -47.244  13.308  21.469  0.00  0.00    -0.125 N 
ENDROOT
BRANCH   1   7
ATOM      7  C   UNL d   1     -47.852  14.179  22.919  0.00  0.00     0.302 C 
ATOM      8  N   UNL d   1     -48.393  13.736  23.362  0.00  0.00    -0.205 NA
ATOM      9  O   UNL d   1     -48.081  14.897  22.584  0.00  0.00    -0.263 OA
BRANCH   8  10
ATOM     10  C   UNL d   1     -49.167  14.017  23.468  0.00  0.00     0.108 A 
ATOM     11  C   UNL d   1     -49.318  14.827  23.451  0.00  0.00     0.033 A 
ATOM     12  C   UNL d   1     -50.088  15.107  23.556  0.00  0.00     0.059 A 
ATOM     13 CL   UNL d   1     -50.233  15.921  23.538  0.00  0.00    -0.082 Cl
ATOM     14  C   UNL d   1     -50.709  14.574  23.680  0.00  0.00     0.013 A 
ATOM     15  C   UNL d   1     -50.556  13.755  23.697  0.00  0.00     0.027 A 
ATOM     16  C   UNL d   1     -49.782  13.483  23.591  0.00  0.00     0.112 A 
BRANCH  16  17
ATOM     17  O   UNL d   1     -49.629  12.670  23.608  0.00  0.00    -0.327 OA
ATOM     18  C   UNL d   1     -50.245  12.133  23.497  0.00  0.00     0.181 C 
ENDBRANCH  16  17
ENDBRANCH   8  10
ENDBRANCH   1   7
BRANCH   3  19
ATOM     19  C   UNL d   1     -45.507  12.917  21.752  0.00  0.00     0.104 C 
BRANCH  19  20
ATOM     20  C   UNL d   1     -44.834  12.532  22.024  0.00  0.00     0.021 A 
ATOM     21  C   UNL d   1     -44.889  11.939  22.593  0.00  0.00     0.026 A 
ATOM     22  C   UNL d   1     -44.214  11.557  22.861  0.00  0.00     0.094 A 
ATOM     23  C   UNL d   1     -43.468  11.763  22.563  0.00  0.00     0.024 A 
ATOM     24  C   UNL d   1     -43.412  12.365  21.985  0.00  0.00     0.002 A 
ATOM     25  C   UNL d   1     -44.090  12.742  21.721  0.00  0.00     0.002 A 
BRANCH  22  26
ATOM     26  O   UNL d   1     -44.278  10.964  23.431  0.00  0.00    -0.328 OA
ATOM     27  C   UNL d   1     -43.866  10.255  23.341  0.00  0.00     0.181 C 
ENDBRANCH  22  26
ENDBRANCH  19  20
ENDBRANCH   3  19
TORSDOF 6
ENDMDL
MODEL 3
REMARK VINA RESULT:      -6.0      1.407      2.143
REMARK  6 active torsions:
REMARK  status: ('A' for Active; 'I' for Inactive)
REMARK    1  A    between atoms: C_6  and  C_1 
REMARK    2  A    between atoms: C_9  and  N_3 
REMARK       I    between atoms: N_7  and  C_6 
REMARK    3  A    between atoms: C_8  and  N_7 
REMARK    4  A    between atoms: C_14  and  C_9 
REMARK    5  A    between atoms: O_21  and  C_12 
REMARK    6  A    between atoms: O_22  and  C_19 
ROOT
ATOM      1  C   UNL d   1     -46.968  12.422  23.235  0.00  0.00     0.199 A 
ATOM      2  C   UNL d   1     -47.737  12.106  23.230  0.00  0.00     0.211 A 
ATOM      3  N   UNL d   1     -48.270  12.737  23.213  0.00  0.00    -0.190 N 
ATOM      4  N   UNL d   1     -47.032  13.246  23.221  0.00  0.00    -0.122 NA
ATOM      5  N   UNL d   1     -47.840  13.439  23.208  0.00  0.00    -0.058 NA
ATOM      6  N   UNL d   1     -47.933  11.303  23.240  0.00  0.00    -0.125 N 
ENDROOT
BRANCH   1   7
ATOM      7  C   UNL d   1     -46.271  11.986  23.251  0.00  0.00     0.302 C 
ATOM      8  N   UNL d   1     -45.617  12.245  22.815  0.00  0.00    -0.205 NA
ATOM      9  O   UNL d   1     -46.224  11.294  23.698  0.00  0.00    -0.263 OA
BRANCH   8  10
ATOM     10  C   UNL d   1     -44.912  11.805  22.830  0.00  0.00     0.108 A 
ATOM     11  C   UNL d   1     -44.873  11.100  23.255  0.00  0.00     0.033 A 
ATOM     12  C   UNL d   1     -44.172  10.664  23.269  0.00  0.00     0.059 A 
ATOM     13 CL   UNL d   1     -44.140   9.957  23.697  0.00  0.00    -0.082 Cl
ATOM     14  C   UNL d   1     -43.508  10.934  22.857  0.00  0.00     0.013 A 
ATOM     15  C   UNL d   1     -43.547  11.647  22.427  0.00  0.00     0.027 A 
ATOM     16  C   UNL d   1     -44.253  12.079  22.418  0.00  0.00     0.112 A 
BRANCH  16  17
ATOM     17  O   UNL d   1     -44.293  12.787  21.992  0.00  0.00    -0.327 OA
ATOM     18  C   UNL d   1     -43.640  13.043  21.558  0.00  0.00     0.181 C 
ENDBRANCH  16  17
ENDBRANCH   8  10
ENDBRANCH   1   7
BRANCH   3  19
ATOM     19  C   UNL d   1     -49.093  12.682  23.204  0.00  0.00     0.104 C 
BRANCH  19  20
ATOM     20  C   UNL d   1     -49.550  13.241  22.812  0.00  0.00     0.021 A 
ATOM     21  C   UNL d   1     -49.958  13.820  23.231  0.00  0.00     0.026 A 
ATOM     22  C   UNL d   1     -50.414  14.377  22.836  0.00  0.00     0.094 A 
ATOM     23  C   UNL d   1     -50.469  14.363  22.008  0.00  0.00     0.024 A 
ATOM     24  C   UNL d   1     -50.055  13.775  21.582  0.00  0.00     0.002 A 
ATOM     25  C   UNL d   1     -49.602  13.222  21.984  0.00  0.00     0.002 A 
BRANCH  22  26
ATOM     26  O   UNL d   1     -50.820  14.954  23.264  0.00  0.00    -0.328 OA
ATOM     27  C   UNL d   1     -50.500  15.710  23.349  0.00  0.00     0.181 C 
ENDBRANCH  22  26
ENDBRANCH  19  20
ENDBRANCH   3  19
TORSDOF 6
ENDMDL
MODEL 4
REMARK VINA RESULT:      -5.6      2.023      5.560
REMARK  6 active torsions:
REMARK  status: ('A' for Active; 'I' for Inactive)
REMARK    1  A    between atoms: C_6  and  C_1 
REMARK    2  A    between atoms: C_9  and  N_3 
REMARK       I    between atoms: N_7  and  C_6 
REMARK    3  A    between atoms: C_8  and  N_7 
REMARK    4  A    between atoms: C_14  and  C_9 
REMARK    5  A    between atoms: O_21  and  C_12 
REMARK    6  A    between atoms: O_22  and  C_19 
ROOT
ATOM      1  C   UNL d   1     -47.486  13.022  22.484  0.00  0.00     0.199 A 
ATOM      2  C   UNL d   1     -46.802  13.317  22.851  0.00  0.00     0.211 A 
ATOM      3  N   UNL d   1     -46.185  13.284  22.303  0.00  0.00    -0.190 N 
ATOM      4  N   UNL d   1     -47.288  12.809  21.711  0.00  0.00    -0.122 NA
ATOM      5  N   UNL d   1     -46.481  12.973  21.600  0.00  0.00    -0.058 NA
ATOM      6  N   UNL d   1     -46.748  13.594  23.629  0.00  0.00    -0.125 N 
ENDROOT
BRANCH   1   7
ATOM      7  C   UNL d   1     -48.228  12.956  22.835  0.00  0.00     0.302 C 
ATOM      8  N   UNL d   1     -48.823  13.496  22.636  0.00  0.00    -0.205 NA
ATOM      9  O   UNL d   1     -48.378  12.356  23.381  0.00  0.00    -0.263 OA
BRANCH   8  10
ATOM     10  C   UNL d   1     -49.573  13.432  22.989  0.00  0.00     0.108 A 
ATOM     11  C   UNL d   1     -49.915  12.690  23.098  0.00  0.00     0.033 A 
ATOM     12  C   UNL d   1     -50.660  12.626  23.448  0.00  0.00     0.059 A 
ATOM     13 CL   UNL d   1     -50.999  11.879  23.555  0.00  0.00    -0.082 Cl
ATOM     14  C   UNL d   1     -51.064  13.307  23.691  0.00  0.00     0.013 A 
ATOM     15  C   UNL d   1     -50.717  14.057  23.580  0.00  0.00     0.027 A 
ATOM     16  C   UNL d   1     -49.970  14.112  23.228  0.00  0.00     0.112 A 
BRANCH  16  17
ATOM     17  O   UNL d   1     -49.624  14.856  23.118  0.00  0.00    -0.327 OA
ATOM     18  C   UNL d   1     -50.050  15.538  23.302  0.00  0.00     0.181 C 
ENDBRANCH  16  17
ENDBRANCH   8  10
ENDBRANCH   1   7
BRANCH   3  19
ATOM     19  C   UNL d   1     -45.405  13.521  22.428  0.00  0.00     0.104 C 
BRANCH  19  20
ATOM     20  C   UNL d   1     -44.776  13.037  22.218  0.00  0.00     0.021 A 
ATOM     21  C   UNL d   1     -44.668  12.305  22.580  0.00  0.00     0.026 A 
ATOM     22  C   UNL d   1     -44.039  11.824  22.367  0.00  0.00     0.094 A 
ATOM     23  C   UNL d   1     -43.502  12.068  21.782  0.00  0.00     0.024 A 
ATOM     24  C   UNL d   1     -43.612  12.811  21.414  0.00  0.00     0.002 A 
ATOM     25  C   UNL d   1     -44.244  13.287  21.633  0.00  0.00     0.002 A 
BRANCH  22  26
ATOM     26  O   UNL d   1     -43.938  11.092  22.735  0.00  0.00    -0.328 OA
ATOM     27  C   UNL d   1     -43.280  10.956  23.214  0.00  0.00     0.181 C 
ENDBRANCH  22  26
ENDBRANCH  19  20
ENDBRANCH   3  19
TORSDOF 6
ENDMDL
MODEL 5
REMARK VINA RESULT:      -5.5      8.233      9.627
REMARK  6 active torsions:
REMARK  status: ('A' for Active; 'I' for Inactive)
REMARK    1  A    between atoms: C_6  and  C_1 
REMARK    2  A    between atoms: C_9  and  N_3 
REMARK       I    between atoms: N_7  and  C_6 
REMARK    3  A    between atoms: C_8  and  N_7 
REMARK    4  A    between atoms: C_14  and  C_9 
REMARK    5  A    between atoms: O_21  and  C_12 
REMARK    6  A    between atoms: O_22  and  C_19 
ROOT
ATOM      1  C   UNL d   1     -39.071  15.264  18.816  0.00  0.00     0.199 A 
ATOM      2  C   UNL d   1     -39.676  14.999  19.320  0.00  0.00     0.211 A 
ATOM      3  N   UNL d   1     -39.592  15.388  20.044  0.00  0.00    -0.190 N 
ATOM      4  N   UNL d   1     -38.617  15.814  19.232  0.00  0.00    -0.122 NA
ATOM      5  N   UNL d   1     -38.942  15.891  19.993  0.00  0.00    -0.058 NA
ATOM      6  N   UNL d   1     -40.260  14.444  19.131  0.00  0.00    -0.125 N 
ENDROOT
BRANCH   1   7
ATOM      7  C   UNL d   1     -38.951  15.016  18.041  0.00  0.00     0.302 C 
ATOM      8  N   UNL d   1     -38.312  14.521  17.864  0.00  0.00    -0.205 NA
ATOM      9  O   UNL d   1     -39.464  15.259  17.442  0.00  0.00    -0.263 OA
BRANCH   8  10
ATOM     10  C   UNL d   1     -38.188  14.269  17.082  0.00  0.00     0.108 A 
ATOM     11  C   UNL d   1     -38.156  14.821  16.471  0.00  0.00     0.033 A 
ATOM     12  C   UNL d   1     -38.034  14.571  15.694  0.00  0.00     0.059 A 
ATOM     13 CL   UNL d   1     -38.003  15.131  15.085  0.00  0.00    -0.082 Cl
ATOM     14  C   UNL d   1     -37.943  13.766  15.527  0.00  0.00     0.013 A 
ATOM     15  C   UNL d   1     -37.975  13.207  16.145  0.00  0.00     0.027 A 
ATOM     16  C   UNL d   1     -38.098  13.466  16.922  0.00  0.00     0.112 A 
BRANCH  16  17
ATOM     17  O   UNL d   1     -38.130  12.913  17.536  0.00  0.00    -0.327 OA
ATOM     18  C   UNL d   1     -37.941  12.124  17.389  0.00  0.00     0.181 C 
ENDBRANCH  16  17
ENDBRANCH   8  10
ENDBRANCH   1   7
BRANCH   3  19
ATOM     19  C   UNL d   1     -40.072  15.296  20.708  0.00  0.00     0.104 C 
BRANCH  19  20
ATOM     20  C   UNL d   1     -39.746  15.195  21.456  0.00  0.00     0.021 A 
ATOM     21  C   UNL d   1     -39.551  14.444  21.732  0.00  0.00     0.026 A 
ATOM     22  C   UNL d   1     -39.226  14.347  22.479  0.00  0.00     0.094 A 
ATOM     23  C   UNL d   1     -39.089  15.005  22.966  0.00  0.00     0.024 A 
ATOM     24  C   UNL d   1     -39.287  15.768  22.686  0.00  0.00     0.002 A 
ATOM     25  C   UNL d   1     -39.612  15.857  21.938  0.00  0.00     0.002 A 
BRANCH  22  26
ATOM     26  O   UNL d   1     -39.033  13.592  22.748  0.00  0.00    -0.328 OA
ATOM     27  C   UNL d   1     -38.557  13.497  23.415  0.00  0.00     0.181 C 
ENDBRANCH  22  26
ENDBRANCH  19  20
ENDBRANCH   3  19
TORSDOF 6
ENDMDL
MODEL 6
REMARK VINA RESULT:      -4.1      7.860      9.458
REMARK  6 active torsions:
REMARK  status: ('A' for Active; 'I' for Inactive)
REMARK    1  A    between atoms: C_6  and  C_1 
REMARK    2  A    between atoms: C_9  and  N_3 
REMARK       I    between atoms: N_7  and  C_6 
REMARK    3  A    between atoms: C_8  and  N_7 
REMARK    4  A    between atoms: C_14  and  C_9 
REMARK    5  A    between atoms: O_21  and  C_12 
REMARK    6  A    between atoms: O_22  and  C_19 
ROOT
ATOM      1  C   UNL d   1     -39.813  15.069  17.731  0.00  0.00     0.199 A 
ATOM      2  C   UNL d   1     -40.361  14.740  18.261  0.00  0.00     0.211 A 
ATOM      3  N   UNL d   1     -40.456  15.268  18.889  0.00  0.00    -0.190 N 
ATOM      4  N   UNL d   1     -39.573  15.799  18.034  0.00  0.00    -0.122 NA
ATOM      5  N   UNL d   1     -39.972  15.921  18.752  0.00  0.00    -0.058 NA
ATOM      6  N   UNL d   1     -40.744  14.012  18.176  0.00  0.00    -0.125 N 
ENDROOT
BRANCH   1   7
ATOM      7  C   UNL d   1     -39.560  14.724  17.028  0.00  0.00     0.302 C 
ATOM      8  N   UNL d   1     -38.811  14.373  16.993  0.00  0.00    -0.205 NA
ATOM      9  O   UNL d   1     -40.048  14.727  16.363  0.00  0.00    -0.263 OA
BRANCH   8  10
ATOM     10  C   UNL d   1     -38.553  14.023  16.285  0.00  0.00     0.108 A 
ATOM     11  C   UNL d   1     -38.638  14.425  15.570  0.00  0.00     0.033 A 
ATOM     12  C   UNL d   1     -38.381  14.078  14.867  0.00  0.00     0.059 A 
ATOM     13 CL   UNL d   1     -38.470  14.487  14.153  0.00  0.00    -0.082 Cl
ATOM     14  C   UNL d   1     -38.038  13.325  14.878  0.00  0.00     0.013 A 
ATOM     15  C   UNL d   1     -37.951  12.919  15.600  0.00  0.00     0.027 A 
ATOM     16  C   UNL d   1     -38.211  13.274  16.301  0.00  0.00     0.112 A 
BRANCH  16  17
ATOM     17  O   UNL d   1     -38.126  12.871  17.019  0.00  0.00    -0.327 OA
ATOM     18  C   UNL d   1     -37.957  12.064  17.020  0.00  0.00     0.181 C 
ENDBRANCH  16  17
ENDBRANCH   8  10
ENDBRANCH   1   7
BRANCH   3  19
ATOM     19  C   UNL d   1     -40.947  15.168  19.544  0.00  0.00     0.104 C 
BRANCH  19  20
ATOM     20  C   UNL d   1     -40.655  15.246  20.308  0.00  0.00     0.021 A 
ATOM     21  C   UNL d   1     -40.053  14.756  20.582  0.00  0.00     0.026 A 
ATOM     22  C   UNL d   1     -39.764  14.837  21.346  0.00  0.00     0.094 A 
ATOM     23  C   UNL d   1     -40.076  15.415  21.853  0.00  0.00     0.024 A 
ATOM     24  C   UNL d   1     -40.688  15.913  21.575  0.00  0.00     0.002 A 
ATOM     25  C   UNL d   1     -40.971  15.826  20.811  0.00  0.00     0.002 A 
BRANCH  22  26
ATOM     26  O   UNL d   1     -39.161  14.342  21.612  0.00  0.00    -0.328 OA
ATOM     27  C   UNL d   1     -38.960  14.325  22.412  0.00  0.00     0.181 C 
ENDBRANCH  22  26
ENDBRANCH  19  20
ENDBRANCH   3  19
TORSDOF 6
ENDMDL
MODEL 7
REMARK VINA RESULT:      -3.5      2.764      6.200
REMARK  6 active torsions:
REMARK  status: ('A' for Active; 'I' for Inactive)
REMARK    1  A    between atoms: C_6  and  C_1 
REMARK    2  A    between atoms: C_9  and  N_3 
REMARK       I    between atoms: N_7  and  C_6 
REMARK    3  A    between atoms: C_8  and  N_7 
REMARK    4  A    between atoms: C_14  and  C_9 
REMARK    5  A    between atoms: O_21  and  C_12 
REMARK    6  A    between atoms: O_22  and  C_19 
ROOT
ATOM      1  C   UNL d   1     -44.102  13.019  21.892  0.00  0.00     0.199 A 
ATOM      2  C   UNL d   1     -43.371  12.634  21.805  0.00  0.00     0.211 A 
ATOM      3  N   UNL d   1     -42.884  13.117  21.345  0.00  0.00    -0.190 N 
ATOM      4  N   UNL d   1     -44.062  13.737  21.486  0.00  0.00    -0.122 NA
ATOM      5  N   UNL d   1     -43.306  13.796  21.147  0.00  0.00    -0.058 NA
ATOM      6  N   UNL d   1     -43.167  11.898  22.123  0.00  0.00    -0.125 N 
ENDROOT
BRANCH   1   7
ATOM      7  C   UNL d   1     -44.749  12.730  22.312  0.00  0.00     0.302 C 
ATOM      8  N   UNL d   1     -45.434  13.190  22.375  0.00  0.00    -0.205 NA
ATOM      9  O   UNL d   1     -44.715  11.986  22.667  0.00  0.00    -0.263 OA
BRANCH   8  10
ATOM     10  C   UNL d   1     -46.088  12.901  22.798  0.00  0.00     0.108 A 
ATOM     11  C   UNL d   1     -46.117  12.108  23.021  0.00  0.00     0.033 A 
ATOM     12  C   UNL d   1     -46.767  11.820  23.441  0.00  0.00     0.059 A 
ATOM     13 CL   UNL d   1     -46.790  11.023  23.663  0.00  0.00    -0.082 Cl
ATOM     14  C   UNL d   1     -47.390  12.328  23.639  0.00  0.00     0.013 A 
ATOM     15  C   UNL d   1     -47.360  13.130  23.413  0.00  0.00     0.027 A 
ATOM     16  C   UNL d   1     -46.705  13.410  22.992  0.00  0.00     0.112 A 
BRANCH  16  17
ATOM     17  O   UNL d   1     -46.675  14.206  22.767  0.00  0.00    -0.327 OA
ATOM     18  C   UNL d   1     -47.365  14.657  22.758  0.00  0.00     0.181 C 
ENDBRANCH  16  17
ENDBRANCH   8  10
ENDBRANCH   1   7
BRANCH   3  19
ATOM     19  C   UNL d   1     -42.107  12.955  21.118  0.00  0.00     0.104 C 
BRANCH  19  20
ATOM     20  C   UNL d   1     -41.599  13.557  20.886  0.00  0.00     0.021 A 
ATOM     21  C   UNL d   1     -41.449  13.697  20.089  0.00  0.00     0.026 A 
ATOM     22  C   UNL d   1     -40.941  14.300  19.861  0.00  0.00     0.094 A 
ATOM     23  C   UNL d   1     -40.572  14.777  20.432  0.00  0.00     0.024 A 
ATOM     24  C   UNL d   1     -40.725  14.634  21.241  0.00  0.00     0.002 A 
ATOM     25  C   UNL d   1     -41.233  14.030  21.461  0.00  0.00     0.002 A 
BRANCH  22  26
ATOM     26  O   UNL d   1     -40.795  14.434  19.060  0.00  0.00    -0.328 OA
ATOM     27  C   UNL d   1     -40.795  15.202  18.760  0.00  0.00     0.181 C 
ENDBRANCH  22  26
ENDBRANCH  19  20
ENDBRANCH   3  19
TORSDOF 6
ENDMDL
MODEL 8
REMARK VINA RESULT:      -3.5      7.518     10.350
REMARK  6 active torsions:
REMARK  status: ('A' for Active; 'I' for Inactive)
REMARK    1  A    between atoms: C_6  and  C_1 
REMARK    2  A    between atoms: C_9  and  N_3 
REMARK       I    between atoms: N_7  and  C_6 
REMARK    3  A    between atoms: C_8  and  N_7 
REMARK    4  A    between atoms: C_14  and  C_9 
REMARK    5  A    between atoms: O_21  and  C_12 
REMARK    6  A    between atoms: O_22  and  C_19 
ROOT
ATOM      1  C   UNL d   1     -39.527  15.068  18.088  0.00  0.00     0.199 A 
ATOM      2  C   UNL d   1     -38.855  14.639  17.853  0.00  0.00     0.211 A 
ATOM      3  N   UNL d   1     -38.602  14.941  17.127  0.00  0.00    -0.190 N 
ATOM      4  N   UNL d   1     -39.685  15.633  17.506  0.00  0.00    -0.122 NA
ATOM      5  N   UNL d   1     -39.110  15.553  16.911  0.00  0.00    -0.058 NA
ATOM      6  N   UNL d   1     -38.502  14.019  18.271  0.00  0.00    -0.125 N 
ENDROOT
BRANCH   1   7
ATOM      7  C   UNL d   1     -39.955  14.947  18.780  0.00  0.00     0.302 C 
ATOM      8  N   UNL d   1     -39.808  15.424  19.440  0.00  0.00    -0.205 NA
ATOM      9  O   UNL d   1     -40.526  14.353  18.817  0.00  0.00    -0.263 OA
BRANCH   8  10
ATOM     10  C   UNL d   1     -40.238  15.303  20.141  0.00  0.00     0.108 A 
ATOM     11  C   UNL d   1     -41.032  15.083  20.105  0.00  0.00     0.033 A 
ATOM     12  C   UNL d   1     -41.460  14.963  20.801  0.00  0.00     0.059 A 
ATOM     13 CL   UNL d   1     -42.256  14.743  20.758  0.00  0.00    -0.082 Cl
ATOM     14  C   UNL d   1     -41.092  15.064  21.535  0.00  0.00     0.013 A 
ATOM     15  C   UNL d   1     -40.289  15.286  21.572  0.00  0.00     0.027 A 
ATOM     16  C   UNL d   1     -39.868  15.404  20.869  0.00  0.00     0.112 A 
BRANCH  16  17
ATOM     17  O   UNL d   1     -39.071  15.625  20.904  0.00  0.00    -0.327 OA
ATOM     18  C   UNL d   1     -38.756  15.918  21.607  0.00  0.00     0.181 C 
ENDBRANCH  16  17
ENDBRANCH   8  10
ENDBRANCH   1   7
BRANCH   3  19
ATOM     19  C   UNL d   1     -37.955  14.682  16.687  0.00  0.00     0.104 C 
BRANCH  19  20
ATOM     20  C   UNL d   1     -37.998  14.612  15.870  0.00  0.00     0.021 A 
ATOM     21  C   UNL d   1     -38.003  13.871  15.510  0.00  0.00     0.026 A 
ATOM     22  C   UNL d   1     -38.047  13.804  14.694  0.00  0.00     0.094 A 
ATOM     23  C   UNL d   1     -38.086  14.484  14.219  0.00  0.00     0.024 A 
ATOM     24  C   UNL d   1     -38.082  15.236  14.584  0.00  0.00     0.002 A 
ATOM     25  C   UNL d   1     -38.038  15.295  15.400  0.00  0.00     0.002 A 
BRANCH  22  26
ATOM     26  O   UNL d   1     -38.051  13.058  14.342  0.00  0.00    -0.328 OA
ATOM     27  C   UNL d   1     -38.079  12.986  13.520  0.00  0.00     0.181 C 
ENDBRANCH  22  26
ENDBRANCH  19  20
ENDBRANCH   3  19
TORSDOF 6
ENDMDL
