MODEL 1
REMARK VINA RESULT:      76.9      0.000      0.000
REMARK  7 active torsions:
REMARK  status: ('A' for Active; 'I' for Inactive)
REMARK    1  A    between atoms: C_11  and  C_3 
REMARK    2  A    between atoms: C_10  and  C_4 
REMARK    3  A    between atoms: O_15  and  C_10 
REMARK    4  A    between atoms: N_14  and  C_11 
REMARK    5  A    between atoms: C_20  and  N_14 
REMARK    6  A    between atoms: C_22  and  O_15 
REMARK    7  A    between atoms: C_21  and  C_20 
ROOT
ATOM      1  C   UNL d   1     -48.001  30.743  34.667  0.00  0.00     0.035 A 
ATOM      2  C   UNL d   1     -48.374  31.219  34.106  0.00  0.00     0.100 A 
ATOM      3  C   UNL d   1     -47.401  31.058  35.137  0.00  0.00     0.060 A 
ATOM      4  C   UNL d   1     -48.328  29.980  34.647  0.00  0.00     0.088 A 
ATOM      5  O   UNL d   1     -48.949  30.732  33.729  0.00  0.00    -0.307 OA
ATOM      6  C   UNL d   1     -48.912  29.978  34.067  0.00  0.00     0.105 A 
ATOM      7  C   UNL d   1     -47.175  31.848  35.046  0.00  0.00     0.197 A 
ATOM      8  C   UNL d   1     -48.150  32.000  34.017  0.00  0.00     0.026 A 
ATOM      9  C   UNL d   1     -47.551  32.315  34.487  0.00  0.00     0.041 A 
ATOM     10  O   UNL d   1     -46.566  32.168  35.524  0.00  0.00    -0.286 OA
ATOM     11  C   UNL d   1     -49.399  29.300  33.854  0.00  0.00     0.027 C 
ATOM     12  C   UNL d   1     -48.524  32.484  33.452  0.00  0.00     0.002 A 
ATOM     13  C   UNL d   1     -47.326  33.113  34.392  0.00  0.00     0.003 A 
ATOM     14  C   UNL d   1     -47.700  33.575  33.835  0.00  0.00     0.000 A 
ATOM     15  C   UNL d   1     -48.300  33.261  33.365  0.00  0.00     0.000 A 
ENDROOT
BRANCH   3  16
ATOM     16  C   UNL d   1     -47.042  30.552  35.695  0.00  0.00     0.102 C 
BRANCH  16  17
ATOM     17  N   UNL d   1     -46.824  30.866  36.446  0.00  0.00    -0.239 NA
BRANCH  17  18
ATOM     18  C   UNL d   1     -46.293  30.437  36.928  0.00  0.00     0.144 C 
BRANCH  18  19
ATOM     19  C   UNL d   1     -46.495  30.283  37.708  0.00  0.00     0.255 C 
ATOM     20  O   UNL d   1     -45.922  30.269  38.301  0.00  0.00    -0.281 OA
ENDBRANCH  18  19
ENDBRANCH  17  18
ENDBRANCH  16  17
ENDBRANCH   3  16
BRANCH   4  21
ATOM     21  C   UNL d   1     -48.125  29.296  35.121  0.00  0.00     0.302 C 
ATOM     22  O   UNL d   1     -47.403  28.914  35.015  0.00  0.00    -0.259 OA
BRANCH  21  23
ATOM     23  O   UNL d   1     -48.658  29.036  35.676  0.00  0.00    -0.271 OA
BRANCH  23  24
ATOM     24  C   UNL d   1     -48.708  28.242  35.883  0.00  0.00     0.126 C 
ATOM     25  C   UNL d   1     -49.266  27.995  36.445  0.00  0.00     0.029 C 
ENDBRANCH  23  24
ENDBRANCH  21  23
ENDBRANCH   4  21
TORSDOF 7
ENDMDL
