MODEL 1
REMARK VINA RESULT:      -2.1      0.000      0.000
REMARK  5 active torsions:
REMARK  status: ('A' for Active; 'I' for Inactive)
REMARK    1  A    between atoms: C_8  and  C_1 
REMARK    2  A    between atoms: N_9  and  C_8 
REMARK    3  A    between atoms: C_15  and  C_8 
REMARK    4  A    between atoms: C_16  and  N_11 
REMARK    5  A    between atoms: C_19  and  C_16 
ROOT
ATOM      1  C   UNL d   1      59.141  -0.637  29.780  0.00  0.00     0.075 C 
ENDROOT
BRANCH   1   2
ATOM      2  C   UNL d   1      59.016  -1.416  29.526  0.00  0.00     0.106 A 
ATOM      3  C   UNL d   1      59.420  -2.091  29.803  0.00  0.00     0.290 A 
ATOM      4  N   UNL d   1      59.123  -2.748  29.402  0.00  0.00    -0.169 N 
ATOM      5  O   UNL d   1      60.015  -2.099  30.380  0.00  0.00    -0.265 OA
ATOM      6  N   UNL d   1      59.183  -3.565  29.321  0.00  0.00    -0.138 NA
ATOM      7  C   UNL d   1      58.538  -2.485  28.879  0.00  0.00     0.200 A 
ATOM      8  C   UNL d   1      58.639  -3.811  28.751  0.00  0.00     0.222 A 
ATOM      9  N   UNL d   1      58.240  -3.142  28.478  0.00  0.00    -0.197 NA
ATOM     10  S   UNL d   1      58.471  -1.666  28.954  0.00  0.00    -0.042 SA
ENDBRANCH   1   2
BRANCH   1  11
ATOM     11  N   UNL d   1      58.641  -0.315  30.350  0.00  0.00    -0.301 N 
ATOM     12  C   UNL d   1      57.838  -0.208  30.176  0.00  0.00     0.100 A 
ATOM     13  C   UNL d   1      57.329   0.116  30.744  0.00  0.00     0.100 A 
ATOM     14  N   UNL d   1      57.625   0.335  31.495  0.00  0.00    -0.300 N 
ATOM     15  C   UNL d   1      58.429   0.224  31.658  0.00  0.00     0.100 A 
ATOM     16  C   UNL d   1      58.930  -0.098  31.088  0.00  0.00     0.100 A 
BRANCH  14  17
ATOM     17  C   UNL d   1      57.126   0.655  32.058  0.00  0.00     0.080 C 
BRANCH  17  18
ATOM     18  C   UNL d   1      56.581   0.174  32.446  0.00  0.00     0.018 A 
ATOM     19  C   UNL d   1      56.720  -0.633  32.524  0.00  0.00     0.002 A 
ATOM     20  C   UNL d   1      56.182  -1.112  32.909  0.00  0.00     0.000 A 
ATOM     21  C   UNL d   1      55.492  -0.786  33.224  0.00  0.00     0.000 A 
ATOM     22  C   UNL d   1      55.346   0.026  33.150  0.00  0.00     0.000 A 
ATOM     23  C   UNL d   1      55.894   0.502  32.760  0.00  0.00     0.002 A 
ENDBRANCH  17  18
ENDBRANCH  14  17
ENDBRANCH   1  11
BRANCH   1  24
ATOM     24  C   UNL d   1      59.756  -0.195  29.464  0.00  0.00     0.017 A 
ATOM     25  C   UNL d   1      60.475  -0.159  29.873  0.00  0.00     0.002 A 
ATOM     26  C   UNL d   1      61.094   0.288  29.552  0.00  0.00     0.000 A 
ATOM     27  C   UNL d   1      61.000   0.682  28.854  0.00  0.00     0.000 A 
ATOM     28  C   UNL d   1      60.263   0.633  28.455  0.00  0.00     0.000 A 
ATOM     29  C   UNL d   1      59.653   0.201  28.758  0.00  0.00     0.002 A 
ENDBRANCH   1  24
TORSDOF 5
ENDMDL
