MODEL 1
REMARK VINA RESULT:      58.8      0.000      0.000
REMARK  4 active torsions:
REMARK  status: ('A' for Active; 'I' for Inactive)
REMARK    1  A    between atoms: C_5  and  C_1 
REMARK    2  A    between atoms: C_11  and  C_2 
REMARK       I    between atoms: C_12  and  N_3 
REMARK    3  A    between atoms: C_15  and  N_7 
REMARK    4  A    between atoms: C_14  and  C_9 
ROOT
ATOM      1  C   UNL d   1      45.937 -17.509  43.594  0.00  0.00     0.057 A 
ATOM      2  C   UNL d   1      46.170 -18.305  43.712  0.00  0.00     0.110 A 
ATOM      3  N   UNL d   1      46.365 -18.612  42.964  0.00  0.00    -0.165 NA
ATOM      4  N   UNL d   1      46.247 -17.996  42.406  0.00  0.00    -0.228 N 
ATOM      5  C   UNL d   1      45.989 -17.340  42.807  0.00  0.00     0.103 A 
ENDROOT
BRANCH   1   6
ATOM      6  C   UNL d   1      45.676 -16.788  43.867  0.00  0.00     0.091 A 
ATOM      7  N   UNL d   1      44.967 -16.662  44.297  0.00  0.00    -0.195 N 
ATOM      8  N   UNL d   1      44.911 -15.842  44.469  0.00  0.00    -0.163 NA
ATOM      9  C   UNL d   1      44.413 -17.214  44.523  0.00  0.00     0.281 C 
ATOM     10  C   UNL d   1      45.572 -15.481  44.149  0.00  0.00     0.103 A 
ATOM     11  C   UNL d   1      46.046 -16.045  43.780  0.00  0.00     0.040 A 
ATOM     12  O   UNL d   1      44.554 -18.004  44.307  0.00  0.00    -0.265 OA
ATOM     13  C   UNL d   1      43.733 -17.007  44.950  0.00  0.00     0.068 C 
BRANCH  10  14
ATOM     14  C   UNL d   1      45.765 -14.671  44.176  0.00  0.00     0.019 A 
ATOM     15  C   UNL d   1      46.158 -14.366  44.842  0.00  0.00     0.002 A 
ATOM     16  C   UNL d   1      46.357 -13.584  44.892  0.00  0.00     0.000 A 
ATOM     17  C   UNL d   1      46.169 -13.072  44.276  0.00  0.00     0.000 A 
ATOM     18  C   UNL d   1      45.779 -13.372  43.613  0.00  0.00     0.000 A 
ATOM     19  C   UNL d   1      46.362 -12.262  44.302  0.00  0.00     0.000 C 
ATOM     20  C   UNL d   1      45.577 -14.159  43.559  0.00  0.00     0.002 A 
ENDBRANCH  10  14
ENDBRANCH   1   6
BRANCH   2  21
ATOM     21  C   UNL d   1      46.350 -19.034  44.058  0.00  0.00     0.049 A 
ATOM     22  S   UNL d   1      46.486 -19.146  44.865  0.00  0.00    -0.085 SA
ATOM     23  C   UNL d   1      46.646 -19.969  44.954  0.00  0.00     0.035 A 
ATOM     24  C   UNL d   1      46.606 -20.329  44.217  0.00  0.00     0.007 A 
ATOM     25  C   UNL d   1      46.420 -19.737  43.657  0.00  0.00     0.009 A 
ENDBRANCH   2  21
BRANCH   4  26
ATOM     26  C   UNL d   1      46.382 -18.076  41.582  0.00  0.00     0.083 A 
ATOM     27  C   UNL d   1      46.454 -18.819  41.242  0.00  0.00     0.019 A 
ATOM     28  C   UNL d   1      46.585 -18.857  40.435  0.00  0.00     0.002 A 
ATOM     29  C   UNL d   1      46.647 -18.191  39.955  0.00  0.00     0.000 A 
ATOM     30  C   UNL d   1      46.571 -17.441  40.319  0.00  0.00     0.002 A 
ATOM     31  C   UNL d   1      46.441 -17.375  41.117  0.00  0.00     0.019 A 
ENDBRANCH   4  26
TORSDOF 4
ENDMDL
