MODEL 1
REMARK VINA RESULT:      61.2      0.000      0.000
REMARK  5 active torsions:
REMARK  status: ('A' for Active; 'I' for Inactive)
REMARK    1  A    between atoms: S_2  and  C_1 
REMARK    2  A    between atoms: N_3  and  C_1 
REMARK    3  A    between atoms: C_4  and  C_1 
REMARK    4  A    between atoms: C_6  and  S_2 
REMARK       I    between atoms: C_5  and  N_3 
REMARK    5  A    between atoms: C_9  and  C_5 
ROOT
ATOM      1  C   UNL d   1      60.459  48.538  50.901  0.00  0.00     0.193 C 
ENDROOT
BRANCH   1   2
ATOM      2  S   UNL d   1      60.752  47.806  50.658  0.00  0.00     0.228 S 
ATOM      3  O   UNL d   1      61.140  48.171  50.029  0.00  0.00    -0.216 OA
ATOM      4  O   UNL d   1      60.361  47.432  51.291  0.00  0.00    -0.216 OA
BRANCH   2   5
ATOM      5  C   UNL d   1      61.057  47.041  50.402  0.00  0.00     0.089 A 
ATOM      6  C   UNL d   1      61.646  47.011  49.826  0.00  0.00     0.011 A 
ATOM      7  C   UNL d   1      61.938  46.278  49.583  0.00  0.00     0.001 A 
ATOM      8  C   UNL d   1      61.641  45.578  49.915  0.00  0.00     0.000 A 
ATOM      9  C   UNL d   1      61.050  45.605  50.493  0.00  0.00     0.001 A 
ATOM     10  C   UNL d   1      61.942  44.841  49.662  0.00  0.00     0.000 C 
ATOM     11  C   UNL d   1      60.759  46.338  50.736  0.00  0.00     0.011 A 
ENDBRANCH   2   5
ENDBRANCH   1   2
BRANCH   1  12
ATOM     12  N   UNL d   1      59.668  48.682  50.902  0.00  0.00    -0.195 NA
ATOM     13  C   UNL d   1      59.349  49.272  50.420  0.00  0.00     0.280 C 
ATOM     14  O   UNL d   1      59.826  49.703  49.949  0.00  0.00    -0.265 OA
BRANCH  13  15
ATOM     15  C   UNL d   1      58.539  49.382  50.455  0.00  0.00     0.058 A 
ATOM     16  C   UNL d   1      58.111  49.277  49.778  0.00  0.00     0.005 A 
ATOM     17  C   UNL d   1      57.307  49.380  49.787  0.00  0.00     0.000 A 
ATOM     18  C   UNL d   1      56.910  49.592  50.476  0.00  0.00     0.000 A 
ATOM     19  C   UNL d   1      57.337  49.699  51.162  0.00  0.00     0.000 A 
ATOM     20  C   UNL d   1      56.059  49.705  50.501  0.00  0.00     0.000 C 
ATOM     21  C   UNL d   1      58.160  49.592  51.149  0.00  0.00     0.005 A 
ENDBRANCH  13  15
ENDBRANCH   1  12
BRANCH   1  22
ATOM     22  C   UNL d   1      60.964  49.134  51.147  0.00  0.00     0.144 C 
ATOM     23 CL   UNL d   1      61.314  49.520  50.581  0.00  0.00    -0.068 Cl
ATOM     24 CL   UNL d   1      61.080  49.301  51.995  0.00  0.00    -0.068 Cl
ENDBRANCH   1  22
TORSDOF 5
ENDMDL
