MODEL 1
REMARK VINA RESULT:      46.4      0.000      0.000
REMARK  5 active torsions:
REMARK  status: ('A' for Active; 'I' for Inactive)
REMARK    1  A    between atoms: C_4  and  C_1 
REMARK       I    between atoms: N_2  and  C_3 
REMARK    2  A    between atoms: C_6  and  N_2 
REMARK    3  A    between atoms: C_3  and  C_5 
REMARK    4  A    between atoms: C_5  and  C_7 
REMARK    5  A    between atoms: C_7  and  C_14 
ROOT
ATOM      1  C   UNL d   1     -50.294  26.808  33.307  0.00  0.00     0.062 C 
ENDROOT
BRANCH   1   2
ATOM      2  C   UNL d   1     -50.521  26.030  33.310  0.00  0.00     0.279 C 
ATOM      3  N   UNL d   1     -51.321  25.845  33.306  0.00  0.00    -0.208 NA
ATOM      4  O   UNL d   1     -49.963  25.442  33.317  0.00  0.00    -0.265 OA
BRANCH   3   5
ATOM      5  C   UNL d   1     -51.557  25.047  33.309  0.00  0.00     0.085 A 
ATOM      6  C   UNL d   1     -52.369  24.869  33.314  0.00  0.00     0.018 A 
ATOM      7  C   UNL d   1     -52.925  25.479  33.315  0.00  0.00     0.002 C 
ATOM      8  C   UNL d   1     -52.616  24.079  33.317  0.00  0.00     0.002 A 
ATOM      9  C   UNL d   1     -52.063  23.475  33.315  0.00  0.00     0.000 A 
ATOM     10  C   UNL d   1     -51.264  23.656  33.311  0.00  0.00     0.002 A 
ATOM     11  C   UNL d   1     -51.004  24.443  33.308  0.00  0.00     0.019 A 
ENDBRANCH   3   5
ENDBRANCH   1   2
BRANCH   1  12
ATOM     12  C   UNL d   1     -49.537  27.021  33.578  0.00  0.00     0.005 C 
BRANCH  12  13
ATOM     13  C   UNL d   1     -49.390  27.775  33.884  0.00  0.00     0.000 A 
ATOM     14  C   UNL d   1     -48.842  27.864  34.480  0.00  0.00     0.004 A 
ATOM     15  C   UNL d   1     -48.711  28.628  34.770  0.00  0.00     0.071 A 
ATOM     16  C   UNL d   1     -49.097  29.273  34.492  0.00  0.00     0.004 A 
ATOM     17  C   UNL d   1     -49.643  29.183  33.897  0.00  0.00    -0.000 A 
ATOM     18  C   UNL d   1     -49.796  28.452  33.590  0.00  0.00    -0.000 A 
BRANCH  15  19
ATOM     19  C   UNL d   1     -48.150  28.696  35.376  0.00  0.00     0.419 C 
ATOM     20  F   UNL d   1     -47.598  28.757  36.014  0.00  0.00    -0.166 F 
ATOM     21  F   UNL d   1     -47.586  28.935  34.861  0.00  0.00    -0.166 F 
ATOM     22  F   UNL d   1     -48.737  28.444  35.936  0.00  0.00    -0.166 F 
ENDBRANCH  15  19
ENDBRANCH  12  13
ENDBRANCH   1  12
TORSDOF 5
ENDMDL
MODEL 2
REMARK VINA RESULT:      48.8      2.407      5.151
REMARK  5 active torsions:
REMARK  status: ('A' for Active; 'I' for Inactive)
REMARK    1  A    between atoms: C_4  and  C_1 
REMARK       I    between atoms: N_2  and  C_3 
REMARK    2  A    between atoms: C_6  and  N_2 
REMARK    3  A    between atoms: C_3  and  C_5 
REMARK    4  A    between atoms: C_5  and  C_7 
REMARK    5  A    between atoms: C_7  and  C_14 
ROOT
ATOM      1  C   UNL d   1     -49.368  27.494  34.426  0.00  0.00     0.062 C 
ENDROOT
BRANCH   1   2
ATOM      2  C   UNL d   1     -48.846  28.105  34.532  0.00  0.00     0.279 C 
ATOM      3  N   UNL d   1     -48.858  28.526  35.237  0.00  0.00    -0.208 NA
ATOM      4  O   UNL d   1     -48.319  28.298  33.947  0.00  0.00    -0.265 OA
BRANCH   3   5
ATOM      5  C   UNL d   1     -48.323  29.154  35.349  0.00  0.00     0.085 A 
ATOM      6  C   UNL d   1     -47.834  29.149  36.020  0.00  0.00     0.018 A 
ATOM      7  C   UNL d   1     -47.882  28.529  36.562  0.00  0.00     0.002 C 
ATOM      8  C   UNL d   1     -47.298  29.769  36.142  0.00  0.00     0.002 A 
ATOM      9  C   UNL d   1     -47.251  30.384  35.603  0.00  0.00     0.000 A 
ATOM     10  C   UNL d   1     -47.737  30.383  34.942  0.00  0.00     0.002 A 
ATOM     11  C   UNL d   1     -48.276  29.769  34.810  0.00  0.00     0.019 A 
ENDBRANCH   3   5
ENDBRANCH   1   2
BRANCH   1  12
ATOM     12  C   UNL d   1     -49.621  27.292  33.660  0.00  0.00     0.005 C 
BRANCH  12  13
ATOM     13  C   UNL d   1     -50.308  26.847  33.541  0.00  0.00     0.000 A 
ATOM     14  C   UNL d   1     -50.263  26.035  33.540  0.00  0.00     0.004 A 
ATOM     15  C   UNL d   1     -50.962  25.610  33.420  0.00  0.00     0.071 A 
ATOM     16  C   UNL d   1     -51.673  25.962  33.306  0.00  0.00     0.004 A 
ATOM     17  C   UNL d   1     -51.718  26.774  33.307  0.00  0.00    -0.000 A 
ATOM     18  C   UNL d   1     -51.055  27.220  33.422  0.00  0.00    -0.000 A 
BRANCH  15  19
ATOM     19  C   UNL d   1     -50.893  24.784  33.423  0.00  0.00     0.419 C 
ATOM     20  F   UNL d   1     -50.852  23.939  33.427  0.00  0.00    -0.166 F 
ATOM     21  F   UNL d   1     -50.095  24.826  33.369  0.00  0.00    -0.166 F 
ATOM     22  F   UNL d   1     -51.738  24.722  33.480  0.00  0.00    -0.166 F 
ENDBRANCH  15  19
ENDBRANCH  12  13
ENDBRANCH   1  12
TORSDOF 5
ENDMDL
