MODEL 1
REMARK VINA RESULT:      -1.3      0.000      0.000
REMARK  4 active torsions:
REMARK  status: ('A' for Active; 'I' for Inactive)
REMARK    1  A    between atoms: C_10  and  C_3 
REMARK    2  A    between atoms: C_12  and  C_5 
REMARK    3  A    between atoms: C_15  and  C_12 
REMARK    4  A    between atoms: C_18  and  C_15 
ROOT
ATOM      1  C   UNL d   1     -41.606-122.034 -51.007  0.00  0.00     0.152 A 
ATOM      2  N   UNL d   1     -41.716-122.821 -51.267  0.00  0.00    -0.258 N 
ATOM      3  C   UNL d   1     -41.410-121.446 -51.549  0.00  0.00     0.056 A 
ATOM      4  C   UNL d   1     -41.627-123.007 -52.064  0.00  0.00     0.266 A 
ATOM      5  C   UNL d   1     -41.428-122.416 -52.614  0.00  0.00     0.057 A 
ATOM      6  N   UNL d   1     -41.697-121.850 -50.201  0.00  0.00    -0.227 NA
ATOM      7  C   UNL d   1     -41.319-121.629 -52.355  0.00  0.00     0.009 A 
ATOM      8  C   UNL d   1     -42.004-123.227 -49.915  0.00  0.00     0.086 A 
ATOM      9  C   UNL d   1     -41.898-122.444 -49.642  0.00  0.00     0.099 A 
ATOM     10  O   UNL d   1     -41.738-123.808 -52.328  0.00  0.00    -0.267 OA
ATOM     11  C   UNL d   1     -41.123-121.038 -52.891  0.00  0.00     0.000 C 
ATOM     12  C   UNL d   1     -42.203-123.817 -49.364  0.00  0.00     0.019 A 
ATOM     13  C   UNL d   1     -41.987-122.265 -48.852  0.00  0.00     0.021 A 
ATOM     14  C   UNL d   1     -42.289-123.617 -48.568  0.00  0.00     0.002 A 
ATOM     15  C   UNL d   1     -42.183-122.852 -48.315  0.00  0.00     0.002 A 
ENDROOT
BRANCH   5  16
ATOM     16  C   UNL d   1     -41.338-122.597 -53.415  0.00  0.00     0.005 C 
BRANCH  16  17
ATOM     17  C   UNL d   1     -41.995-122.675 -53.898  0.00  0.00     0.000 C 
BRANCH  17  18
ATOM     18  C   UNL d   1     -41.898-122.734 -54.710  0.00  0.00     0.000 C 
ATOM     19  C   UNL d   1     -42.265-122.180 -55.203  0.00  0.00     0.000 C 
ATOM     20  C   UNL d   1     -41.438-123.339 -55.033  0.00  0.00     0.000 C 
ENDBRANCH  17  18
ENDBRANCH  16  17
ENDBRANCH   5  16
BRANCH   3  21
ATOM     21  C   UNL d   1     -41.303-120.673 -51.290  0.00  0.00     0.125 C 
ATOM     22  N   UNL d   1     -41.194-120.066 -51.830  0.00  0.00    -0.146 N 
ENDBRANCH   3  21
TORSDOF 4
ENDMDL
MODEL 2
REMARK VINA RESULT:       0.9      0.837      4.041
REMARK  4 active torsions:
REMARK  status: ('A' for Active; 'I' for Inactive)
REMARK    1  A    between atoms: C_10  and  C_3 
REMARK    2  A    between atoms: C_12  and  C_5 
REMARK    3  A    between atoms: C_15  and  C_12 
REMARK    4  A    between atoms: C_18  and  C_15 
ROOT
ATOM      1  C   UNL d   1     -41.206-121.732 -52.296  0.00  0.00     0.152 A 
ATOM      2  N   UNL d   1     -41.213-122.550 -52.124  0.00  0.00    -0.258 N 
ATOM      3  C   UNL d   1     -41.179-121.183 -51.683  0.00  0.00     0.056 A 
ATOM      4  C   UNL d   1     -41.193-122.805 -51.341  0.00  0.00     0.266 A 
ATOM      5  C   UNL d   1     -41.165-122.254 -50.719  0.00  0.00     0.057 A 
ATOM      6  N   UNL d   1     -41.227-121.479 -53.088  0.00  0.00    -0.227 NA
ATOM      7  C   UNL d   1     -41.158-121.436 -50.892  0.00  0.00     0.009 A 
ATOM      8  C   UNL d   1     -41.261-122.847 -53.533  0.00  0.00     0.086 A 
ATOM      9  C   UNL d   1     -41.255-122.031 -53.719  0.00  0.00     0.099 A 
ATOM     10  O   UNL d   1     -41.200-123.638 -51.166  0.00  0.00    -0.267 OA
ATOM     11  C   UNL d   1     -41.131-120.883 -50.284  0.00  0.00     0.000 C 
ATOM     12  C   UNL d   1     -41.289-123.398 -54.155  0.00  0.00     0.019 A 
ATOM     13  C   UNL d   1     -41.275-121.784 -54.495  0.00  0.00     0.021 A 
ATOM     14  C   UNL d   1     -41.309-123.128 -54.935  0.00  0.00     0.002 A 
ATOM     15  C   UNL d   1     -41.302-122.333 -55.103  0.00  0.00     0.002 A 
ENDROOT
BRANCH   5  16
ATOM     16  C   UNL d   1     -41.145-122.505 -49.933  0.00  0.00     0.005 C 
BRANCH  16  17
ATOM     17  C   UNL d   1     -41.842-122.623 -49.518  0.00  0.00     0.000 C 
BRANCH  17  18
ATOM     18  C   UNL d   1     -41.846-123.113 -48.861  0.00  0.00     0.000 C 
ATOM     19  C   UNL d   1     -42.393-123.733 -48.821  0.00  0.00     0.000 C 
ATOM     20  C   UNL d   1     -41.309-122.991 -48.245  0.00  0.00     0.000 C 
ENDBRANCH  17  18
ENDBRANCH  16  17
ENDBRANCH   5  16
BRANCH   3  21
ATOM     21  C   UNL d   1     -41.172-120.379 -51.857  0.00  0.00     0.125 C 
ATOM     22  N   UNL d   1     -41.654-119.862 -51.443  0.00  0.00    -0.146 N 
ENDBRANCH   3  21
TORSDOF 4
ENDMDL
MODEL 3
REMARK VINA RESULT:       1.3      1.443      2.135
REMARK  4 active torsions:
REMARK  status: ('A' for Active; 'I' for Inactive)
REMARK    1  A    between atoms: C_10  and  C_3 
REMARK    2  A    between atoms: C_12  and  C_5 
REMARK    3  A    between atoms: C_15  and  C_12 
REMARK    4  A    between atoms: C_18  and  C_15 
ROOT
ATOM      1  C   UNL d   1     -42.604-122.713 -49.462  0.00  0.00     0.152 A 
ATOM      2  N   UNL d   1     -41.956-123.190 -49.688  0.00  0.00    -0.258 N 
ATOM      3  C   UNL d   1     -43.067-122.349 -50.036  0.00  0.00     0.056 A 
ATOM      4  C   UNL d   1     -41.782-123.295 -50.486  0.00  0.00     0.266 A 
ATOM      5  C   UNL d   1     -42.248-122.930 -51.070  0.00  0.00     0.057 A 
ATOM      6  N   UNL d   1     -42.776-122.609 -48.655  0.00  0.00    -0.227 NA
ATOM      7  C   UNL d   1     -42.895-122.452 -50.843  0.00  0.00     0.009 A 
ATOM      8  C   UNL d   1     -41.664-123.451 -48.302  0.00  0.00     0.086 A 
ATOM      9  C   UNL d   1     -42.309-122.977 -48.062  0.00  0.00     0.099 A 
ATOM     10  O   UNL d   1     -41.123-123.781 -50.716  0.00  0.00    -0.267 OA
ATOM     11  C   UNL d   1     -43.362-122.086 -51.413  0.00  0.00     0.000 C 
ATOM     12  C   UNL d   1     -41.199-123.817 -47.717  0.00  0.00     0.019 A 
ATOM     13  C   UNL d   1     -42.477-122.876 -47.270  0.00  0.00     0.021 A 
ATOM     14  C   UNL d   1     -41.385-123.703 -46.921  0.00  0.00     0.002 A 
ATOM     15  C   UNL d   1     -42.014-123.239 -46.701  0.00  0.00     0.002 A 
ENDROOT
BRANCH   5  16
ATOM     16  C   UNL d   1     -42.078-123.032 -51.871  0.00  0.00     0.005 C 
BRANCH  16  17
ATOM     17  C   UNL d   1     -41.421-122.671 -52.204  0.00  0.00     0.000 C 
BRANCH  17  18
ATOM     18  C   UNL d   1     -41.387-122.558 -53.016  0.00  0.00     0.000 C 
ATOM     19  C   UNL d   1     -41.200-121.809 -53.313  0.00  0.00     0.000 C 
ATOM     20  C   UNL d   1     -41.538-123.185 -53.532  0.00  0.00     0.000 C 
ENDBRANCH  17  18
ENDBRANCH  16  17
ENDBRANCH   5  16
BRANCH   3  21
ATOM     21  C   UNL d   1     -43.704-121.880 -49.810  0.00  0.00     0.125 C 
ATOM     22  N   UNL d   1     -44.406-121.902 -50.232  0.00  0.00    -0.146 N 
ENDBRANCH   3  21
TORSDOF 4
ENDMDL
