MODEL 1
REMARK VINA RESULT:      64.3      0.000      0.000
REMARK  5 active torsions:
REMARK  status: ('A' for Active; 'I' for Inactive)
REMARK    1  A    between atoms: C_11  and  C_2 
REMARK    2  A    between atoms: N_3  and  C_5 
REMARK       I    between atoms: C_6  and  N_3 
REMARK    3  A    between atoms: C_5  and  N_12 
REMARK    4  A    between atoms: C_7  and  C_6 
REMARK    5  A    between atoms: N_12  and  C_20 
ROOT
ATOM      1  C   UNL d   1     -48.973  27.762  34.491  0.00  0.00     0.041 A 
ATOM      2  C   UNL d   1     -49.536  27.335  34.927  0.00  0.00     0.005 A 
ATOM      3  C   UNL d   1     -48.843  27.597  33.702  0.00  0.00     0.005 A 
ATOM      4  C   UNL d   1     -49.841  26.561  33.751  0.00  0.00     0.084 A 
ATOM      5  C   UNL d   1     -49.967  26.735  34.549  0.00  0.00     0.019 A 
ATOM      6  C   UNL d   1     -49.267  27.009  33.340  0.00  0.00     0.019 A 
ENDROOT
BRANCH   4   7
ATOM      7  N   UNL d   1     -50.270  25.963  33.375  0.00  0.00    -0.217 NA
BRANCH   7   8
ATOM      8  C   UNL d   1     -51.090  25.966  33.402  0.00  0.00     0.224 C 
ATOM      9  S   UNL d   1     -51.485  26.672  33.495  0.00  0.00    -0.037 SA
BRANCH   8  10
ATOM     10  N   UNL d   1     -51.493  25.267  33.337  0.00  0.00    -0.178 NA
ATOM     11  C   UNL d   1     -52.130  25.110  33.849  0.00  0.00     0.287 C 
ATOM     12  O   UNL d   1     -52.346  25.665  34.416  0.00  0.00    -0.265 OA
BRANCH  11  13
ATOM     13  C   UNL d   1     -52.557  24.418  33.810  0.00  0.00     0.087 A 
ATOM     14  S   UNL d   1     -52.334  23.758  33.349  0.00  0.00    -0.082 SA
ATOM     15  C   UNL d   1     -52.900  23.188  33.463  0.00  0.00     0.036 A 
ATOM     16  C   UNL d   1     -53.487  23.486  33.998  0.00  0.00     0.008 A 
ATOM     17  C   UNL d   1     -53.279  24.228  34.207  0.00  0.00     0.012 A 
ENDBRANCH  11  13
ENDBRANCH   8  10
ENDBRANCH   7   8
ENDBRANCH   4   7
BRANCH   1  18
ATOM     18  C   UNL d   1     -48.540  28.366  34.870  0.00  0.00     0.182 A 
ATOM     19  N   UNL d   1     -48.164  28.354  35.600  0.00  0.00    -0.220 NA
ATOM     20  C   UNL d   1     -47.816  29.105  35.706  0.00  0.00     0.106 A 
ATOM     21  C   UNL d   1     -47.990  29.554  35.036  0.00  0.00     0.119 A 
ATOM     22  C   UNL d   1     -47.380  29.419  36.308  0.00  0.00     0.021 A 
ATOM     23  C   UNL d   1     -47.726  30.319  34.969  0.00  0.00     0.026 A 
ATOM     24  O   UNL d   1     -48.443  29.077  34.524  0.00  0.00    -0.288 OA
ATOM     25  C   UNL d   1     -47.280  30.648  35.580  0.00  0.00     0.002 A 
ATOM     26  C   UNL d   1     -47.106  30.200  36.250  0.00  0.00     0.002 A 
ENDBRANCH   1  18
TORSDOF 5
ENDMDL
MODEL 2
REMARK VINA RESULT:      66.0      2.222      6.323
REMARK  5 active torsions:
REMARK  status: ('A' for Active; 'I' for Inactive)
REMARK    1  A    between atoms: C_11  and  C_2 
REMARK    2  A    between atoms: N_3  and  C_5 
REMARK       I    between atoms: C_6  and  N_3 
REMARK    3  A    between atoms: C_5  and  N_12 
REMARK    4  A    between atoms: C_7  and  C_6 
REMARK    5  A    between atoms: N_12  and  C_20 
ROOT
ATOM      1  C   UNL d   1     -49.526  27.480  34.137  0.00  0.00     0.041 A 
ATOM      2  C   UNL d   1     -48.900  27.230  34.621  0.00  0.00     0.005 A 
ATOM      3  C   UNL d   1     -49.555  28.246  33.854  0.00  0.00     0.005 A 
ATOM      4  C   UNL d   1     -48.322  28.547  34.534  0.00  0.00     0.084 A 
ATOM      5  C   UNL d   1     -48.300  27.770  34.816  0.00  0.00     0.019 A 
ATOM      6  C   UNL d   1     -48.967  28.767  34.048  0.00  0.00     0.019 A 
ENDROOT
BRANCH   4   7
ATOM      7  N   UNL d   1     -47.726  29.085  34.728  0.00  0.00    -0.217 NA
BRANCH   7   8
ATOM      8  C   UNL d   1     -47.912  29.782  35.117  0.00  0.00     0.224 C 
ATOM      9  S   UNL d   1     -48.053  29.767  35.919  0.00  0.00    -0.037 SA
BRANCH   8  10
ATOM     10  N   UNL d   1     -47.952  30.473  34.698  0.00  0.00    -0.178 NA
ATOM     11  C   UNL d   1     -47.549  31.147  34.977  0.00  0.00     0.287 C 
ATOM     12  O   UNL d   1     -47.115  31.106  35.674  0.00  0.00    -0.265 OA
BRANCH  11  13
ATOM     13  C   UNL d   1     -47.568  31.857  34.580  0.00  0.00     0.087 A 
ATOM     14  S   UNL d   1     -48.245  32.342  34.523  0.00  0.00    -0.082 SA
ATOM     15  C   UNL d   1     -48.034  32.993  34.086  0.00  0.00     0.036 A 
ATOM     16  C   UNL d   1     -47.219  32.923  33.864  0.00  0.00     0.008 A 
ATOM     17  C   UNL d   1     -46.938  32.237  34.162  0.00  0.00     0.012 A 
ENDBRANCH  11  13
ENDBRANCH   8  10
ENDBRANCH   7   8
ENDBRANCH   4   7
BRANCH   1  18
ATOM     18  C   UNL d   1     -50.128  26.937  33.941  0.00  0.00     0.182 A 
ATOM     19  N   UNL d   1     -50.080  26.124  33.838  0.00  0.00    -0.220 NA
ATOM     20  C   UNL d   1     -50.848  25.857  33.647  0.00  0.00     0.106 A 
ATOM     21  C   UNL d   1     -51.343  26.517  33.640  0.00  0.00     0.119 A 
ATOM     22  C   UNL d   1     -51.141  25.124  33.487  0.00  0.00     0.021 A 
ATOM     23  C   UNL d   1     -52.134  26.441  33.472  0.00  0.00     0.026 A 
ATOM     24  O   UNL d   1     -50.877  27.184  33.826  0.00  0.00    -0.288 OA
ATOM     25  C   UNL d   1     -52.441  25.694  33.307  0.00  0.00     0.002 A 
ATOM     26  C   UNL d   1     -51.947  25.034  33.314  0.00  0.00     0.002 A 
ENDBRANCH   1  18
TORSDOF 5
ENDMDL
