MODEL 1
REMARK VINA RESULT:      -3.2      0.000      0.000
REMARK  5 active torsions:
REMARK  status: ('A' for Active; 'I' for Inactive)
REMARK    1  A    between atoms: S_2  and  C_1 
REMARK    2  A    between atoms: N_3  and  C_1 
REMARK    3  A    between atoms: C_4  and  C_1 
REMARK    4  A    between atoms: C_6  and  S_2 
REMARK       I    between atoms: C_5  and  N_3 
REMARK    5  A    between atoms: C_9  and  C_5 
ROOT
ATOM      1  C   UNL d   1      32.263  17.692 -23.996  0.00  0.00     0.193 C 
ENDROOT
BRANCH   1   2
ATOM      2  S   UNL d   1      31.501  17.384 -24.066  0.00  0.00     0.228 S 
ATOM      3  O   UNL d   1      31.640  16.895 -23.417  0.00  0.00    -0.216 OA
ATOM      4  O   UNL d   1      31.355  17.876 -24.721  0.00  0.00    -0.216 OA
BRANCH   2   5
ATOM      5  C   UNL d   1      30.705  17.062 -24.138  0.00  0.00     0.089 A 
ATOM      6  C   UNL d   1      30.553  16.292 -23.884  0.00  0.00     0.011 A 
ATOM      7  C   UNL d   1      29.791  15.985 -23.953  0.00  0.00     0.001 A 
ATOM      8  C   UNL d   1      29.181  16.447 -24.276  0.00  0.00     0.000 A 
ATOM      9  C   UNL d   1      29.330  17.219 -24.531  0.00  0.00     0.001 A 
ATOM     10  C   UNL d   1      28.412  16.127 -24.342  0.00  0.00     0.000 C 
ATOM     11  C   UNL d   1      30.092  17.526 -24.462  0.00  0.00     0.011 A 
ENDBRANCH   2   5
ENDBRANCH   1   2
BRANCH   1  12
ATOM     12  N   UNL d   1      32.383  18.416 -23.665  0.00  0.00    -0.195 NA
ATOM     13  C   UNL d   1      32.862  18.499 -22.998  0.00  0.00     0.280 C 
ATOM     14  O   UNL d   1      33.210  17.857 -22.675  0.00  0.00    -0.265 OA
BRANCH  13  15
ATOM     15  C   UNL d   1      32.953  19.255 -22.698  0.00  0.00     0.058 A 
ATOM     16  C   UNL d   1      33.075  19.859 -23.221  0.00  0.00     0.005 A 
ATOM     17  C   UNL d   1      33.169  20.617 -22.948  0.00  0.00     0.000 A 
ATOM     18  C   UNL d   1      33.143  20.789 -22.144  0.00  0.00     0.000 A 
ATOM     19  C   UNL d   1      33.021  20.183 -21.613  0.00  0.00     0.000 A 
ATOM     20  C   UNL d   1      33.241  21.586 -21.840  0.00  0.00     0.000 C 
ATOM     21  C   UNL d   1      32.925  19.408 -21.896  0.00  0.00     0.005 A 
ENDBRANCH  13  15
ENDBRANCH   1  12
BRANCH   1  22
ATOM     22  C   UNL d   1      32.915  17.272 -24.259  0.00  0.00     0.144 C 
ATOM     23 CL   UNL d   1      33.210  17.511 -24.929  0.00  0.00    -0.068 Cl
ATOM     24 CL   UNL d   1      33.235  16.605 -23.796  0.00  0.00    -0.068 Cl
ENDBRANCH   1  22
TORSDOF 5
ENDMDL
MODEL 2
REMARK VINA RESULT:      -2.8      0.709      4.305
REMARK  5 active torsions:
REMARK  status: ('A' for Active; 'I' for Inactive)
REMARK    1  A    between atoms: S_2  and  C_1 
REMARK    2  A    between atoms: N_3  and  C_1 
REMARK    3  A    between atoms: C_4  and  C_1 
REMARK    4  A    between atoms: C_6  and  S_2 
REMARK       I    between atoms: C_5  and  N_3 
REMARK    5  A    between atoms: C_9  and  C_5 
ROOT
ATOM      1  C   UNL d   1      32.470  17.890 -23.869  0.00  0.00     0.193 C 
ENDROOT
BRANCH   1   2
ATOM      2  S   UNL d   1      32.623  18.560 -23.413  0.00  0.00     0.228 S 
ATOM      3  O   UNL d   1      32.577  18.104 -22.728  0.00  0.00    -0.216 OA
ATOM      4  O   UNL d   1      32.670  19.026 -24.101  0.00  0.00    -0.216 OA
BRANCH   2   5
ATOM      5  C   UNL d   1      32.782  19.260 -22.935  0.00  0.00     0.089 A 
ATOM      6  C   UNL d   1      32.822  19.191 -22.114  0.00  0.00     0.011 A 
ATOM      7  C   UNL d   1      32.974  19.862 -21.658  0.00  0.00     0.001 A 
ATOM      8  C   UNL d   1      33.086  20.599 -22.022  0.00  0.00     0.000 A 
ATOM      9  C   UNL d   1      33.046  20.671 -22.845  0.00  0.00     0.001 A 
ATOM     10  C   UNL d   1      33.240  21.273 -21.552  0.00  0.00     0.000 C 
ATOM     11  C   UNL d   1      32.894  20.001 -23.301  0.00  0.00     0.011 A 
ENDBRANCH   2   5
ENDBRANCH   1   2
BRANCH   1  12
ATOM     12  N   UNL d   1      31.801  17.459 -23.751  0.00  0.00    -0.195 NA
ATOM     13  C   UNL d   1      31.219  17.421 -24.335  0.00  0.00     0.280 C 
ATOM     14  O   UNL d   1      31.317  17.814 -25.022  0.00  0.00    -0.265 OA
BRANCH  13  15
ATOM     15  C   UNL d   1      30.556  16.970 -24.169  0.00  0.00     0.058 A 
ATOM     16  C   UNL d   1      29.831  17.281 -24.345  0.00  0.00     0.005 A 
ATOM     17  C   UNL d   1      29.159  16.855 -24.190  0.00  0.00     0.000 A 
ATOM     18  C   UNL d   1      29.197  16.104 -23.856  0.00  0.00     0.000 A 
ATOM     19  C   UNL d   1      29.925  15.785 -23.677  0.00  0.00     0.000 A 
ATOM     20  C   UNL d   1      28.495  15.639 -23.686  0.00  0.00     0.000 C 
ATOM     21  C   UNL d   1      30.611  16.226 -23.837  0.00  0.00     0.005 A 
ENDBRANCH  13  15
ENDBRANCH   1  12
BRANCH   1  22
ATOM     22  C   UNL d   1      32.993  17.646 -24.450  0.00  0.00     0.144 C 
ATOM     23 CL   UNL d   1      33.241  16.921 -24.384  0.00  0.00    -0.068 Cl
ATOM     24 CL   UNL d   1      33.236  18.188 -25.090  0.00  0.00    -0.068 Cl
ENDBRANCH   1  22
TORSDOF 5
ENDMDL
MODEL 3
REMARK VINA RESULT:      -1.0      3.798      5.455
REMARK  5 active torsions:
REMARK  status: ('A' for Active; 'I' for Inactive)
REMARK    1  A    between atoms: S_2  and  C_1 
REMARK    2  A    between atoms: N_3  and  C_1 
REMARK    3  A    between atoms: C_4  and  C_1 
REMARK    4  A    between atoms: C_6  and  S_2 
REMARK       I    between atoms: C_5  and  N_3 
REMARK    5  A    between atoms: C_9  and  C_5 
ROOT
ATOM      1  C   UNL d   1      32.614  22.332 -21.153  0.00  0.00     0.193 C 
ENDROOT
BRANCH   1   2
ATOM      2  S   UNL d   1      32.717  21.607 -21.532  0.00  0.00     0.228 S 
ATOM      3  O   UNL d   1      32.547  21.962 -22.256  0.00  0.00    -0.216 OA
ATOM      4  O   UNL d   1      32.889  21.242 -20.804  0.00  0.00    -0.216 OA
BRANCH   2   5
ATOM      5  C   UNL d   1      32.824  20.849 -21.930  0.00  0.00     0.089 A 
ATOM      6  C   UNL d   1      32.954  20.169 -21.482  0.00  0.00     0.011 A 
ATOM      7  C   UNL d   1      33.056  19.445 -21.864  0.00  0.00     0.001 A 
ATOM      8  C   UNL d   1      33.029  19.402 -22.693  0.00  0.00     0.000 A 
ATOM      9  C   UNL d   1      32.898  20.082 -23.144  0.00  0.00     0.001 A 
ATOM     10  C   UNL d   1      33.133  18.664 -23.071  0.00  0.00     0.000 C 
ATOM     11  C   UNL d   1      32.796  20.806 -22.762  0.00  0.00     0.011 A 
ENDBRANCH   2   5
ENDBRANCH   1   2
BRANCH   1  12
ATOM     12  N   UNL d   1      32.630  22.379 -20.349  0.00  0.00    -0.195 NA
ATOM     13  C   UNL d   1      32.877  23.071 -19.975  0.00  0.00     0.280 C 
ATOM     14  O   UNL d   1      33.103  23.701 -20.409  0.00  0.00    -0.265 OA
BRANCH  13  15
ATOM     15  C   UNL d   1      32.876  23.071 -19.156  0.00  0.00     0.058 A 
ATOM     16  C   UNL d   1      32.501  23.678 -18.776  0.00  0.00     0.005 A 
ATOM     17  C   UNL d   1      32.486  23.701 -17.967  0.00  0.00     0.000 A 
ATOM     18  C   UNL d   1      32.847  23.115 -17.515  0.00  0.00     0.000 A 
ATOM     19  C   UNL d   1      33.227  22.501 -17.893  0.00  0.00     0.000 A 
ATOM     20  C   UNL d   1      32.840  23.125 -16.656  0.00  0.00     0.000 C 
ATOM     21  C   UNL d   1      33.240  22.481 -18.723  0.00  0.00     0.005 A 
ENDBRANCH  13  15
ENDBRANCH   1  12
BRANCH   1  22
ATOM     22  C   UNL d   1      32.494  23.020 -21.580  0.00  0.00     0.144 C 
ATOM     23 CL   UNL d   1      31.774  23.291 -21.567  0.00  0.00    -0.068 Cl
ATOM     24 CL   UNL d   1      33.150  23.399 -22.012  0.00  0.00    -0.068 Cl
ENDBRANCH   1  22
TORSDOF 5
ENDMDL
