MODEL 1
REMARK VINA RESULT:      -5.6      0.000      0.000
REMARK  3 active torsions:
REMARK  status: ('A' for Active; 'I' for Inactive)
REMARK    1  A    between atoms: N_2  and  S_1 
REMARK    2  A    between atoms: C_3  and  S_1 
REMARK    3  A    between atoms: C_11  and  C_6 
ROOT
ATOM      1  C   UNL d   1      57.327   0.042  31.321  0.00  0.00     0.104 A 
ATOM      2  C   UNL d   1      56.199  -0.280  32.495  0.00  0.00     0.000 A 
ATOM      3  C   UNL d   1      56.976   0.659  31.739  0.00  0.00     0.013 A 
ATOM      4  C   UNL d   1      57.114  -0.736  31.489  0.00  0.00     0.013 A 
ATOM      5  C   UNL d   1      56.552  -0.897  32.074  0.00  0.00     0.001 A 
ATOM      6  C   UNL d   1      56.414   0.498  32.324  0.00  0.00     0.001 A 
ENDROOT
BRANCH   1   7
ATOM      7  S   UNL d   1      57.887   0.201  30.738  0.00  0.00     0.271 S 
ATOM      8  O   UNL d   1      57.458  -0.252  30.203  0.00  0.00    -0.200 OA
ATOM      9  O   UNL d   1      58.321   0.660  31.281  0.00  0.00    -0.200 OA
BRANCH   7  10
ATOM     10  N   UNL d   1      58.447   0.361  30.155  0.00  0.00    -0.229 N 
ATOM     11  C   UNL d   1      58.210   0.508  29.396  0.00  0.00     0.092 A 
ATOM     12  C   UNL d   1      58.783   0.671  28.799  0.00  0.00     0.020 A 
ATOM     13  C   UNL d   1      59.574   0.682  28.983  0.00  0.00     0.003 A 
ATOM     14  C   UNL d   1      59.810   0.531  29.762  0.00  0.00     0.020 A 
ATOM     15  C   UNL d   1      59.264   0.375  30.331  0.00  0.00     0.092 A 
ENDBRANCH   7  10
ENDBRANCH   1   7
BRANCH   2  16
ATOM     16  C   UNL d   1      55.641  -0.439  33.075  0.00  0.00     0.000 C 
ATOM     17  C   UNL d   1      55.274   0.180  33.469  0.00  0.00     0.000 C 
ATOM     18  C   UNL d   1      55.448  -1.218  33.265  0.00  0.00     0.000 C 
ENDBRANCH   2  16
TORSDOF 3
ENDMDL
MODEL 2
REMARK VINA RESULT:      -4.8      1.640      4.130
REMARK  3 active torsions:
REMARK  status: ('A' for Active; 'I' for Inactive)
REMARK    1  A    between atoms: N_2  and  S_1 
REMARK    2  A    between atoms: C_3  and  S_1 
REMARK    3  A    between atoms: C_11  and  C_6 
ROOT
ATOM      1  C   UNL d   1      56.894   0.072  32.033  0.00  0.00     0.104 A 
ATOM      2  C   UNL d   1      57.801  -0.234  30.676  0.00  0.00     0.000 A 
ATOM      3  C   UNL d   1      57.307   0.682  31.663  0.00  0.00     0.013 A 
ATOM      4  C   UNL d   1      56.935  -0.691  31.724  0.00  0.00     0.013 A 
ATOM      5  C   UNL d   1      57.387  -0.844  31.048  0.00  0.00     0.001 A 
ATOM      6  C   UNL d   1      57.758   0.530  30.987  0.00  0.00     0.001 A 
ENDROOT
BRANCH   1   7
ATOM      7  S   UNL d   1      56.444   0.224  32.705  0.00  0.00     0.271 S 
ATOM      8  O   UNL d   1      55.864   0.571  32.238  0.00  0.00    -0.200 OA
ATOM      9  O   UNL d   1      57.033  -0.128  33.178  0.00  0.00    -0.200 OA
BRANCH   7  10
ATOM     10  N   UNL d   1      55.994   0.376  33.379  0.00  0.00    -0.229 N 
ATOM     11  C   UNL d   1      56.360   0.527  34.084  0.00  0.00     0.092 A 
ATOM     12  C   UNL d   1      55.900   0.682  34.773  0.00  0.00     0.020 A 
ATOM     13  C   UNL d   1      55.089   0.681  34.733  0.00  0.00     0.003 A 
ATOM     14  C   UNL d   1      54.720   0.526  34.007  0.00  0.00     0.020 A 
ATOM     15  C   UNL d   1      55.159   0.378  33.351  0.00  0.00     0.092 A 
ENDBRANCH   7  10
ENDBRANCH   1   7
BRANCH   2  16
ATOM     16  C   UNL d   1      58.249  -0.385  30.006  0.00  0.00     0.000 C 
ATOM     17  C   UNL d   1      58.501  -1.150  29.847  0.00  0.00     0.000 C 
ATOM     18  C   UNL d   1      58.449   0.228  29.491  0.00  0.00     0.000 C 
ENDBRANCH   2  16
TORSDOF 3
ENDMDL
MODEL 3
REMARK VINA RESULT:      -4.7      1.130      3.976
REMARK  3 active torsions:
REMARK  status: ('A' for Active; 'I' for Inactive)
REMARK    1  A    between atoms: N_2  and  S_1 
REMARK    2  A    between atoms: C_3  and  S_1 
REMARK    3  A    between atoms: C_11  and  C_6 
ROOT
ATOM      1  C   UNL d   1      57.492  -0.077  31.044  0.00  0.00     0.104 A 
ATOM      2  C   UNL d   1      58.576  -0.013  29.789  0.00  0.00     0.000 A 
ATOM      3  C   UNL d   1      57.765   0.650  30.768  0.00  0.00     0.013 A 
ATOM      4  C   UNL d   1      57.761  -0.772  30.693  0.00  0.00     0.013 A 
ATOM      5  C   UNL d   1      58.302  -0.740  30.067  0.00  0.00     0.001 A 
ATOM      6  C   UNL d   1      58.305   0.682  30.142  0.00  0.00     0.001 A 
ENDROOT
BRANCH   1   7
ATOM      7  S   UNL d   1      56.955  -0.108  31.667  0.00  0.00     0.271 S 
ATOM      8  O   UNL d   1      57.266   0.589  31.971  0.00  0.00    -0.200 OA
ATOM      9  O   UNL d   1      56.639  -0.815  31.358  0.00  0.00    -0.200 OA
BRANCH   7  10
ATOM     10  N   UNL d   1      56.416  -0.140  32.291  0.00  0.00    -0.229 N 
ATOM     11  C   UNL d   1      56.073   0.540  32.563  0.00  0.00     0.092 A 
ATOM     12  C   UNL d   1      55.522   0.508  33.201  0.00  0.00     0.020 A 
ATOM     13  C   UNL d   1      55.334  -0.204  33.544  0.00  0.00     0.003 A 
ATOM     14  C   UNL d   1      55.689  -0.896  33.260  0.00  0.00     0.020 A 
ATOM     15  C   UNL d   1      56.214  -0.865  32.652  0.00  0.00     0.092 A 
ENDBRANCH   7  10
ENDBRANCH   1   7
BRANCH   2  16
ATOM     16  C   UNL d   1      59.112   0.018  29.168  0.00  0.00     0.000 C 
ATOM     17  C   UNL d   1      58.943   0.472  28.505  0.00  0.00     0.000 C 
ATOM     18  C   UNL d   1      59.819  -0.404  29.207  0.00  0.00     0.000 C 
ENDBRANCH   2  16
TORSDOF 3
ENDMDL
