MODEL 1
REMARK VINA RESULT:      -1.4      0.000      0.000
REMARK  5 active torsions:
REMARK  status: ('A' for Active; 'I' for Inactive)
REMARK    1  A    between atoms: O_4  and  C_1 
REMARK    2  A    between atoms: C_10  and  C_2 
REMARK    3  A    between atoms: C_5  and  O_4 
REMARK    4  A    between atoms: C_7  and  C_5 
REMARK    5  A    between atoms: N_12  and  C_10 
ROOT
ATOM      1  C   UNL d   1      33.055  21.829 -21.855  0.00  0.00     0.122 A 
ATOM      2  C   UNL d   1      33.007  22.212 -22.587  0.00  0.00     0.043 A 
ATOM      3  C   UNL d   1      33.113  21.004 -21.827  0.00  0.00     0.105 A 
ATOM      4  C   UNL d   1      33.123  20.566 -22.526  0.00  0.00     0.030 A 
ATOM      5  C   UNL d   1      33.075  20.955 -23.248  0.00  0.00     0.059 A 
ATOM      6  C   UNL d   1      33.016  21.774 -23.285  0.00  0.00     0.015 A 
ATOM      7  N   UNL d   1      33.161  20.626 -21.099  0.00  0.00    -0.242 NA
ATOM      8 CL   UNL d   1      33.087  20.488 -23.943  0.00  0.00    -0.082 Cl
ATOM      9  C   UNL d   1      33.181  19.753 -22.492  0.00  0.00     0.004 A 
ATOM     10  C   UNL d   1      33.220  19.802 -21.071  0.00  0.00     0.099 A 
ATOM     11  C   UNL d   1      33.229  19.364 -21.770  0.00  0.00     0.021 A 
ENDROOT
BRANCH   1  12
ATOM     12  O   UNL d   1      33.047  22.217 -21.216  0.00  0.00    -0.271 OA
BRANCH  12  13
ATOM     13  C   UNL d   1      32.430  22.577 -20.565  0.00  0.00     0.306 C 
ATOM     14  O   UNL d   1      31.466  22.557 -20.857  0.00  0.00    -0.258 OA
BRANCH  13  15
ATOM     15  C   UNL d   1      32.693  22.871 -19.840  0.00  0.00     0.093 A 
ATOM     16  S   UNL d   1      32.729  23.661 -19.632  0.00  0.00    -0.081 SA
ATOM     17  C   UNL d   1      33.034  23.694 -18.836  0.00  0.00     0.036 A 
ATOM     18  C   UNL d   1      33.171  22.923 -18.590  0.00  0.00     0.008 A 
ATOM     19  C   UNL d   1      32.954  22.413 -19.228  0.00  0.00     0.012 A 
ENDBRANCH  13  15
ENDBRANCH  12  13
ENDBRANCH   1  12
BRANCH   2  20
ATOM     20  C   UNL d   1      32.938  23.092 -22.815  0.00  0.00     0.082 C 
BRANCH  20  21
ATOM     21  N   UNL d   1      32.686  23.296 -23.571  0.00  0.00    -0.299 N 
ATOM     22  C   UNL d   1      31.903  23.475 -23.712  0.00  0.00     0.107 A 
ATOM     23  C   UNL d   1      31.649  23.678 -24.465  0.00  0.00     0.142 A 
ATOM     24  O   UNL d   1      32.198  23.700 -25.088  0.00  0.00    -0.300 OA
ATOM     25  C   UNL d   1      32.984  23.521 -24.954  0.00  0.00     0.142 A 
ATOM     26  C   UNL d   1      33.224  23.318 -24.187  0.00  0.00     0.107 A 
ENDBRANCH  20  21
ENDBRANCH   2  20
TORSDOF 5
ENDMDL
