MODEL 1
REMARK VINA RESULT:      -7.1      0.000      0.000
REMARK  6 active torsions:
REMARK  status: ('A' for Active; 'I' for Inactive)
REMARK    1  A    between atoms: C_7  and  S_1 
REMARK    2  A    between atoms: N_18  and  S_1 
REMARK    3  A    between atoms: C_6  and  C_4 
REMARK    4  A    between atoms: C_9  and  C_24 
REMARK    5  A    between atoms: C_26  and  N_18 
REMARK    6  A    between atoms: C_24  and  C_26 
ROOT
ATOM      1  S   UNL d   1     -48.977  12.259  22.323  0.00  0.00     0.285 S 
ATOM      2  O   UNL d   1     -48.472  11.710  21.972  0.00  0.00    -0.198 OA
ATOM      3  O   UNL d   1     -49.479  12.198  21.676  0.00  0.00    -0.198 OA
ENDROOT
BRANCH   1   4
ATOM      4  C   UNL d   1     -49.485  12.805  22.666  0.00  0.00     0.105 A 
ATOM      5  C   UNL d   1     -49.376  13.612  22.531  0.00  0.00     0.019 A 
ATOM      6  C   UNL d   1     -49.881  14.157  22.871  0.00  0.00     0.100 A 
ATOM      7  C   UNL d   1     -50.503  13.901  23.352  0.00  0.00     0.144 A 
ATOM      8  C   UNL d   1     -50.612  13.099  23.487  0.00  0.00     0.030 A 
ATOM      9  F   UNL d   1     -51.014  14.442  23.698  0.00  0.00    -0.204 F 
ATOM     10  C   UNL d   1     -50.107  12.549  23.146  0.00  0.00     0.015 A 
BRANCH   6  11
ATOM     11  C   UNL d   1     -49.771  14.956  22.736  0.00  0.00     0.421 C 
ATOM     12  F   UNL d   1     -49.676  15.691  22.606  0.00  0.00    -0.166 F 
ATOM     13  F   UNL d   1     -49.214  15.500  23.101  0.00  0.00    -0.166 F 
ATOM     14  F   UNL d   1     -50.188  15.473  22.186  0.00  0.00    -0.166 F 
ENDBRANCH   6  11
ENDBRANCH   1   4
BRANCH   1  15
ATOM     15  N   UNL d   1     -48.464  12.313  22.969  0.00  0.00    -0.157 NA
BRANCH  15  16
ATOM     16  C   UNL d   1     -47.784  11.876  22.991  0.00  0.00     0.114 C 
BRANCH  16  17
ATOM     17  C   UNL d   1     -47.190  12.053  23.544  0.00  0.00     0.042 C 
BRANCH  17  18
ATOM     18  C   UNL d   1     -46.462  11.636  23.512  0.00  0.00     0.102 A 
ATOM     19  N   UNL d   1     -45.743  11.947  23.296  0.00  0.00    -0.227 NA
ATOM     20  C   UNL d   1     -45.171  11.352  23.340  0.00  0.00     0.148 A 
ATOM     21  C   UNL d   1     -44.363  11.352  23.186  0.00  0.00     0.037 A 
ATOM     22  N   UNL d   1     -45.543  10.664  23.586  0.00  0.00    -0.288 N 
ATOM     23  C   UNL d   1     -43.931  10.661  23.281  0.00  0.00     0.004 A 
ATOM     24  C   UNL d   1     -43.120  10.664  23.127  0.00  0.00     0.000 C 
ATOM     25  C   UNL d   1     -44.290   9.967  23.527  0.00  0.00     0.019 A 
ATOM     26  C   UNL d   1     -45.107   9.970  23.681  0.00  0.00     0.082 A 
ATOM     27  C   UNL d   1     -46.350  10.829  23.697  0.00  0.00     0.101 A 
ENDBRANCH  17  18
ENDBRANCH  16  17
ENDBRANCH  15  16
ENDBRANCH   1  15
TORSDOF 6
ENDMDL
MODEL 2
REMARK VINA RESULT:      -6.7      1.443      1.887
REMARK  6 active torsions:
REMARK  status: ('A' for Active; 'I' for Inactive)
REMARK    1  A    between atoms: C_7  and  S_1 
REMARK    2  A    between atoms: N_18  and  S_1 
REMARK    3  A    between atoms: C_6  and  C_4 
REMARK    4  A    between atoms: C_9  and  C_24 
REMARK    5  A    between atoms: C_26  and  N_18 
REMARK    6  A    between atoms: C_24  and  C_26 
ROOT
ATOM      1  S   UNL d   1     -49.140  11.666  23.245  0.00  0.00     0.285 S 
ATOM      2  O   UNL d   1     -48.664  11.012  23.403  0.00  0.00    -0.198 OA
ATOM      3  O   UNL d   1     -49.761  11.160  23.064  0.00  0.00    -0.198 OA
ENDROOT
BRANCH   1   4
ATOM      4  C   UNL d   1     -49.620  12.312  23.086  0.00  0.00     0.105 A 
ATOM      5  C   UNL d   1     -49.691  12.593  22.313  0.00  0.00     0.019 A 
ATOM      6  C   UNL d   1     -50.169  13.237  22.152  0.00  0.00     0.100 A 
ATOM      7  C   UNL d   1     -50.582  13.609  22.765  0.00  0.00     0.144 A 
ATOM      8  C   UNL d   1     -50.512  13.330  23.533  0.00  0.00     0.030 A 
ATOM      9  F   UNL d   1     -51.063  14.256  22.611  0.00  0.00    -0.204 F 
ATOM     10  C   UNL d   1     -50.033  12.684  23.698  0.00  0.00     0.015 A 
BRANCH   6  11
ATOM     11  C   UNL d   1     -50.238  13.513  21.386  0.00  0.00     0.421 C 
ATOM     12  F   UNL d   1     -50.293  13.770  20.680  0.00  0.00    -0.166 F 
ATOM     13  F   UNL d   1     -50.902  13.459  20.842  0.00  0.00    -0.166 F 
ATOM     14  F   UNL d   1     -49.656  13.938  20.910  0.00  0.00    -0.166 F 
ENDBRANCH   6  11
ENDBRANCH   1   4
BRANCH   1  15
ATOM     15  N   UNL d   1     -48.508  12.166  23.430  0.00  0.00    -0.157 NA
BRANCH  15  16
ATOM     16  C   UNL d   1     -47.745  11.922  23.317  0.00  0.00     0.114 C 
BRANCH  16  17
ATOM     17  C   UNL d   1     -47.115  12.345  23.656  0.00  0.00     0.042 C 
BRANCH  17  18
ATOM     18  C   UNL d   1     -46.416  12.470  23.209  0.00  0.00     0.102 A 
ATOM     19  N   UNL d   1     -45.740  12.022  23.246  0.00  0.00    -0.227 NA
ATOM     20  C   UNL d   1     -45.184  12.332  22.717  0.00  0.00     0.148 A 
ATOM     21  C   UNL d   1     -44.417  12.105  22.528  0.00  0.00     0.037 A 
ATOM     22  N   UNL d   1     -45.525  12.980  22.349  0.00  0.00    -0.288 N 
ATOM     23  C   UNL d   1     -43.993  12.530  21.968  0.00  0.00     0.004 A 
ATOM     24  C   UNL d   1     -43.224  12.300  21.780  0.00  0.00     0.000 C 
ATOM     25  C   UNL d   1     -44.322  13.180  21.592  0.00  0.00     0.019 A 
ATOM     26  C   UNL d   1     -45.097  13.406  21.786  0.00  0.00     0.082 A 
ATOM     27  C   UNL d   1     -46.294  13.076  22.647  0.00  0.00     0.101 A 
ENDBRANCH  17  18
ENDBRANCH  16  17
ENDBRANCH  15  16
ENDBRANCH   1  15
TORSDOF 6
ENDMDL
MODEL 3
REMARK VINA RESULT:      -6.4      2.093      2.559
REMARK  6 active torsions:
REMARK  status: ('A' for Active; 'I' for Inactive)
REMARK    1  A    between atoms: C_7  and  S_1 
REMARK    2  A    between atoms: N_18  and  S_1 
REMARK    3  A    between atoms: C_6  and  C_4 
REMARK    4  A    between atoms: C_9  and  C_24 
REMARK    5  A    between atoms: C_26  and  N_18 
REMARK    6  A    between atoms: C_24  and  C_26 
ROOT
ATOM      1  S   UNL d   1     -48.710  14.427  22.654  0.00  0.00     0.285 S 
ATOM      2  O   UNL d   1     -48.195  15.013  22.920  0.00  0.00    -0.198 OA
ATOM      3  O   UNL d   1     -49.248  15.009  22.440  0.00  0.00    -0.198 OA
ENDROOT
BRANCH   1   4
ATOM      4  C   UNL d   1     -49.228  13.849  22.387  0.00  0.00     0.105 A 
ATOM      5  C   UNL d   1     -49.515  13.278  22.910  0.00  0.00     0.019 A 
ATOM      6  C   UNL d   1     -50.032  12.702  22.646  0.00  0.00     0.100 A 
ATOM      7  C   UNL d   1     -50.268  12.690  21.854  0.00  0.00     0.144 A 
ATOM      8  C   UNL d   1     -49.983  13.257  21.334  0.00  0.00     0.030 A 
ATOM      9  F   UNL d   1     -50.786  12.114  21.582  0.00  0.00    -0.204 F 
ATOM     10  C   UNL d   1     -49.464  13.837  21.595  0.00  0.00     0.015 A 
BRANCH   6  11
ATOM     11  C   UNL d   1     -50.314  12.138  23.166  0.00  0.00     0.421 C 
ATOM     12  F   UNL d   1     -50.581  11.623  23.647  0.00  0.00    -0.166 F 
ATOM     13  F   UNL d   1     -49.954  11.400  23.422  0.00  0.00    -0.166 F 
ATOM     14  F   UNL d   1     -51.057  12.131  23.604  0.00  0.00    -0.166 F 
ENDBRANCH   6  11
ENDBRANCH   1   4
BRANCH   1  15
ATOM     15  N   UNL d   1     -48.161  13.849  22.874  0.00  0.00    -0.157 NA
BRANCH  15  16
ATOM     16  C   UNL d   1     -47.368  13.978  22.777  0.00  0.00     0.114 C 
BRANCH  16  17
ATOM     17  C   UNL d   1     -46.817  13.577  23.252  0.00  0.00     0.042 C 
BRANCH  17  18
ATOM     18  C   UNL d   1     -46.100  13.306  22.910  0.00  0.00     0.102 A 
ATOM     19  N   UNL d   1     -45.624  13.725  22.403  0.00  0.00    -0.227 NA
ATOM     20  C   UNL d   1     -44.974  13.257  22.197  0.00  0.00     0.148 A 
ATOM     21  C   UNL d   1     -44.327  13.396  21.709  0.00  0.00     0.037 A 
ATOM     22  N   UNL d   1     -45.052  12.537  22.583  0.00  0.00    -0.288 N 
ATOM     23  C   UNL d   1     -43.759  12.812  21.611  0.00  0.00     0.004 A 
ATOM     24  C   UNL d   1     -43.111  12.954  21.121  0.00  0.00     0.000 C 
ATOM     25  C   UNL d   1     -43.825  12.089  21.991  0.00  0.00     0.019 A 
ATOM     26  C   UNL d   1     -44.480  11.952  22.483  0.00  0.00     0.082 A 
ATOM     27  C   UNL d   1     -45.752  12.556  23.032  0.00  0.00     0.101 A 
ENDBRANCH  17  18
ENDBRANCH  16  17
ENDBRANCH  15  16
ENDBRANCH   1  15
TORSDOF 6
ENDMDL
MODEL 4
REMARK VINA RESULT:      -5.7      8.987     10.552
REMARK  6 active torsions:
REMARK  status: ('A' for Active; 'I' for Inactive)
REMARK    1  A    between atoms: C_7  and  S_1 
REMARK    2  A    between atoms: N_18  and  S_1 
REMARK    3  A    between atoms: C_6  and  C_4 
REMARK    4  A    between atoms: C_9  and  C_24 
REMARK    5  A    between atoms: C_26  and  N_18 
REMARK    6  A    between atoms: C_24  and  C_26 
ROOT
ATOM      1  S   UNL d   1     -40.184  14.658  20.035  0.00  0.00     0.285 S 
ATOM      2  O   UNL d   1     -40.492  14.538  19.281  0.00  0.00    -0.198 OA
ATOM      3  O   UNL d   1     -40.943  14.795  20.315  0.00  0.00    -0.198 OA
ENDROOT
BRANCH   1   4
ATOM      4  C   UNL d   1     -39.884  14.779  20.790  0.00  0.00     0.105 A 
ATOM      5  C   UNL d   1     -39.621  14.138  21.238  0.00  0.00     0.019 A 
ATOM      6  C   UNL d   1     -39.322  14.256  21.989  0.00  0.00     0.100 A 
ATOM      7  C   UNL d   1     -39.282  15.020  22.303  0.00  0.00     0.144 A 
ATOM      8  C   UNL d   1     -39.543  15.659  21.858  0.00  0.00     0.030 A 
ATOM      9  F   UNL d   1     -38.983  15.147  23.057  0.00  0.00    -0.204 F 
ATOM     10  C   UNL d   1     -39.844  15.543  21.103  0.00  0.00     0.015 A 
BRANCH   6  11
ATOM     11  C   UNL d   1     -39.063  13.619  22.431  0.00  0.00     0.421 C 
ATOM     12  F   UNL d   1     -38.816  13.032  22.833  0.00  0.00    -0.166 F 
ATOM     13  F   UNL d   1     -39.474  13.172  23.040  0.00  0.00    -0.166 F 
ATOM     14  F   UNL d   1     -38.299  13.219  22.405  0.00  0.00    -0.166 F 
ENDBRANCH   6  11
ENDBRANCH   1   4
BRANCH   1  15
ATOM     15  N   UNL d   1     -39.423  14.518  19.743  0.00  0.00    -0.157 NA
BRANCH  15  16
ATOM     16  C   UNL d   1     -39.294  14.456  18.947  0.00  0.00     0.114 C 
BRANCH  16  17
ATOM     17  C   UNL d   1     -38.522  14.371  18.652  0.00  0.00     0.042 C 
BRANCH  17  18
ATOM     18  C   UNL d   1     -38.393  14.400  17.824  0.00  0.00     0.102 A 
ATOM     19  N   UNL d   1     -38.379  13.763  17.321  0.00  0.00    -0.227 NA
ATOM     20  C   UNL d   1     -38.235  14.032  16.552  0.00  0.00     0.148 A 
ATOM     21  C   UNL d   1     -38.164  13.638  15.834  0.00  0.00     0.037 A 
ATOM     22  N   UNL d   1     -38.159  14.848  16.583  0.00  0.00    -0.288 N 
ATOM     23  C   UNL d   1     -38.017  14.064  15.148  0.00  0.00     0.004 A 
ATOM     24  C   UNL d   1     -37.946  13.666  14.429  0.00  0.00     0.000 C 
ATOM     25  C   UNL d   1     -37.940  14.880  15.165  0.00  0.00     0.019 A 
ATOM     26  C   UNL d   1     -38.012  15.275  15.892  0.00  0.00     0.082 A 
ATOM     27  C   UNL d   1     -38.256  15.089  17.372  0.00  0.00     0.101 A 
ENDBRANCH  17  18
ENDBRANCH  16  17
ENDBRANCH  15  16
ENDBRANCH   1  15
TORSDOF 6
ENDMDL
MODEL 5
REMARK VINA RESULT:      -5.2      3.160      3.926
REMARK  6 active torsions:
REMARK  status: ('A' for Active; 'I' for Inactive)
REMARK    1  A    between atoms: C_7  and  S_1 
REMARK    2  A    between atoms: N_18  and  S_1 
REMARK    3  A    between atoms: C_6  and  C_4 
REMARK    4  A    between atoms: C_9  and  C_24 
REMARK    5  A    between atoms: C_26  and  N_18 
REMARK    6  A    between atoms: C_24  and  C_26 
ROOT
ATOM      1  S   UNL d   1     -45.857  12.735  22.986  0.00  0.00     0.285 S 
ATOM      2  O   UNL d   1     -45.191  12.302  23.204  0.00  0.00    -0.198 OA
ATOM      3  O   UNL d   1     -46.232  12.490  23.674  0.00  0.00    -0.198 OA
ENDROOT
BRANCH   1   4
ATOM      4  C   UNL d   1     -46.525  13.164  22.776  0.00  0.00     0.105 A 
ATOM      5  C   UNL d   1     -47.109  12.817  22.308  0.00  0.00     0.019 A 
ATOM      6  C   UNL d   1     -47.775  13.243  22.097  0.00  0.00     0.100 A 
ATOM      7  C   UNL d   1     -47.864  14.023  22.353  0.00  0.00     0.144 A 
ATOM      8  C   UNL d   1     -47.284  14.370  22.819  0.00  0.00     0.030 A 
ATOM      9  F   UNL d   1     -48.529  14.457  22.146  0.00  0.00    -0.204 F 
ATOM     10  C   UNL d   1     -46.614  13.945  23.032  0.00  0.00     0.015 A 
BRANCH   6  11
ATOM     11  C   UNL d   1     -48.352  12.895  21.634  0.00  0.00     0.421 C 
ATOM     12  F   UNL d   1     -48.879  12.578  21.200  0.00  0.00    -0.166 F 
ATOM     13  F   UNL d   1     -49.055  12.461  21.870  0.00  0.00    -0.166 F 
ATOM     14  F   UNL d   1     -48.411  12.871  20.773  0.00  0.00    -0.166 F 
ENDBRANCH   6  11
ENDBRANCH   1   4
BRANCH   1  15
ATOM     15  N   UNL d   1     -45.471  12.976  22.295  0.00  0.00    -0.157 NA
BRANCH  15  16
ATOM     16  C   UNL d   1     -44.667  12.920  22.234  0.00  0.00     0.114 C 
BRANCH  16  17
ATOM     17  C   UNL d   1     -44.307  12.842  21.490  0.00  0.00     0.042 C 
BRANCH  17  18
ATOM     18  C   UNL d   1     -43.541  13.162  21.368  0.00  0.00     0.102 A 
ATOM     19  N   UNL d   1     -43.356  13.951  21.311  0.00  0.00    -0.227 NA
ATOM     20  C   UNL d   1     -42.542  14.028  21.191  0.00  0.00     0.148 A 
ATOM     21  C   UNL d   1     -42.058  14.686  21.097  0.00  0.00     0.037 A 
ATOM     22  N   UNL d   1     -42.220  13.274  21.174  0.00  0.00    -0.288 N 
ATOM     23  C   UNL d   1     -41.251  14.585  20.985  0.00  0.00     0.004 A 
ATOM     24  C   UNL d   1     -40.768  15.247  20.890  0.00  0.00     0.000 C 
ATOM     25  C   UNL d   1     -40.917  13.837  20.965  0.00  0.00     0.019 A 
ATOM     26  C   UNL d   1     -41.409  13.174  21.061  0.00  0.00     0.082 A 
ATOM     27  C   UNL d   1     -42.834  12.725  21.283  0.00  0.00     0.101 A 
ENDBRANCH  17  18
ENDBRANCH  16  17
ENDBRANCH  15  16
ENDBRANCH   1  15
TORSDOF 6
ENDMDL
MODEL 6
REMARK VINA RESULT:      -4.9      5.945      7.694
REMARK  6 active torsions:
REMARK  status: ('A' for Active; 'I' for Inactive)
REMARK    1  A    between atoms: C_7  and  S_1 
REMARK    2  A    between atoms: N_18  and  S_1 
REMARK    3  A    between atoms: C_6  and  C_4 
REMARK    4  A    between atoms: C_9  and  C_24 
REMARK    5  A    between atoms: C_26  and  N_18 
REMARK    6  A    between atoms: C_24  and  C_26 
ROOT
ATOM      1  S   UNL d   1     -40.997  13.896  21.150  0.00  0.00     0.285 S 
ATOM      2  O   UNL d   1     -41.095  13.391  21.794  0.00  0.00    -0.198 OA
ATOM      3  O   UNL d   1     -40.241  14.073  21.415  0.00  0.00    -0.198 OA
ENDROOT
BRANCH   1   4
ATOM      4  C   UNL d   1     -40.892  14.401  20.511  0.00  0.00     0.105 A 
ATOM      5  C   UNL d   1     -40.711  14.094  19.767  0.00  0.00     0.019 A 
ATOM      6  C   UNL d   1     -40.606  14.595  19.130  0.00  0.00     0.100 A 
ATOM      7  C   UNL d   1     -40.681  15.412  19.230  0.00  0.00     0.144 A 
ATOM      8  C   UNL d   1     -40.861  15.719  19.970  0.00  0.00     0.030 A 
ATOM      9  F   UNL d   1     -40.576  15.922  18.595  0.00  0.00    -0.204 F 
ATOM     10  C   UNL d   1     -40.967  15.218  20.612  0.00  0.00     0.015 A 
BRANCH   6  11
ATOM     11  C   UNL d   1     -40.427  14.288  18.394  0.00  0.00     0.421 C 
ATOM     12  F   UNL d   1     -40.270  14.004  17.714  0.00  0.00    -0.166 F 
ATOM     13  F   UNL d   1     -39.659  14.144  18.034  0.00  0.00    -0.166 F 
ATOM     14  F   UNL d   1     -40.964  14.022  17.774  0.00  0.00    -0.166 F 
ENDBRANCH   6  11
ENDBRANCH   1   4
BRANCH   1  15
ATOM     15  N   UNL d   1     -41.761  13.710  20.892  0.00  0.00    -0.157 NA
BRANCH  15  16
ATOM     16  C   UNL d   1     -42.283  13.341  21.387  0.00  0.00     0.114 C 
BRANCH  16  17
ATOM     17  C   UNL d   1     -42.913  12.898  21.077  0.00  0.00     0.042 C 
BRANCH  17  18
ATOM     18  C   UNL d   1     -43.642  12.873  21.493  0.00  0.00     0.102 A 
ATOM     19  N   UNL d   1     -43.905  12.262  21.958  0.00  0.00    -0.227 NA
ATOM     20  C   UNL d   1     -44.647  12.460  22.265  0.00  0.00     0.148 A 
ATOM     21  C   UNL d   1     -45.163  12.056  22.761  0.00  0.00     0.037 A 
ATOM     22  N   UNL d   1     -44.844  13.204  21.983  0.00  0.00    -0.288 N 
ATOM     23  C   UNL d   1     -45.877  12.402  22.974  0.00  0.00     0.004 A 
ATOM     24  C   UNL d   1     -46.393  11.995  23.473  0.00  0.00     0.000 C 
ATOM     25  C   UNL d   1     -46.086  13.145  22.700  0.00  0.00     0.019 A 
ATOM     26  C   UNL d   1     -45.561  13.550  22.198  0.00  0.00     0.082 A 
ATOM     27  C   UNL d   1     -44.224  13.473  21.500  0.00  0.00     0.101 A 
ENDBRANCH  17  18
ENDBRANCH  16  17
ENDBRANCH  15  16
ENDBRANCH   1  15
TORSDOF 6
ENDMDL
