MODEL 1
REMARK VINA RESULT:      99.0      0.000      0.000
REMARK  3 active torsions:
REMARK  status: ('A' for Active; 'I' for Inactive)
REMARK    1  A    between atoms: N_10  and  C_3 
REMARK    2  A    between atoms: C_11  and  C_5 
REMARK    3  A    between atoms: C_12  and  N_10 
ROOT
ATOM      1  N   UNL d   1     -57.341 -98.936 -43.238  0.00  0.00    -0.184 N 
ATOM      2  C   UNL d   1     -57.006 -98.895 -44.006  0.00  0.00     0.168 A 
ATOM      3  C   UNL d   1     -58.163 -98.954 -43.150  0.00  0.00     0.217 A 
ATOM      4  N   UNL d   1     -56.040 -98.940 -42.671  0.00  0.00    -0.162 NA
ATOM      5  C   UNL d   1     -56.204 -98.878 -44.092  0.00  0.00     0.055 A 
ATOM      6  N   UNL d   1     -57.506 -98.873 -44.659  0.00  0.00    -0.227 NA
ATOM      7  C   UNL d   1     -58.643 -98.932 -43.805  0.00  0.00     0.066 A 
ATOM      8  C   UNL d   1     -55.711 -98.900 -43.428  0.00  0.00     0.104 A 
ATOM      9  C   UNL d   1     -58.317 -98.891 -44.577  0.00  0.00     0.087 A 
ATOM     10  C   UNL d   1     -59.450 -98.941 -43.893  0.00  0.00     0.006 A 
ATOM     11  C   UNL d   1     -54.899 -98.882 -43.524  0.00  0.00     0.023 C 
ATOM     12  C   UNL d   1     -58.929 -98.876 -45.120  0.00  0.00     0.019 A 
ATOM     13  C   UNL d   1     -59.638 -98.908 -44.688  0.00  0.00     0.002 A 
ENDROOT
BRANCH   3  14
ATOM     14  N   UNL d   1     -58.505 -98.995 -42.376  0.00  0.00    -0.383 NA
BRANCH  14  15
ATOM     15  C   UNL d   1     -58.841 -99.035 -41.603  0.00  0.00     0.134 A 
ATOM     16  C   UNL d   1     -58.387 -99.355 -40.958  0.00  0.00     0.034 A 
ATOM     17  C   UNL d   1     -58.726 -99.394 -40.187  0.00  0.00     0.032 A 
ATOM     18  C   UNL d   1     -59.509 -99.118 -40.053  0.00  0.00     0.140 A 
ATOM     19  C   UNL d   1     -59.956 -98.800 -40.700  0.00  0.00     0.032 A 
ATOM     20  F   UNL d   1     -59.850 -99.157 -39.277  0.00  0.00    -0.204 F 
ATOM     21  C   UNL d   1     -59.630 -98.756 -41.472  0.00  0.00     0.034 A 
ENDBRANCH  14  15
ENDBRANCH   3  14
BRANCH   5  22
ATOM     22  C   UNL d   1     -55.877 -98.838 -44.844  0.00  0.00     0.004 A 
ATOM     23  C   UNL d   1     -55.061 -98.836 -44.940  0.00  0.00     0.000 A 
ATOM     24  C   UNL d   1     -54.731 -98.796 -45.687  0.00  0.00     0.000 A 
ATOM     25  C   UNL d   1     -55.221 -98.758 -46.350  0.00  0.00     0.000 A 
ATOM     26  C   UNL d   1     -56.027 -98.759 -46.264  0.00  0.00     0.000 A 
ATOM     27  C   UNL d   1     -56.358 -98.800 -45.503  0.00  0.00     0.000 A 
ENDBRANCH   5  22
TORSDOF 3
ENDMDL
