MODEL 1
REMARK VINA RESULT:      13.6      0.000      0.000
REMARK  5 active torsions:
REMARK  status: ('A' for Active; 'I' for Inactive)
REMARK    1  A    between atoms: S_10  and  C_6 
REMARK    2  A    between atoms: C_15  and  S_10 
REMARK    3  A    between atoms: C_12  and  C_15 
REMARK       I    between atoms: N_16  and  C_12 
REMARK    4  A    between atoms: C_14  and  C_20 
REMARK    5  A    between atoms: C_20  and  N_16 
ROOT
ATOM      1  C   UNL d   1      46.042 -14.737  44.862  0.00  0.00     0.117 A 
ATOM      2  C   UNL d   1      45.264 -14.578  44.677  0.00  0.00     0.082 A 
ATOM      3  N   UNL d   1      46.297 -15.532  44.930  0.00  0.00    -0.214 NA
ATOM      4  C   UNL d   1      44.729 -15.184  44.557  0.00  0.00     0.283 A 
ATOM      5  N   UNL d   1      44.983 -15.979  44.625  0.00  0.00    -0.183 NA
ATOM      6  C   UNL d   1      45.764 -16.138  44.811  0.00  0.00     0.198 A 
ATOM      7  S   UNL d   1      46.438 -14.018  44.948  0.00  0.00    -0.068 SA
ATOM      8  C   UNL d   1      45.183 -13.763  44.649  0.00  0.00     0.013 A 
ATOM      9  C   UNL d   1      45.911 -13.398  44.817  0.00  0.00     0.031 A 
ATOM     10  O   UNL d   1      43.922 -15.011  44.365  0.00  0.00    -0.265 OA
ATOM     11  C   UNL d   1      44.480 -13.344  44.479  0.00  0.00     0.001 C 
ATOM     12  C   UNL d   1      46.068 -12.570  44.846  0.00  0.00     0.007 C 
ENDROOT
BRANCH   6  13
ATOM     13  S   UNL d   1      46.018 -16.928  44.879  0.00  0.00    -0.043 SA
BRANCH  13  14
ATOM     14  C   UNL d   1      46.274 -17.328  44.216  0.00  0.00     0.101 C 
BRANCH  14  15
ATOM     15  C   UNL d   1      46.303 -18.183  44.222  0.00  0.00     0.286 C 
ATOM     16  O   UNL d   1      46.279 -18.586  44.946  0.00  0.00    -0.265 OA
ATOM     17  N   UNL d   1      46.355 -18.594  43.517  0.00  0.00    -0.206 NA
BRANCH  17  18
ATOM     18  C   UNL d   1      46.379 -18.192  42.803  0.00  0.00     0.102 C 
BRANCH  18  19
ATOM     19  C   UNL d   1      46.639 -18.567  42.127  0.00  0.00     0.021 C 
ATOM     20  C   UNL d   1      46.310 -19.287  41.892  0.00  0.00     0.002 C 
ENDBRANCH  18  19
ENDBRANCH  17  18
ENDBRANCH  14  15
ENDBRANCH  13  14
ENDBRANCH   6  13
TORSDOF 5
ENDMDL
MODEL 2
REMARK VINA RESULT:      14.7      1.286      4.607
REMARK  5 active torsions:
REMARK  status: ('A' for Active; 'I' for Inactive)
REMARK    1  A    between atoms: S_10  and  C_6 
REMARK    2  A    between atoms: C_15  and  S_10 
REMARK    3  A    between atoms: C_12  and  C_15 
REMARK       I    between atoms: N_16  and  C_12 
REMARK    4  A    between atoms: C_14  and  C_20 
REMARK    5  A    between atoms: C_20  and  N_16 
ROOT
ATOM      1  C   UNL d   1      46.270 -18.331  44.183  0.00  0.00     0.117 A 
ATOM      2  C   UNL d   1      46.360 -18.178  43.387  0.00  0.00     0.082 A 
ATOM      3  N   UNL d   1      46.110 -17.700  44.710  0.00  0.00    -0.214 NA
ATOM      4  C   UNL d   1      46.298 -17.417  43.095  0.00  0.00     0.283 A 
ATOM      5  N   UNL d   1      46.138 -16.785  43.623  0.00  0.00    -0.183 NA
ATOM      6  C   UNL d   1      46.047 -16.940  44.421  0.00  0.00     0.198 A 
ATOM      7  S   UNL d   1      46.363 -19.143  44.301  0.00  0.00    -0.068 SA
ATOM      8  C   UNL d   1      46.509 -18.895  43.018  0.00  0.00     0.013 A 
ATOM      9  C   UNL d   1      46.514 -19.509  43.579  0.00  0.00     0.031 A 
ATOM     10  O   UNL d   1      46.393 -17.266  42.268  0.00  0.00    -0.265 OA
ATOM     11  C   UNL d   1      46.639 -19.009  42.200  0.00  0.00     0.001 C 
ATOM     12  C   UNL d   1      46.646 -20.329  43.431  0.00  0.00     0.007 C 
ENDROOT
BRANCH   6  13
ATOM     13  S   UNL d   1      45.888 -16.312  44.945  0.00  0.00    -0.043 SA
BRANCH  13  14
ATOM     14  C   UNL d   1      45.837 -15.551  44.657  0.00  0.00     0.101 C 
BRANCH  14  15
ATOM     15  C   UNL d   1      45.119 -15.100  44.779  0.00  0.00     0.286 C 
ATOM     16  O   UNL d   1      44.414 -15.498  44.955  0.00  0.00    -0.265 OA
ATOM     17  N   UNL d   1      45.135 -14.285  44.720  0.00  0.00    -0.206 NA
BRANCH  17  18
ATOM     18  C   UNL d   1      45.835 -13.895  44.545  0.00  0.00     0.102 C 
BRANCH  18  19
ATOM     19  C   UNL d   1      45.927 -13.107  44.736  0.00  0.00     0.021 C 
ATOM     20  C   UNL d   1      45.669 -12.517  44.220  0.00  0.00     0.002 C 
ENDBRANCH  18  19
ENDBRANCH  17  18
ENDBRANCH  14  15
ENDBRANCH  13  14
ENDBRANCH   6  13
TORSDOF 5
ENDMDL
