MODEL 1
REMARK VINA RESULT:      -4.8      0.000      0.000
REMARK  2 active torsions:
REMARK  status: ('A' for Active; 'I' for Inactive)
REMARK    1  A    between atoms: C_5  and  N_1 
REMARK    2  A    between atoms: C_7  and  C_5 
ROOT
ATOM      1  N   UNL d   1     -42.090-122.507 -50.082  0.00  0.00    -0.251 N 
ATOM      2  C   UNL d   1     -42.908-122.457 -50.134  0.00  0.00     0.378 A 
ATOM      3  O   UNL d   1     -43.231-122.818 -49.465  0.00  0.00    -0.258 OA
ATOM      4  C   UNL d   1     -41.903-122.903 -49.376  0.00  0.00     0.092 A 
ATOM      5  C   UNL d   1     -42.608-123.094 -48.998  0.00  0.00     0.121 A 
ATOM      6  O   UNL d   1     -43.338-122.107 -50.745  0.00  0.00    -0.237 OA
ATOM      7  C   UNL d   1     -41.178-123.107 -49.043  0.00  0.00     0.020 A 
ATOM      8  C   UNL d   1     -42.588-123.496 -48.274  0.00  0.00     0.026 A 
ATOM      9  C   UNL d   1     -41.160-123.507 -48.321  0.00  0.00     0.002 A 
ATOM     10  C   UNL d   1     -41.862-123.701 -47.938  0.00  0.00     0.002 A 
ENDROOT
BRANCH   1  11
ATOM     11  C   UNL d   1     -41.547-122.217 -50.632  0.00  0.00     0.086 C 
BRANCH  11  12
ATOM     12  C   UNL d   1     -41.443-122.604 -51.345  0.00  0.00     0.028 A 
ATOM     13  C   UNL d   1     -41.226-122.180 -52.022  0.00  0.00     0.059 A 
ATOM     14 CL   UNL d   1     -41.122-121.359 -51.939  0.00  0.00    -0.082 Cl
ATOM     15  C   UNL d   1     -41.123-122.569 -52.733  0.00  0.00     0.011 A 
ATOM     16  C   UNL d   1     -41.234-123.392 -52.782  0.00  0.00     0.001 A 
ATOM     17  C   UNL d   1     -41.451-123.817 -52.107  0.00  0.00     0.000 A 
ATOM     18  C   UNL d   1     -41.554-123.423 -51.392  0.00  0.00     0.002 A 
ENDBRANCH  11  12
ENDBRANCH   1  11
TORSDOF 2
ENDMDL
MODEL 2
REMARK VINA RESULT:      -4.1      1.926      2.851
REMARK  2 active torsions:
REMARK  status: ('A' for Active; 'I' for Inactive)
REMARK    1  A    between atoms: C_5  and  N_1 
REMARK    2  A    between atoms: C_7  and  C_5 
ROOT
ATOM      1  N   UNL d   1     -41.272-122.379 -52.544  0.00  0.00    -0.251 N 
ATOM      2  C   UNL d   1     -41.272-121.572 -52.388  0.00  0.00     0.378 A 
ATOM      3  O   UNL d   1     -41.445-121.465 -51.587  0.00  0.00    -0.258 OA
ATOM      4  C   UNL d   1     -41.446-122.776 -51.835  0.00  0.00     0.092 A 
ATOM      5  C   UNL d   1     -41.552-122.210 -51.247  0.00  0.00     0.121 A 
ATOM      6  O   UNL d   1     -41.127-120.970 -52.932  0.00  0.00    -0.237 OA
ATOM      7  C   UNL d   1     -41.517-123.578 -51.665  0.00  0.00     0.020 A 
ATOM      8  C   UNL d   1     -41.732-122.451 -50.476  0.00  0.00     0.026 A 
ATOM      9  C   UNL d   1     -41.698-123.816 -50.895  0.00  0.00     0.002 A 
ATOM     10  C   UNL d   1     -41.805-123.255 -50.303  0.00  0.00     0.002 A 
ENDROOT
BRANCH   1  11
ATOM     11  C   UNL d   1     -41.126-122.736 -53.274  0.00  0.00     0.086 C 
BRANCH  11  12
ATOM     12  C   UNL d   1     -41.622-122.585 -53.907  0.00  0.00     0.028 A 
ATOM     13  C   UNL d   1     -41.658-123.113 -54.543  0.00  0.00     0.059 A 
ATOM     14 CL   UNL d   1     -41.174-123.789 -54.504  0.00  0.00    -0.082 Cl
ATOM     15  C   UNL d   1     -42.154-122.960 -55.175  0.00  0.00     0.011 A 
ATOM     16  C   UNL d   1     -42.625-122.275 -55.183  0.00  0.00     0.001 A 
ATOM     17  C   UNL d   1     -42.590-121.746 -54.548  0.00  0.00     0.000 A 
ATOM     18  C   UNL d   1     -42.090-121.902 -53.914  0.00  0.00     0.002 A 
ENDBRANCH  11  12
ENDBRANCH   1  11
TORSDOF 2
ENDMDL
MODEL 3
REMARK VINA RESULT:      -3.3      2.072      4.240
REMARK  2 active torsions:
REMARK  status: ('A' for Active; 'I' for Inactive)
REMARK    1  A    between atoms: C_5  and  N_1 
REMARK    2  A    between atoms: C_7  and  C_5 
ROOT
ATOM      1  N   UNL d   1     -41.452-122.482 -53.261  0.00  0.00    -0.251 N 
ATOM      2  C   UNL d   1     -41.413-123.300 -53.320  0.00  0.00     0.378 A 
ATOM      3  O   UNL d   1     -41.714-123.520 -54.057  0.00  0.00    -0.258 OA
ATOM      4  C   UNL d   1     -41.778-122.191 -53.967  0.00  0.00     0.092 A 
ATOM      5  C   UNL d   1     -41.939-122.833 -54.456  0.00  0.00     0.121 A 
ATOM      6  O   UNL d   1     -41.126-123.817 -52.745  0.00  0.00    -0.237 OA
ATOM      7  C   UNL d   1     -41.944-121.423 -54.214  0.00  0.00     0.020 A 
ATOM      8  C   UNL d   1     -42.271-122.705 -55.204  0.00  0.00     0.026 A 
ATOM      9  C   UNL d   1     -42.275-121.297 -54.960  0.00  0.00     0.002 A 
ATOM     10  C   UNL d   1     -42.438-121.936 -55.453  0.00  0.00     0.002 A 
ENDROOT
BRANCH   1  11
ATOM     11  C   UNL d   1     -41.210-122.025 -52.617  0.00  0.00     0.086 C 
BRANCH  11  12
ATOM     12  C   UNL d   1     -41.568-122.127 -51.889  0.00  0.00     0.028 A 
ATOM     13  C   UNL d   1     -41.535-121.526 -51.321  0.00  0.00     0.059 A 
ATOM     14 CL   UNL d   1     -41.128-120.831 -51.526  0.00  0.00    -0.082 Cl
ATOM     15  C   UNL d   1     -41.894-121.630 -50.594  0.00  0.00     0.011 A 
ATOM     16  C   UNL d   1     -42.294-122.338 -50.420  0.00  0.00     0.001 A 
ATOM     17  C   UNL d   1     -42.328-122.940 -50.986  0.00  0.00     0.000 A 
ATOM     18  C   UNL d   1     -41.966-122.833 -51.718  0.00  0.00     0.002 A 
ENDBRANCH  11  12
ENDBRANCH   1  11
TORSDOF 2
ENDMDL
