MODEL 1
REMARK VINA RESULT:       5.1      0.000      0.000
REMARK  1 active torsions:
REMARK  status: ('A' for Active; 'I' for Inactive)
REMARK    1  A    between atoms: C_11  and  C_9 
ROOT
ATOM      1  C   UNL d   1     -55.375-102.823 -39.591  0.00  0.00     0.215 A 
ATOM      2  N   UNL d   1     -56.074-102.870 -39.166  0.00  0.00    -0.219 NA
ATOM      3  S   UNL d   1     -54.752-102.776 -39.061  0.00  0.00    -0.045 SA
ATOM      4  C   UNL d   1     -55.070-102.793 -38.294  0.00  0.00     0.050 A 
ATOM      5  C   UNL d   1     -55.885-102.851 -38.359  0.00  0.00     0.090 A 
ATOM      6  C   UNL d   1     -54.712-102.763 -37.552  0.00  0.00     0.008 A 
ATOM      7  N   UNL d   1     -55.309-102.824 -40.418  0.00  0.00    -0.120 N 
ATOM      8  C   UNL d   1     -56.357-102.880 -37.683  0.00  0.00     0.020 A 
ATOM      9  C   UNL d   1     -55.182-102.791 -36.891  0.00  0.00     0.001 A 
ATOM     10  C   UNL d   1     -56.002-102.850 -36.956  0.00  0.00     0.002 A 
ENDROOT
BRANCH   9  11
ATOM     11  C   UNL d   1     -54.829-102.762 -36.143  0.00  0.00     0.000 C 
ATOM     12  C   UNL d   1     -54.841-102.063 -35.714  0.00  0.00     0.000 C 
ENDBRANCH   9  11
TORSDOF 1
ENDMDL
MODEL 2
REMARK VINA RESULT:       6.3      1.415      2.067
REMARK  1 active torsions:
REMARK  status: ('A' for Active; 'I' for Inactive)
REMARK    1  A    between atoms: C_11  and  C_9 
ROOT
ATOM      1  C   UNL d   1     -54.853-102.482 -38.089  0.00  0.00     0.215 A 
ATOM      2  N   UNL d   1     -54.896-102.879 -37.373  0.00  0.00    -0.219 NA
ATOM      3  S   UNL d   1     -54.789-101.679 -37.937  0.00  0.00    -0.045 SA
ATOM      4  C   UNL d   1     -54.792-101.576 -37.113  0.00  0.00     0.050 A 
ATOM      5  C   UNL d   1     -54.858-102.316 -36.766  0.00  0.00     0.090 A 
ATOM      6  C   UNL d   1     -54.743-100.899 -36.646  0.00  0.00     0.008 A 
ATOM      7  N   UNL d   1     -54.871-102.833 -38.840  0.00  0.00    -0.120 N 
ATOM      8  C   UNL d   1     -54.875-102.392 -35.944  0.00  0.00     0.020 A 
ATOM      9  C   UNL d   1     -54.761-100.980 -35.838  0.00  0.00     0.001 A 
ATOM     10  C   UNL d   1     -54.827-101.724 -35.489  0.00  0.00     0.002 A 
ENDROOT
BRANCH   9  11
ATOM     11  C   UNL d   1     -54.712-100.305 -35.364  0.00  0.00     0.000 C 
ATOM     12  C   UNL d   1     -54.716 -99.561 -35.710  0.00  0.00     0.000 C 
ENDBRANCH   9  11
TORSDOF 1
ENDMDL
