MODEL 1
REMARK VINA RESULT:      -3.0      0.000      0.000
REMARK  3 active torsions:
REMARK  status: ('A' for Active; 'I' for Inactive)
REMARK    1  A    between atoms: C_3  and  C_1 
REMARK    2  A    between atoms: C_8  and  C_3 
REMARK    3  A    between atoms: C_10  and  C_4 
ROOT
ATOM      1  C   UNL d   1      32.367  17.190 -23.672  0.00  0.00     0.092 C 
ATOM      2  C   UNL d   1      32.809  16.581 -23.335  0.00  0.00     0.103 C 
ATOM      3  N   UNL d   1      33.241  15.944 -23.001  0.00  0.00    -0.191 NA
ENDROOT
BRANCH   1   4
ATOM      4  C   UNL d   1      31.656  17.005 -24.074  0.00  0.00     0.120 A 
ATOM      5  N   UNL d   1      30.943  16.715 -23.731  0.00  0.00    -0.238 NA
ATOM      6  C   UNL d   1      30.387  16.612 -24.337  0.00  0.00     0.088 A 
ATOM      7  C   UNL d   1      30.758  16.836 -25.039  0.00  0.00     0.056 A 
ATOM      8  S   UNL d   1      31.520  17.068 -24.855  0.00  0.00    -0.065 SA
BRANCH   6   9
ATOM      9  C   UNL d   1      29.598  16.328 -24.225  0.00  0.00     0.018 A 
ATOM     10  C   UNL d   1      29.311  15.734 -24.729  0.00  0.00     0.002 A 
ATOM     11  C   UNL d   1      28.543  15.453 -24.626  0.00  0.00     0.000 A 
ATOM     12  C   UNL d   1      28.040  15.762 -24.011  0.00  0.00     0.000 A 
ATOM     13  C   UNL d   1      28.337  16.353 -23.516  0.00  0.00     0.000 A 
ATOM     14  C   UNL d   1      29.128  16.637 -23.628  0.00  0.00     0.002 A 
ENDBRANCH   6   9
ENDBRANCH   1   4
BRANCH   1  15
ATOM     15  C   UNL d   1      32.640  17.960 -23.603  0.00  0.00     0.012 A 
ATOM     16  C   UNL d   1      32.937  18.523 -24.142  0.00  0.00     0.001 A 
ATOM     17  C   UNL d   1      33.121  19.205 -23.731  0.00  0.00     0.000 A 
ATOM     18  C   UNL d   1      32.945  19.074 -22.948  0.00  0.00     0.000 A 
ATOM     19  C   UNL d   1      32.650  18.314 -22.863  0.00  0.00     0.001 A 
ENDBRANCH   1  15
TORSDOF 3
ENDMDL
MODEL 2
REMARK VINA RESULT:      -2.2      3.808      5.634
REMARK  3 active torsions:
REMARK  status: ('A' for Active; 'I' for Inactive)
REMARK    1  A    between atoms: C_3  and  C_1 
REMARK    2  A    between atoms: C_8  and  C_3 
REMARK    3  A    between atoms: C_10  and  C_4 
ROOT
ATOM      1  C   UNL d   1      32.920  22.041 -20.552  0.00  0.00     0.092 C 
ATOM      2  C   UNL d   1      33.044  22.209 -19.755  0.00  0.00     0.103 C 
ATOM      3  N   UNL d   1      33.175  22.357 -18.939  0.00  0.00    -0.191 NA
ENDROOT
BRANCH   1   4
ATOM      4  C   UNL d   1      33.022  21.255 -20.824  0.00  0.00     0.120 A 
ATOM      5  N   UNL d   1      32.977  20.987 -21.621  0.00  0.00    -0.238 NA
ATOM      6  C   UNL d   1      33.114  20.169 -21.627  0.00  0.00     0.088 A 
ATOM      7  C   UNL d   1      33.241  19.944 -20.844  0.00  0.00     0.056 A 
ATOM      8  S   UNL d   1      33.180  20.615 -20.380  0.00  0.00    -0.065 SA
BRANCH   6   9
ATOM      9  C   UNL d   1      33.118  19.686 -22.322  0.00  0.00     0.018 A 
ATOM     10  C   UNL d   1      33.236  20.047 -23.060  0.00  0.00     0.002 A 
ATOM     11  C   UNL d   1      33.241  19.583 -23.741  0.00  0.00     0.000 A 
ATOM     12  C   UNL d   1      33.125  18.738 -23.699  0.00  0.00     0.000 A 
ATOM     13  C   UNL d   1      33.008  18.391 -22.958  0.00  0.00     0.000 A 
ATOM     14  C   UNL d   1      33.005  18.876 -22.263  0.00  0.00     0.002 A 
ENDBRANCH   6   9
ENDBRANCH   1   4
BRANCH   1  15
ATOM     15  C   UNL d   1      32.700  22.650 -21.055  0.00  0.00     0.012 A 
ATOM     16  C   UNL d   1      33.102  23.107 -21.626  0.00  0.00     0.001 A 
ATOM     17  C   UNL d   1      32.574  23.640 -21.950  0.00  0.00     0.000 A 
ATOM     18  C   UNL d   1      31.854  23.522 -21.590  0.00  0.00     0.000 A 
ATOM     19  C   UNL d   1      31.924  22.918 -21.041  0.00  0.00     0.001 A 
ENDBRANCH   1  15
TORSDOF 3
ENDMDL
MODEL 3
REMARK VINA RESULT:      -1.9      1.143      4.235
REMARK  3 active torsions:
REMARK  status: ('A' for Active; 'I' for Inactive)
REMARK    1  A    between atoms: C_3  and  C_1 
REMARK    2  A    between atoms: C_8  and  C_3 
REMARK    3  A    between atoms: C_10  and  C_4 
ROOT
ATOM      1  C   UNL d   1      28.909  16.898 -24.312  0.00  0.00     0.092 C 
ATOM      2  C   UNL d   1      28.678  17.612 -24.653  0.00  0.00     0.103 C 
ATOM      3  N   UNL d   1      28.466  18.344 -25.005  0.00  0.00    -0.191 NA
ENDROOT
BRANCH   1   4
ATOM      4  C   UNL d   1      29.722  16.696 -24.299  0.00  0.00     0.120 A 
ATOM      5  N   UNL d   1      30.319  17.039 -23.815  0.00  0.00    -0.238 NA
ATOM      6  C   UNL d   1      31.040  16.667 -23.990  0.00  0.00     0.088 A 
ATOM      7  C   UNL d   1      30.881  16.106 -24.573  0.00  0.00     0.056 A 
ATOM      8  S   UNL d   1      30.081  16.142 -24.742  0.00  0.00    -0.065 SA
BRANCH   6   9
ATOM      9  C   UNL d   1      31.780  16.851 -23.622  0.00  0.00     0.018 A 
ATOM     10  C   UNL d   1      32.121  16.295 -23.110  0.00  0.00     0.002 A 
ATOM     11  C   UNL d   1      32.841  16.466 -22.748  0.00  0.00     0.000 A 
ATOM     12  C   UNL d   1      33.241  17.206 -22.893  0.00  0.00     0.000 A 
ATOM     13  C   UNL d   1      32.891  17.752 -23.406  0.00  0.00     0.000 A 
ATOM     14  C   UNL d   1      32.150  17.567 -23.773  0.00  0.00     0.002 A 
ENDBRANCH   6   9
ENDBRANCH   1   4
BRANCH   1  15
ATOM     15  C   UNL d   1      28.333  16.407 -23.995  0.00  0.00     0.012 A 
ATOM     16  C   UNL d   1      28.040  15.652 -24.192  0.00  0.00     0.001 A 
ATOM     17  C   UNL d   1      27.455  15.453 -23.658  0.00  0.00     0.000 A 
ATOM     18  C   UNL d   1      27.380  16.070 -23.135  0.00  0.00     0.000 A 
ATOM     19  C   UNL d   1      27.915  16.658 -23.335  0.00  0.00     0.001 A 
ENDBRANCH   1  15
TORSDOF 3
ENDMDL
MODEL 4
REMARK VINA RESULT:      -1.0      1.490      2.350
REMARK  3 active torsions:
REMARK  status: ('A' for Active; 'I' for Inactive)
REMARK    1  A    between atoms: C_3  and  C_1 
REMARK    2  A    between atoms: C_8  and  C_3 
REMARK    3  A    between atoms: C_10  and  C_4 
ROOT
ATOM      1  C   UNL d   1      32.916  19.388 -23.055  0.00  0.00     0.092 C 
ATOM      2  C   UNL d   1      33.066  19.446 -22.247  0.00  0.00     0.103 C 
ATOM      3  N   UNL d   1      33.213  19.481 -21.421  0.00  0.00    -0.191 NA
ENDROOT
BRANCH   1   4
ATOM      4  C   UNL d   1      32.717  18.642 -23.381  0.00  0.00     0.120 A 
ATOM      5  N   UNL d   1      31.943  18.330 -23.491  0.00  0.00    -0.238 NA
ATOM      6  C   UNL d   1      32.013  17.576 -23.831  0.00  0.00     0.088 A 
ATOM      7  C   UNL d   1      32.820  17.433 -23.925  0.00  0.00     0.056 A 
ATOM      8  S   UNL d   1      33.223  18.089 -23.648  0.00  0.00    -0.065 SA
BRANCH   6   9
ATOM      9  C   UNL d   1      31.362  17.074 -24.030  0.00  0.00     0.018 A 
ATOM     10  C   UNL d   1      30.786  17.357 -24.556  0.00  0.00     0.002 A 
ATOM     11  C   UNL d   1      30.149  16.874 -24.756  0.00  0.00     0.000 A 
ATOM     12  C   UNL d   1      30.073  16.089 -24.430  0.00  0.00     0.000 A 
ATOM     13  C   UNL d   1      30.653  15.819 -23.907  0.00  0.00     0.000 A 
ATOM     14  C   UNL d   1      31.305  16.322 -23.707  0.00  0.00     0.002 A 
ENDBRANCH   6   9
ENDBRANCH   1   4
BRANCH   1  15
ATOM     15  C   UNL d   1      32.968  20.064 -23.516  0.00  0.00     0.012 A 
ATOM     16  C   UNL d   1      32.803  20.238 -24.315  0.00  0.00     0.001 A 
ATOM     17  C   UNL d   1      32.969  21.027 -24.449  0.00  0.00     0.000 A 
ATOM     18  C   UNL d   1      33.233  21.344 -23.748  0.00  0.00     0.000 A 
ATOM     19  C   UNL d   1      33.235  20.760 -23.173  0.00  0.00     0.001 A 
ENDBRANCH   1  15
TORSDOF 3
ENDMDL
