MODEL 1
REMARK VINA RESULT:      -0.5      0.000      0.000
REMARK  5 active torsions:
REMARK  status: ('A' for Active; 'I' for Inactive)
REMARK    1  A    between atoms: C_6  and  C_1 
REMARK    2  A    between atoms: C_9  and  N_2 
REMARK    3  A    between atoms: O_13  and  C_8 
REMARK    4  A    between atoms: O_15  and  C_9 
REMARK    5  A    between atoms: O_14  and  C_10 
ROOT
ATOM      1  C   UNL d   1     -42.261-123.078 -50.047  0.00  0.00     0.149 A 
ATOM      2  N   UNL d   1     -42.818-123.023 -49.440  0.00  0.00    -0.269 N 
ATOM      3  N   UNL d   1     -41.528-123.171 -49.677  0.00  0.00    -0.227 NA
ATOM      4  C   UNL d   1     -42.442-123.079 -48.724  0.00  0.00     0.085 A 
ATOM      5  C   UNL d   1     -41.608-123.175 -48.877  0.00  0.00     0.099 A 
ATOM      6  C   UNL d   1     -42.719-123.060 -47.975  0.00  0.00     0.019 A 
ATOM      7  C   UNL d   1     -41.123-123.244 -48.207  0.00  0.00     0.021 A 
ATOM      8  C   UNL d   1     -42.199-123.131 -47.369  0.00  0.00     0.002 A 
ATOM      9  C   UNL d   1     -41.416-123.221 -47.513  0.00  0.00     0.002 A 
ENDROOT
BRANCH   1  10
ATOM     10  C   UNL d   1     -41.983-123.098 -50.797  0.00  0.00     0.037 A 
ATOM     11  C   UNL d   1     -41.982-122.408 -51.249  0.00  0.00     0.029 A 
ATOM     12  C   UNL d   1     -41.697-122.413 -52.024  0.00  0.00     0.116 A 
ATOM     13  C   UNL d   1     -41.409-123.121 -52.352  0.00  0.00     0.116 A 
ATOM     14  C   UNL d   1     -41.408-123.816 -51.901  0.00  0.00     0.026 A 
ATOM     15  C   UNL d   1     -41.694-123.806 -51.124  0.00  0.00     0.005 A 
BRANCH  12  16
ATOM     16  O   UNL d   1     -41.697-121.723 -52.475  0.00  0.00    -0.326 OA
ATOM     17  C   UNL d   1     -41.546-120.987 -52.124  0.00  0.00     0.181 C 
ENDBRANCH  12  16
BRANCH  13  18
ATOM     18  O   UNL d   1     -41.123-123.132 -53.128  0.00  0.00    -0.326 OA
ATOM     19  C   UNL d   1     -41.367-123.728 -53.655  0.00  0.00     0.181 C 
ENDBRANCH  13  18
ENDBRANCH   1  10
BRANCH   2  20
ATOM     20  C   UNL d   1     -43.558-122.931 -49.696  0.00  0.00     0.205 C 
BRANCH  20  21
ATOM     21  O   UNL d   1     -44.139-123.482 -49.554  0.00  0.00    -0.310 OA
ATOM     22  C   UNL d   1     -44.936-123.341 -49.677  0.00  0.00     0.183 C 
ENDBRANCH  20  21
ENDBRANCH   2  20
TORSDOF 5
ENDMDL
MODEL 2
REMARK VINA RESULT:       0.9      1.640      4.493
REMARK  5 active torsions:
REMARK  status: ('A' for Active; 'I' for Inactive)
REMARK    1  A    between atoms: C_6  and  C_1 
REMARK    2  A    between atoms: C_9  and  N_2 
REMARK    3  A    between atoms: O_13  and  C_8 
REMARK    4  A    between atoms: O_15  and  C_9 
REMARK    5  A    between atoms: O_14  and  C_10 
ROOT
ATOM      1  C   UNL d   1     -41.551-122.522 -52.643  0.00  0.00     0.149 A 
ATOM      2  N   UNL d   1     -41.395-121.950 -53.218  0.00  0.00    -0.269 N 
ATOM      3  N   UNL d   1     -41.825-123.187 -53.051  0.00  0.00    -0.227 NA
ATOM      4  C   UNL d   1     -41.567-122.251 -53.951  0.00  0.00     0.085 A 
ATOM      5  C   UNL d   1     -41.845-123.051 -53.843  0.00  0.00     0.099 A 
ATOM      6  C   UNL d   1     -41.516-121.932 -54.682  0.00  0.00     0.019 A 
ATOM      7  C   UNL d   1     -42.051-123.459 -54.536  0.00  0.00     0.021 A 
ATOM      8  C   UNL d   1     -41.730-122.378 -55.312  0.00  0.00     0.002 A 
ATOM      9  C   UNL d   1     -41.991-123.129 -55.211  0.00  0.00     0.002 A 
ENDROOT
BRANCH   1  10
ATOM     10  C   UNL d   1     -41.603-122.842 -51.912  0.00  0.00     0.037 A 
ATOM     11  C   UNL d   1     -42.138-122.529 -51.368  0.00  0.00     0.029 A 
ATOM     12  C   UNL d   1     -42.203-122.849 -50.609  0.00  0.00     0.116 A 
ATOM     13  C   UNL d   1     -41.723-123.493 -50.392  0.00  0.00     0.116 A 
ATOM     14  C   UNL d   1     -41.184-123.810 -50.935  0.00  0.00     0.026 A 
ATOM     15  C   UNL d   1     -41.123-123.486 -51.694  0.00  0.00     0.005 A 
BRANCH  12  16
ATOM     16  O   UNL d   1     -42.738-122.536 -50.066  0.00  0.00    -0.326 OA
ATOM     17  C   UNL d   1     -43.466-122.227 -50.318  0.00  0.00     0.181 C 
ENDBRANCH  12  16
BRANCH  13  18
ATOM     18  O   UNL d   1     -41.784-123.817 -49.633  0.00  0.00    -0.326 OA
ATOM     19  C   UNL d   1     -41.195-123.664 -49.065  0.00  0.00     0.181 C 
ENDBRANCH  13  18
ENDBRANCH   1  10
BRANCH   2  20
ATOM     20  C   UNL d   1     -41.126-121.270 -52.923  0.00  0.00     0.205 C 
BRANCH  20  21
ATOM     21  O   UNL d   1     -41.498-120.559 -53.058  0.00  0.00    -0.310 OA
ATOM     22  C   UNL d   1     -41.253-119.851 -52.728  0.00  0.00     0.183 C 
ENDBRANCH  20  21
ENDBRANCH   2  20
TORSDOF 5
ENDMDL
