MODEL 1
REMARK VINA RESULT:      17.7      0.000      0.000
REMARK  3 active torsions:
REMARK  status: ('A' for Active; 'I' for Inactive)
REMARK    1  A    between atoms: N_9  and  C_4 
REMARK       I    between atoms: C_7  and  N_10 
REMARK    2  A    between atoms: C_8  and  C_7 
REMARK    3  A    between atoms: N_10  and  N_9 
ROOT
ATOM      1  C   UNL d   1      45.927 -15.717  44.615  0.00  0.00     0.297 C 
ATOM      2  N   UNL d   1      45.854 -16.463  44.275  0.00  0.00    -0.104 NA
ATOM      3  O   UNL d   1      46.645 -15.483  44.947  0.00  0.00    -0.264 OA
ENDROOT
BRANCH   1   4
ATOM      4  C   UNL d   1      45.283 -15.206  44.625  0.00  0.00     0.059 A 
ATOM      5  C   UNL d   1      45.369 -14.441  44.314  0.00  0.00     0.005 A 
ATOM      6  C   UNL d   1      44.713 -13.934  44.329  0.00  0.00     0.000 A 
ATOM      7  C   UNL d   1      46.078 -14.196  44.003  0.00  0.00     0.000 A 
ATOM      8  C   UNL d   1      44.790 -13.177  44.024  0.00  0.00     0.000 A 
ATOM      9  C   UNL d   1      43.993 -14.183  44.645  0.00  0.00     0.000 A 
ATOM     10  C   UNL d   1      45.498 -12.927  43.712  0.00  0.00     0.000 A 
ATOM     11  C   UNL d   1      46.152 -13.440  43.700  0.00  0.00     0.000 A 
ATOM     12  C   UNL d   1      43.917 -14.943  44.951  0.00  0.00     0.000 A 
ATOM     13  C   UNL d   1      44.564 -15.458  44.942  0.00  0.00     0.005 A 
ENDBRANCH   1   4
BRANCH   2  14
ATOM     14  N   UNL d   1      46.499 -16.975  44.265  0.00  0.00    -0.127 NA
BRANCH  14  15
ATOM     15  C   UNL d   1      46.399 -17.763  44.035  0.00  0.00     0.178 A 
ATOM     16  N   UNL d   1      46.327 -17.957  43.240  0.00  0.00    -0.240 N 
ATOM     17  C   UNL d   1      46.228 -18.736  43.014  0.00  0.00     0.343 A 
ATOM     18  C   UNL d   1      46.355 -17.363  42.669  0.00  0.00     0.105 C 
ATOM     19  N   UNL d   1      46.200 -19.331  43.586  0.00  0.00    -0.224 N 
ATOM     20  O   UNL d   1      46.156 -18.930  42.214  0.00  0.00    -0.245 OA
ATOM     21  C   UNL d   1      46.271 -19.152  44.389  0.00  0.00     0.271 A 
ATOM     22  C   UNL d   1      46.100 -20.119  43.357  0.00  0.00     0.107 C 
ATOM     23  C   UNL d   1      46.371 -18.357  44.607  0.00  0.00     0.101 A 
ATOM     24  O   UNL d   1      46.243 -19.740  44.955  0.00  0.00    -0.266 OA
ENDBRANCH  14  15
ENDBRANCH   2  14
TORSDOF 3
ENDMDL
