MODEL 1
REMARK VINA RESULT:      -7.3      0.000      0.000
REMARK  2 active torsions:
REMARK  status: ('A' for Active; 'I' for Inactive)
REMARK       I    between atoms: N_2  and  C_1 
REMARK    1  A    between atoms: C_3  and  C_1 
REMARK    2  A    between atoms: C_4  and  N_2 
ROOT
ATOM      1  C   UNL d   1     -48.343  13.838  22.740  0.00  0.00     0.059 A 
ATOM      2  C   UNL d   1     -49.131  13.670  22.915  0.00  0.00     0.025 A 
ATOM      3  C   UNL d   1     -49.694  14.284  22.926  0.00  0.00     0.099 A 
ATOM      4  N   UNL d   1     -50.484  14.116  23.101  0.00  0.00    -0.241 NA
ATOM      5  N   UNL d   1     -50.009  15.671  22.769  0.00  0.00    -0.241 NA
ATOM      6  C   UNL d   1     -49.463  15.058  22.762  0.00  0.00     0.099 A 
ATOM      7  C   UNL d   1     -48.112  14.617  22.575  0.00  0.00     0.006 A 
ATOM      8  C   UNL d   1     -48.668  15.224  22.586  0.00  0.00     0.021 A 
ATOM      9  C   UNL d   1     -51.038  14.731  23.110  0.00  0.00     0.120 A 
ATOM     10  C   UNL d   1     -50.803  15.504  22.945  0.00  0.00     0.120 A 
ENDROOT
BRANCH   1  11
ATOM     11  C   UNL d   1     -47.788  13.231  22.730  0.00  0.00     0.281 C 
ATOM     12  N   UNL d   1     -47.297  13.108  23.382  0.00  0.00    -0.189 NA
ATOM     13  O   UNL d   1     -47.723  12.746  22.067  0.00  0.00    -0.265 OA
BRANCH  12  14
ATOM     14  C   UNL d   1     -46.741  12.501  23.370  0.00  0.00     0.166 A 
ATOM     15  N   UNL d   1     -46.002  12.630  23.028  0.00  0.00    -0.225 NA
ATOM     16  C   UNL d   1     -45.443  12.020  23.016  0.00  0.00     0.107 A 
ATOM     17  C   UNL d   1     -45.627  11.287  23.346  0.00  0.00     0.054 A 
ATOM     18  C   UNL d   1     -46.370  11.162  23.687  0.00  0.00     0.011 A 
ATOM     19 BR   UNL d   1     -45.071  10.678  23.334  0.00  0.00    -0.048 Br
ATOM     20  C   UNL d   1     -46.924  11.770  23.698  0.00  0.00     0.039 A 
ENDBRANCH  12  14
ENDBRANCH   1  11
TORSDOF 2
ENDMDL
MODEL 2
REMARK VINA RESULT:      -7.1      1.972      4.615
REMARK  2 active torsions:
REMARK  status: ('A' for Active; 'I' for Inactive)
REMARK       I    between atoms: N_2  and  C_1 
REMARK    1  A    between atoms: C_3  and  C_1 
REMARK    2  A    between atoms: C_4  and  N_2 
ROOT
ATOM      1  C   UNL d   1     -46.888  13.123  22.898  0.00  0.00     0.059 A 
ATOM      2  C   UNL d   1     -46.876  12.395  23.284  0.00  0.00     0.025 A 
ATOM      3  C   UNL d   1     -46.175  11.946  23.300  0.00  0.00     0.099 A 
ATOM      4  N   UNL d   1     -46.162  11.215  23.686  0.00  0.00    -0.241 NA
ATOM      5  N   UNL d   1     -44.798  11.794  22.939  0.00  0.00    -0.241 NA
ATOM      6  C   UNL d   1     -45.494  12.229  22.930  0.00  0.00     0.099 A 
ATOM      7  C   UNL d   1     -46.204  13.408  22.526  0.00  0.00     0.006 A 
ATOM      8  C   UNL d   1     -45.510  12.963  22.542  0.00  0.00     0.021 A 
ATOM      9  C   UNL d   1     -45.462  10.773  23.698  0.00  0.00     0.120 A 
ATOM     10  C   UNL d   1     -44.783  11.061  23.327  0.00  0.00     0.120 A 
ENDROOT
BRANCH   1  11
ATOM     11  C   UNL d   1     -47.581  13.567  22.883  0.00  0.00     0.281 C 
ATOM     12  N   UNL d   1     -48.289  13.221  22.639  0.00  0.00    -0.189 NA
ATOM     13  O   UNL d   1     -47.566  14.358  23.112  0.00  0.00    -0.265 OA
BRANCH  12  14
ATOM     14  C   UNL d   1     -48.982  13.666  22.624  0.00  0.00     0.166 A 
ATOM     15  N   UNL d   1     -49.474  13.675  23.286  0.00  0.00    -0.225 NA
ATOM     16  C   UNL d   1     -50.171  14.122  23.272  0.00  0.00     0.107 A 
ATOM     17  C   UNL d   1     -50.369  14.555  22.598  0.00  0.00     0.054 A 
ATOM     18  C   UNL d   1     -49.871  14.542  21.938  0.00  0.00     0.011 A 
ATOM     19 BR   UNL d   1     -51.062  15.001  22.583  0.00  0.00    -0.048 Br
ATOM     20  C   UNL d   1     -49.179  14.096  21.954  0.00  0.00     0.039 A 
ENDBRANCH  12  14
ENDBRANCH   1  11
TORSDOF 2
ENDMDL
MODEL 3
REMARK VINA RESULT:      -7.1      0.903      1.074
REMARK  2 active torsions:
REMARK  status: ('A' for Active; 'I' for Inactive)
REMARK       I    between atoms: N_2  and  C_1 
REMARK    1  A    between atoms: C_3  and  C_1 
REMARK    2  A    between atoms: C_4  and  N_2 
ROOT
ATOM      1  C   UNL d   1     -47.343  13.703  23.029  0.00  0.00     0.059 A 
ATOM      2  C   UNL d   1     -48.132  13.498  23.151  0.00  0.00     0.025 A 
ATOM      3  C   UNL d   1     -48.735  14.040  22.959  0.00  0.00     0.099 A 
ATOM      4  N   UNL d   1     -49.527  13.836  23.080  0.00  0.00    -0.241 NA
ATOM      5  N   UNL d   1     -49.128  15.321  22.456  0.00  0.00    -0.241 NA
ATOM      6  C   UNL d   1     -48.543  14.780  22.649  0.00  0.00     0.099 A 
ATOM      7  C   UNL d   1     -47.150  14.446  22.717  0.00  0.00     0.006 A 
ATOM      8  C   UNL d   1     -47.746  14.982  22.528  0.00  0.00     0.021 A 
ATOM      9  C   UNL d   1     -50.121  14.379  22.888  0.00  0.00     0.120 A 
ATOM     10  C   UNL d   1     -49.924  15.118  22.577  0.00  0.00     0.120 A 
ENDROOT
BRANCH   1  11
ATOM     11  C   UNL d   1     -46.748  13.167  23.219  0.00  0.00     0.281 C 
ATOM     12  N   UNL d   1     -46.779  12.395  22.930  0.00  0.00    -0.189 NA
ATOM     13  O   UNL d   1     -46.120  13.404  23.698  0.00  0.00    -0.265 OA
BRANCH  12  14
ATOM     14  C   UNL d   1     -46.182  11.859  23.121  0.00  0.00     0.166 A 
ATOM     15  N   UNL d   1     -45.401  12.032  22.921  0.00  0.00    -0.225 NA
ATOM     16  C   UNL d   1     -44.801  11.494  23.111  0.00  0.00     0.107 A 
ATOM     17  C   UNL d   1     -44.986  10.791  23.500  0.00  0.00     0.054 A 
ATOM     18  C   UNL d   1     -45.772  10.623  23.698  0.00  0.00     0.011 A 
ATOM     19 BR   UNL d   1     -44.390  10.255  23.691  0.00  0.00    -0.048 Br
ATOM     20  C   UNL d   1     -46.367  11.159  23.507  0.00  0.00     0.039 A 
ENDBRANCH  12  14
ENDBRANCH   1  11
TORSDOF 2
ENDMDL
MODEL 4
REMARK VINA RESULT:      -6.8      0.947      1.494
REMARK  2 active torsions:
REMARK  status: ('A' for Active; 'I' for Inactive)
REMARK       I    between atoms: N_2  and  C_1 
REMARK    1  A    between atoms: C_3  and  C_1 
REMARK    2  A    between atoms: C_4  and  N_2 
ROOT
ATOM      1  C   UNL d   1     -48.696  13.709  22.929  0.00  0.00     0.059 A 
ATOM      2  C   UNL d   1     -48.832  14.521  22.969  0.00  0.00     0.025 A 
ATOM      3  C   UNL d   1     -49.576  14.805  23.213  0.00  0.00     0.099 A 
ATOM      4  N   UNL d   1     -49.715  15.619  23.253  0.00  0.00    -0.241 NA
ATOM      5  N   UNL d   1     -50.911  14.543  23.657  0.00  0.00    -0.241 NA
ATOM      6  C   UNL d   1     -50.175  14.274  23.415  0.00  0.00     0.099 A 
ATOM      7  C   UNL d   1     -49.297  13.176  23.133  0.00  0.00     0.006 A 
ATOM      8  C   UNL d   1     -50.033  13.456  23.374  0.00  0.00     0.021 A 
ATOM      9  C   UNL d   1     -50.457  15.894  23.497  0.00  0.00     0.120 A 
ATOM     10  C   UNL d   1     -51.052  15.360  23.698  0.00  0.00     0.120 A 
ENDROOT
BRANCH   1  11
ATOM     11  C   UNL d   1     -47.960  13.429  22.688  0.00  0.00     0.281 C 
ATOM     12  N   UNL d   1     -47.296  13.549  23.162  0.00  0.00    -0.189 NA
ATOM     13  O   UNL d   1     -47.890  13.029  21.971  0.00  0.00    -0.265 OA
BRANCH  12  14
ATOM     14  C   UNL d   1     -46.560  13.269  22.919  0.00  0.00     0.166 A 
ATOM     15  N   UNL d   1     -46.303  12.527  23.172  0.00  0.00    -0.225 NA
ATOM     16  C   UNL d   1     -45.564  12.245  22.929  0.00  0.00     0.107 A 
ATOM     17  C   UNL d   1     -45.090  12.705  22.435  0.00  0.00     0.054 A 
ATOM     18  C   UNL d   1     -45.353  13.448  22.184  0.00  0.00     0.011 A 
ATOM     19 BR   UNL d   1     -44.354  12.425  22.192  0.00  0.00    -0.048 Br
ATOM     20  C   UNL d   1     -46.088  13.727  22.428  0.00  0.00     0.039 A 
ENDBRANCH  12  14
ENDBRANCH   1  11
TORSDOF 2
ENDMDL
MODEL 5
REMARK VINA RESULT:      -5.8      9.082      9.381
REMARK  2 active torsions:
REMARK  status: ('A' for Active; 'I' for Inactive)
REMARK       I    between atoms: N_2  and  C_1 
REMARK    1  A    between atoms: C_3  and  C_1 
REMARK    2  A    between atoms: C_4  and  N_2 
ROOT
ATOM      1  C   UNL d   1     -39.635  14.663  19.188  0.00  0.00     0.059 A 
ATOM      2  C   UNL d   1     -40.127  15.284  18.962  0.00  0.00     0.025 A 
ATOM      3  C   UNL d   1     -40.459  15.295  18.199  0.00  0.00     0.099 A 
ATOM      4  N   UNL d   1     -40.953  15.917  17.971  0.00  0.00    -0.241 NA
ATOM      5  N   UNL d   1     -40.617  14.684  16.914  0.00  0.00    -0.241 NA
ATOM      6  C   UNL d   1     -40.295  14.684  17.669  0.00  0.00     0.099 A 
ATOM      7  C   UNL d   1     -39.471  14.049  18.655  0.00  0.00     0.006 A 
ATOM      8  C   UNL d   1     -39.799  14.059  17.899  0.00  0.00     0.021 A 
ATOM      9  C   UNL d   1     -41.279  15.921  17.210  0.00  0.00     0.120 A 
ATOM     10  C   UNL d   1     -41.113  15.309  16.684  0.00  0.00     0.120 A 
ENDROOT
BRANCH   1  11
ATOM     11  C   UNL d   1     -39.308  14.653  19.943  0.00  0.00     0.281 C 
ATOM     12  N   UNL d   1     -39.766  14.425  20.590  0.00  0.00    -0.189 NA
ATOM     13  O   UNL d   1     -38.521  14.872  20.051  0.00  0.00    -0.265 OA
BRANCH  12  14
ATOM     14  C   UNL d   1     -39.438  14.416  21.345  0.00  0.00     0.166 A 
ATOM     15  N   UNL d   1     -39.392  15.116  21.778  0.00  0.00    -0.225 NA
ATOM     16  C   UNL d   1     -39.062  15.108  22.537  0.00  0.00     0.107 A 
ATOM     17  C   UNL d   1     -38.780  14.402  22.856  0.00  0.00     0.054 A 
ATOM     18  C   UNL d   1     -38.828  13.702  22.417  0.00  0.00     0.011 A 
ATOM     19 BR   UNL d   1     -38.451  14.392  23.611  0.00  0.00    -0.048 Br
ATOM     20  C   UNL d   1     -39.157  13.713  21.662  0.00  0.00     0.039 A 
ENDBRANCH  12  14
ENDBRANCH   1  11
TORSDOF 2
ENDMDL
MODEL 6
REMARK VINA RESULT:      -5.7      8.956      9.641
REMARK  2 active torsions:
REMARK  status: ('A' for Active; 'I' for Inactive)
REMARK       I    between atoms: N_2  and  C_1 
REMARK    1  A    between atoms: C_3  and  C_1 
REMARK    2  A    between atoms: C_4  and  N_2 
ROOT
ATOM      1  C   UNL d   1     -39.683  14.902  21.177  0.00  0.00     0.059 A 
ATOM      2  C   UNL d   1     -39.461  14.161  21.460  0.00  0.00     0.025 A 
ATOM      3  C   UNL d   1     -39.086  14.095  22.201  0.00  0.00     0.099 A 
ATOM      4  N   UNL d   1     -38.862  13.353  22.487  0.00  0.00    -0.241 NA
ATOM      5  N   UNL d   1     -38.568  14.719  23.381  0.00  0.00    -0.241 NA
ATOM      6  C   UNL d   1     -38.937  14.772  22.650  0.00  0.00     0.099 A 
ATOM      7  C   UNL d   1     -39.533  15.581  21.627  0.00  0.00     0.006 A 
ATOM      8  C   UNL d   1     -39.162  15.517  22.360  0.00  0.00     0.021 A 
ATOM      9  C   UNL d   1     -38.490  13.295  23.224  0.00  0.00     0.120 A 
ATOM     10  C   UNL d   1     -38.343  13.974  23.669  0.00  0.00     0.120 A 
ENDROOT
BRANCH   1  11
ATOM     11  C   UNL d   1     -40.053  14.965  20.444  0.00  0.00     0.281 C 
ATOM     12  N   UNL d   1     -39.603  15.050  19.758  0.00  0.00    -0.189 NA
ATOM     13  O   UNL d   1     -40.876  14.944  20.398  0.00  0.00    -0.265 OA
BRANCH  12  14
ATOM     14  C   UNL d   1     -39.975  15.113  19.026  0.00  0.00     0.166 A 
ATOM     15  N   UNL d   1     -40.187  15.857  18.740  0.00  0.00    -0.225 NA
ATOM     16  C   UNL d   1     -40.561  15.922  18.004  0.00  0.00     0.107 A 
ATOM     17  C   UNL d   1     -40.719  15.244  17.562  0.00  0.00     0.054 A 
ATOM     18  C   UNL d   1     -40.504  14.500  17.854  0.00  0.00     0.011 A 
ATOM     19 BR   UNL d   1     -41.091  15.307  16.829  0.00  0.00    -0.048 Br
ATOM     20  C   UNL d   1     -40.133  14.438  18.586  0.00  0.00     0.039 A 
ENDBRANCH  12  14
ENDBRANCH   1  11
TORSDOF 2
ENDMDL
MODEL 7
REMARK VINA RESULT:      -5.1      8.631     10.318
REMARK  2 active torsions:
REMARK  status: ('A' for Active; 'I' for Inactive)
REMARK       I    between atoms: N_2  and  C_1 
REMARK    1  A    between atoms: C_3  and  C_1 
REMARK    2  A    between atoms: C_4  and  N_2 
ROOT
ATOM      1  C   UNL d   1     -39.771  14.556  18.993  0.00  0.00     0.059 A 
ATOM      2  C   UNL d   1     -39.209  14.831  19.529  0.00  0.00     0.025 A 
ATOM      3  C   UNL d   1     -39.449  15.108  20.277  0.00  0.00     0.099 A 
ATOM      4  N   UNL d   1     -38.887  15.384  20.815  0.00  0.00    -0.241 NA
ATOM      5  N   UNL d   1     -40.497  15.378  21.213  0.00  0.00    -0.241 NA
ATOM      6  C   UNL d   1     -40.249  15.108  20.480  0.00  0.00     0.099 A 
ATOM      7  C   UNL d   1     -40.574  14.556  19.197  0.00  0.00     0.006 A 
ATOM      8  C   UNL d   1     -40.813  14.830  19.936  0.00  0.00     0.021 A 
ATOM      9  C   UNL d   1     -39.133  15.658  21.557  0.00  0.00     0.120 A 
ATOM     10  C   UNL d   1     -39.934  15.656  21.756  0.00  0.00     0.120 A 
ENDROOT
BRANCH   1  11
ATOM     11  C   UNL d   1     -39.532  14.283  18.254  0.00  0.00     0.281 C 
ATOM     12  N   UNL d   1     -38.893  14.634  17.869  0.00  0.00    -0.189 NA
ATOM     13  O   UNL d   1     -39.934  13.656  17.900  0.00  0.00    -0.265 OA
BRANCH  12  14
ATOM     14  C   UNL d   1     -38.655  14.360  17.130  0.00  0.00     0.166 A 
ATOM     15  N   UNL d   1     -38.180  13.687  17.079  0.00  0.00    -0.225 NA
ATOM     16  C   UNL d   1     -37.940  13.410  16.337  0.00  0.00     0.107 A 
ATOM     17  C   UNL d   1     -38.177  13.807  15.653  0.00  0.00     0.054 A 
ATOM     18  C   UNL d   1     -38.654  14.481  15.710  0.00  0.00     0.011 A 
ATOM     19 BR   UNL d   1     -37.940  13.532  14.913  0.00  0.00    -0.048 Br
ATOM     20  C   UNL d   1     -38.891  14.754  16.450  0.00  0.00     0.039 A 
ENDBRANCH  12  14
ENDBRANCH   1  11
TORSDOF 2
ENDMDL
