MODEL 1
REMARK VINA RESULT:      -6.0      0.000      0.000
REMARK  4 active torsions:
REMARK  status: ('A' for Active; 'I' for Inactive)
REMARK       I    between atoms: C_6  and  N_7 
REMARK    1  A    between atoms: C_8  and  C_6 
REMARK    2  A    between atoms: N_7  and  C_14 
REMARK    3  A    between atoms: C_14  and  C_13 
REMARK    4  A    between atoms: O_17  and  C_15 
ROOT
ATOM      1  C   UNL d   1     -41.602-122.429 -50.539  0.00  0.00     0.279 C 
ATOM      2  N   UNL d   1     -41.606-122.728 -51.305  0.00  0.00    -0.206 NA
ATOM      3  O   UNL d   1     -41.188-121.735 -50.372  0.00  0.00    -0.265 OA
ENDROOT
BRANCH   2   4
ATOM      4  C   UNL d   1     -41.201-122.340 -51.908  0.00  0.00     0.102 C 
BRANCH   4   5
ATOM      5  C   UNL d   1     -41.346-122.532 -52.697  0.00  0.00     0.019 A 
ATOM      6  C   UNL d   1     -41.123-123.268 -52.995  0.00  0.00     0.003 A 
ATOM      7  C   UNL d   1     -41.273-123.454 -53.790  0.00  0.00     0.019 A 
ATOM      8  C   UNL d   1     -41.643-122.906 -54.281  0.00  0.00     0.081 A 
ATOM      9  C   UNL d   1     -41.866-122.170 -53.983  0.00  0.00     0.019 A 
ATOM     10  N   UNL d   1     -41.855-122.943 -55.074  0.00  0.00    -0.246 NA
ATOM     11  C   UNL d   1     -41.720-121.981 -53.194  0.00  0.00     0.003 A 
ATOM     12  C   UNL d   1     -42.220-121.748 -54.599  0.00  0.00     0.021 A 
ATOM     13  C   UNL d   1     -42.212-122.224 -55.270  0.00  0.00     0.082 A 
ATOM     14  C   UNL d   1     -42.510-122.020 -56.013  0.00  0.00     0.021 C 
ENDBRANCH   4   5
ENDBRANCH   2   4
BRANCH   1  15
ATOM     15  C   UNL d   1     -42.010-122.823 -49.942  0.00  0.00     0.060 A 
ATOM     16  C   UNL d   1     -41.602-123.114 -49.286  0.00  0.00     0.029 A 
ATOM     17  C   UNL d   1     -42.011-123.507 -48.692  0.00  0.00     0.094 A 
ATOM     18  C   UNL d   1     -42.840-123.612 -48.753  0.00  0.00     0.024 A 
ATOM     19  C   UNL d   1     -43.248-123.320 -49.408  0.00  0.00     0.002 A 
ATOM     20  C   UNL d   1     -42.830-122.922 -50.011  0.00  0.00     0.005 A 
BRANCH  17  21
ATOM     21  O   UNL d   1     -41.608-123.803 -48.030  0.00  0.00    -0.328 OA
ATOM     22  C   UNL d   1     -41.750-123.488 -47.279  0.00  0.00     0.181 C 
ENDBRANCH  17  21
ENDBRANCH   1  15
TORSDOF 4
ENDMDL
MODEL 2
REMARK VINA RESULT:      -3.5      1.560      5.234
REMARK  4 active torsions:
REMARK  status: ('A' for Active; 'I' for Inactive)
REMARK       I    between atoms: C_6  and  N_7 
REMARK    1  A    between atoms: C_8  and  C_6 
REMARK    2  A    between atoms: N_7  and  C_14 
REMARK    3  A    between atoms: C_14  and  C_13 
REMARK    4  A    between atoms: O_17  and  C_15 
ROOT
ATOM      1  C   UNL d   1     -41.578-121.981 -52.541  0.00  0.00     0.279 C 
ATOM      2  N   UNL d   1     -41.478-122.450 -51.873  0.00  0.00    -0.206 NA
ATOM      3  O   UNL d   1     -41.594-121.159 -52.466  0.00  0.00    -0.265 OA
ENDROOT
BRANCH   2   4
ATOM      4  C   UNL d   1     -41.393-122.107 -51.130  0.00  0.00     0.102 C 
BRANCH   4   5
ATOM      5  C   UNL d   1     -41.492-122.562 -50.449  0.00  0.00     0.019 A 
ATOM      6  C   UNL d   1     -41.141-123.307 -50.391  0.00  0.00     0.003 A 
ATOM      7  C   UNL d   1     -41.245-123.758 -49.701  0.00  0.00     0.019 A 
ATOM      8  C   UNL d   1     -41.697-123.465 -49.078  0.00  0.00     0.081 A 
ATOM      9  C   UNL d   1     -42.047-122.721 -49.136  0.00  0.00     0.019 A 
ATOM     10  N   UNL d   1     -41.887-123.788 -48.346  0.00  0.00    -0.246 NA
ATOM     11  C   UNL d   1     -41.946-122.269 -49.818  0.00  0.00     0.003 A 
ATOM     12  C   UNL d   1     -42.458-122.582 -48.434  0.00  0.00     0.021 A 
ATOM     13  C   UNL d   1     -42.359-123.240 -47.948  0.00  0.00     0.082 A 
ATOM     14  C   UNL d   1     -42.677-123.336 -47.191  0.00  0.00     0.021 C 
ENDBRANCH   4   5
ENDBRANCH   2   4
BRANCH   1  15
ATOM     15  C   UNL d   1     -41.662-122.332 -53.282  0.00  0.00     0.060 A 
ATOM     16  C   UNL d   1     -41.462-121.912 -53.963  0.00  0.00     0.029 A 
ATOM     17  C   UNL d   1     -41.547-122.264 -54.700  0.00  0.00     0.094 A 
ATOM     18  C   UNL d   1     -41.836-123.048 -54.759  0.00  0.00     0.024 A 
ATOM     19  C   UNL d   1     -42.036-123.468 -54.078  0.00  0.00     0.002 A 
ATOM     20  C   UNL d   1     -41.949-123.108 -53.330  0.00  0.00     0.005 A 
BRANCH  17  21
ATOM     21  O   UNL d   1     -41.348-121.848 -55.389  0.00  0.00    -0.328 OA
ATOM     22  C   UNL d   1     -41.921-121.693 -55.965  0.00  0.00     0.181 C 
ENDBRANCH  17  21
ENDBRANCH   1  15
TORSDOF 4
ENDMDL
MODEL 3
REMARK VINA RESULT:      -3.3      1.659      5.279
REMARK  4 active torsions:
REMARK  status: ('A' for Active; 'I' for Inactive)
REMARK       I    between atoms: C_6  and  N_7 
REMARK    1  A    between atoms: C_8  and  C_6 
REMARK    2  A    between atoms: N_7  and  C_14 
REMARK    3  A    between atoms: C_14  and  C_13 
REMARK    4  A    between atoms: O_17  and  C_15 
ROOT
ATOM      1  C   UNL d   1     -41.461-123.088 -53.079  0.00  0.00     0.279 C 
ATOM      2  N   UNL d   1     -41.569-122.878 -52.291  0.00  0.00    -0.206 NA
ATOM      3  O   UNL d   1     -41.123-123.817 -53.266  0.00  0.00    -0.265 OA
ENDROOT
BRANCH   2   4
ATOM      4  C   UNL d   1     -41.343-123.389 -51.687  0.00  0.00     0.102 C 
BRANCH   4   5
ATOM      5  C   UNL d   1     -41.498-123.196 -50.900  0.00  0.00     0.019 A 
ATOM      6  C   UNL d   1     -41.129-122.546 -50.550  0.00  0.00     0.003 A 
ATOM      7  C   UNL d   1     -41.290-122.359 -49.757  0.00  0.00     0.019 A 
ATOM      8  C   UNL d   1     -41.815-122.820 -49.321  0.00  0.00     0.081 A 
ATOM      9  C   UNL d   1     -42.183-123.470 -49.671  0.00  0.00     0.019 A 
ATOM     10  N   UNL d   1     -42.071-122.762 -48.542  0.00  0.00    -0.246 NA
ATOM     11  C   UNL d   1     -42.027-123.659 -50.457  0.00  0.00     0.003 A 
ATOM     12  C   UNL d   1     -42.671-123.817 -49.102  0.00  0.00     0.021 A 
ATOM     13  C   UNL d   1     -42.601-123.381 -48.407  0.00  0.00     0.082 A 
ATOM     14  C   UNL d   1     -42.994-123.534 -47.697  0.00  0.00     0.021 C 
ENDBRANCH   4   5
ENDBRANCH   2   4
BRANCH   1  15
ATOM     15  C   UNL d   1     -41.690-122.570 -53.677  0.00  0.00     0.060 A 
ATOM     16  C   UNL d   1     -41.958-122.866 -54.399  0.00  0.00     0.029 A 
ATOM     17  C   UNL d   1     -42.186-122.349 -54.995  0.00  0.00     0.094 A 
ATOM     18  C   UNL d   1     -42.146-121.521 -54.868  0.00  0.00     0.024 A 
ATOM     19  C   UNL d   1     -41.879-121.225 -54.146  0.00  0.00     0.002 A 
ATOM     20  C   UNL d   1     -41.648-121.753 -53.543  0.00  0.00     0.005 A 
BRANCH  17  21
ATOM     21  O   UNL d   1     -42.456-122.639 -55.723  0.00  0.00    -0.328 OA
ATOM     22  C   UNL d   1     -43.069-122.256 -56.125  0.00  0.00     0.181 C 
ENDBRANCH  17  21
ENDBRANCH   1  15
TORSDOF 4
ENDMDL
