MODEL 1
REMARK VINA RESULT:      48.9      0.000      0.000
REMARK  2 active torsions:
REMARK  status: ('A' for Active; 'I' for Inactive)
REMARK    1  A    between atoms: C_9  and  C_1 
REMARK    2  A    between atoms: N_7  and  C_2 
ROOT
ATOM      1  C   UNL d   1      14.144  13.379  -2.409  0.00  0.00     0.022 A 
ATOM      2  C   UNL d   1      14.397  12.974  -1.743  0.00  0.00     0.123 A 
ATOM      3  C   UNL d   1      14.235  12.184  -1.657  0.00  0.00     0.295 A 
ATOM      4  C   UNL d   1      13.717  12.977  -3.005  0.00  0.00     0.020 A 
ATOM      5  N   UNL d   1      13.817  11.779  -2.236  0.00  0.00    -0.207 NA
ATOM      6  C   UNL d   1      13.556  12.187  -2.920  0.00  0.00     0.085 A 
ATOM      7  C   UNL d   1      13.468  13.381  -3.665  0.00  0.00     0.013 A 
ATOM      8  O   UNL d   1      14.510  11.799  -0.959  0.00  0.00    -0.264 OA
ATOM      9  C   UNL d   1      13.142  11.781  -3.492  0.00  0.00     0.020 A 
ATOM     10  C   UNL d   1      13.041  12.979  -4.261  0.00  0.00     0.058 A 
ATOM     11  C   UNL d   1      12.880  12.189  -4.176  0.00  0.00     0.013 A 
ATOM     12 CL   UNL d   1      12.769  13.364  -4.955  0.00  0.00    -0.082 Cl
ENDROOT
BRANCH   1  13
ATOM     13  C   UNL d   1      14.310  14.192  -2.497  0.00  0.00     0.002 A 
ATOM     14  C   UNL d   1      14.125  14.715  -1.900  0.00  0.00     0.000 A 
ATOM     15  C   UNL d   1      14.289  15.516  -1.987  0.00  0.00     0.000 A 
ATOM     16  C   UNL d   1      14.642  15.786  -2.683  0.00  0.00     0.000 A 
ATOM     17  C   UNL d   1      14.829  15.266  -3.283  0.00  0.00     0.000 A 
ATOM     18  C   UNL d   1      14.663  14.453  -3.195  0.00  0.00     0.000 A 
ENDBRANCH   1  13
BRANCH   2  19
ATOM     19  N   UNL d   1      14.808  13.377  -1.174  0.00  0.00    -0.296 N 
ATOM     20  C   UNL d   1      15.641  13.351  -1.177  0.00  0.00     0.107 A 
ATOM     21  C   UNL d   1      16.074  13.759  -0.599  0.00  0.00     0.142 A 
ATOM     22  O   UNL d   1      15.671  14.197  -0.014  0.00  0.00    -0.300 OA
ATOM     23  C   UNL d   1      14.849  14.221  -0.014  0.00  0.00     0.142 A 
ATOM     24  C   UNL d   1      14.409  13.815  -0.588  0.00  0.00     0.107 A 
ENDBRANCH   2  19
TORSDOF 2
ENDMDL
