MODEL 1
REMARK VINA RESULT:      -7.2      0.000      0.000
REMARK  3 active torsions:
REMARK  status: ('A' for Active; 'I' for Inactive)
REMARK    1  A    between atoms: N_3  and  C_1 
REMARK       I    between atoms: C_5  and  N_3 
REMARK    2  A    between atoms: C_6  and  C_5 
REMARK    3  A    between atoms: O_19  and  C_17 
ROOT
ATOM      1  N   UNL d   1     -41.834-123.372 -51.546  0.00  0.00    -0.181 NA
ATOM      2  C   UNL d   1     -41.545-122.743 -51.993  0.00  0.00     0.306 C 
ATOM      3  O   UNL d   1     -41.254-122.056 -51.604  0.00  0.00    -0.263 OA
ENDROOT
BRANCH   1   4
ATOM      4  C   UNL d   1     -41.843-123.336 -50.724  0.00  0.00     0.197 A 
ATOM      5  N   UNL d   1     -42.465-123.030 -50.271  0.00  0.00    -0.221 NA
ATOM      6  C   UNL d   1     -42.242-123.104 -49.475  0.00  0.00     0.090 A 
ATOM      7  C   UNL d   1     -42.634-122.895 -48.780  0.00  0.00     0.022 A 
ATOM      8  C   UNL d   1     -41.496-123.450 -49.452  0.00  0.00     0.052 A 
ATOM      9  C   UNL d   1     -42.260-123.042 -48.055  0.00  0.00     0.026 A 
ATOM     10  C   UNL d   1     -41.522-123.384 -48.032  0.00  0.00     0.095 A 
ATOM     11  C   UNL d   1     -41.123-123.596 -48.726  0.00  0.00     0.032 A 
ATOM     12  S   UNL d   1     -41.262-123.588 -50.221  0.00  0.00    -0.047 SA
BRANCH  10  13
ATOM     13  O   UNL d   1     -41.131-123.538 -47.287  0.00  0.00    -0.328 OA
ATOM     14  C   UNL d   1     -41.182-122.964 -46.676  0.00  0.00     0.181 C 
ENDBRANCH  10  13
ENDBRANCH   1   4
BRANCH   2  15
ATOM     15  C   UNL d   1     -41.536-122.779 -52.816  0.00  0.00     0.182 A 
ATOM     16  O   UNL d   1     -41.937-122.203 -53.242  0.00  0.00    -0.298 OA
ATOM     17  C   UNL d   1     -41.930-122.236 -54.077  0.00  0.00     0.123 A 
ATOM     18  C   UNL d   1     -42.333-121.659 -54.515  0.00  0.00     0.027 A 
ATOM     19  C   UNL d   1     -41.526-122.837 -54.455  0.00  0.00     0.123 A 
ATOM     20  C   UNL d   1     -42.321-121.699 -55.339  0.00  0.00     0.002 A 
ATOM     21  C   UNL d   1     -41.923-122.291 -55.724  0.00  0.00     0.002 A 
ATOM     22  C   UNL d   1     -41.520-122.868 -55.285  0.00  0.00     0.027 A 
ATOM     23  O   UNL d   1     -41.123-123.414 -54.017  0.00  0.00    -0.301 OA
ATOM     24  C   UNL d   1     -41.136-123.373 -53.198  0.00  0.00     0.152 A 
ENDBRANCH   2  15
TORSDOF 3
ENDMDL
MODEL 2
REMARK VINA RESULT:      -5.9      1.104      5.565
REMARK  3 active torsions:
REMARK  status: ('A' for Active; 'I' for Inactive)
REMARK    1  A    between atoms: N_3  and  C_1 
REMARK       I    between atoms: C_5  and  N_3 
REMARK    2  A    between atoms: C_6  and  C_5 
REMARK    3  A    between atoms: O_19  and  C_17 
ROOT
ATOM      1  N   UNL d   1     -41.316-122.817 -50.911  0.00  0.00    -0.181 NA
ATOM      2  C   UNL d   1     -41.869-123.258 -50.489  0.00  0.00     0.306 C 
ATOM      3  O   UNL d   1     -42.502-123.633 -50.899  0.00  0.00    -0.263 OA
ENDROOT
BRANCH   1   4
ATOM      4  C   UNL d   1     -41.373-122.738 -51.729  0.00  0.00     0.197 A 
ATOM      5  N   UNL d   1     -41.149-123.318 -52.276  0.00  0.00    -0.221 NA
ATOM      6  C   UNL d   1     -41.300-123.007 -53.031  0.00  0.00     0.090 A 
ATOM      7  C   UNL d   1     -41.190-123.328 -53.781  0.00  0.00     0.022 A 
ATOM      8  C   UNL d   1     -41.612-122.251 -52.935  0.00  0.00     0.052 A 
ATOM      9  C   UNL d   1     -41.398-122.874 -54.442  0.00  0.00     0.026 A 
ATOM     10  C   UNL d   1     -41.706-122.126 -54.349  0.00  0.00     0.095 A 
ATOM     11  C   UNL d   1     -41.820-121.797 -53.597  0.00  0.00     0.032 A 
ATOM     12  S   UNL d   1     -41.651-122.098 -52.136  0.00  0.00    -0.047 SA
BRANCH  10  13
ATOM     13  O   UNL d   1     -41.924-121.651 -55.026  0.00  0.00    -0.328 OA
ATOM     14  C   UNL d   1     -42.508-121.942 -55.554  0.00  0.00     0.181 C 
ENDBRANCH  10  13
ENDBRANCH   1   4
BRANCH   2  15
ATOM     15  C   UNL d   1     -41.812-123.337 -49.671  0.00  0.00     0.182 A 
ATOM     16  O   UNL d   1     -42.397-123.008 -49.199  0.00  0.00    -0.298 OA
ATOM     17  C   UNL d   1     -42.341-123.087 -48.369  0.00  0.00     0.123 A 
ATOM     18  C   UNL d   1     -42.928-122.758 -47.884  0.00  0.00     0.027 A 
ATOM     19  C   UNL d   1     -41.709-123.488 -48.041  0.00  0.00     0.123 A 
ATOM     20  C   UNL d   1     -42.866-122.840 -47.066  0.00  0.00     0.002 A 
ATOM     21  C   UNL d   1     -42.242-123.236 -46.731  0.00  0.00     0.002 A 
ATOM     22  C   UNL d   1     -41.656-123.565 -47.216  0.00  0.00     0.027 A 
ATOM     23  O   UNL d   1     -41.123-123.817 -48.526  0.00  0.00    -0.301 OA
ATOM     24  C   UNL d   1     -41.186-123.734 -49.340  0.00  0.00     0.152 A 
ENDBRANCH   2  15
TORSDOF 3
ENDMDL
