MODEL 1
REMARK VINA RESULT:      -3.0      0.000      0.000
REMARK  1 active torsions:
REMARK  status: ('A' for Active; 'I' for Inactive)
REMARK    1  A    between atoms: C_7  and  C_1 
ROOT
ATOM      1  C   UNL d   1      29.368  16.544 -24.082  0.00  0.00     0.122 A 
ATOM      2  C   UNL d   1      29.446  17.246 -24.532  0.00  0.00     0.285 A 
ATOM      3  C   UNL d   1      30.041  16.211 -23.747  0.00  0.00     0.012 A 
ATOM      4  N   UNL d   1      30.182  17.601 -24.640  0.00  0.00    -0.208 NA
ATOM      5  C   UNL d   1      30.855  17.254 -24.296  0.00  0.00     0.085 A 
ATOM      6  C   UNL d   1      30.789  16.558 -23.849  0.00  0.00     0.018 A 
ATOM      7  O   UNL d   1      28.774  17.586 -24.871  0.00  0.00    -0.265 OA
ATOM      8  C   UNL d   1      31.593  17.605 -24.401  0.00  0.00     0.019 A 
ATOM      9  C   UNL d   1      31.449  16.215 -23.509  0.00  0.00     0.002 A 
ATOM     10  C   UNL d   1      32.188  16.570 -23.616  0.00  0.00     0.000 A 
ATOM     11  C   UNL d   1      32.258  17.257 -24.058  0.00  0.00     0.002 A 
ENDROOT
BRANCH   1  12
ATOM     12  C   UNL d   1      28.637  16.196 -23.978  0.00  0.00     0.216 C 
ATOM     13  O   UNL d   1      28.400  15.575 -24.487  0.00  0.00    -0.644 OA
ATOM     14  O   UNL d   1      28.133  16.451 -23.379  0.00  0.00    -0.644 OA
ENDBRANCH   1  12
TORSDOF 1
ENDMDL
MODEL 2
REMARK VINA RESULT:      -2.9      1.712      2.811
REMARK  1 active torsions:
REMARK  status: ('A' for Active; 'I' for Inactive)
REMARK    1  A    between atoms: C_7  and  C_1 
ROOT
ATOM      1  C   UNL d   1      31.239  16.731 -23.971  0.00  0.00     0.122 A 
ATOM      2  C   UNL d   1      30.796  17.331 -24.351  0.00  0.00     0.285 A 
ATOM      3  C   UNL d   1      30.836  16.120 -23.596  0.00  0.00     0.012 A 
ATOM      4  N   UNL d   1      29.972  17.316 -24.353  0.00  0.00    -0.208 NA
ATOM      5  C   UNL d   1      29.578  16.692 -23.970  0.00  0.00     0.085 A 
ATOM      6  C   UNL d   1      30.005  16.092 -23.590  0.00  0.00     0.018 A 
ATOM      7  O   UNL d   1      31.195  17.949 -24.730  0.00  0.00    -0.265 OA
ATOM      8  C   UNL d   1      28.754  16.672 -23.969  0.00  0.00     0.019 A 
ATOM      9  C   UNL d   1      29.619  15.478 -23.213  0.00  0.00     0.002 A 
ATOM     10  C   UNL d   1      28.792  15.460 -23.214  0.00  0.00     0.000 A 
ATOM     11  C   UNL d   1      28.366  16.052 -23.588  0.00  0.00     0.002 A 
ENDROOT
BRANCH   1  12
ATOM     12  C   UNL d   1      32.055  16.751 -23.972  0.00  0.00     0.216 C 
ATOM     13  O   UNL d   1      32.458  17.135 -23.347  0.00  0.00    -0.644 OA
ATOM     14  O   UNL d   1      32.482  16.398 -24.580  0.00  0.00    -0.644 OA
ENDBRANCH   1  12
TORSDOF 1
ENDMDL
MODEL 3
REMARK VINA RESULT:      -2.7      5.927      6.695
REMARK  1 active torsions:
REMARK  status: ('A' for Active; 'I' for Inactive)
REMARK    1  A    between atoms: C_7  and  C_1 
ROOT
ATOM      1  C   UNL d   1      32.512  22.735 -21.149  0.00  0.00     0.122 A 
ATOM      2  C   UNL d   1      32.702  22.886 -21.950  0.00  0.00     0.285 A 
ATOM      3  C   UNL d   1      32.558  21.962 -20.871  0.00  0.00     0.012 A 
ATOM      4  N   UNL d   1      32.930  22.277 -22.456  0.00  0.00    -0.208 NA
ATOM      5  C   UNL d   1      32.972  21.500 -22.162  0.00  0.00     0.085 A 
ATOM      6  C   UNL d   1      32.787  21.339 -21.371  0.00  0.00     0.018 A 
ATOM      7  O   UNL d   1      32.658  23.661 -22.237  0.00  0.00    -0.265 OA
ATOM      8  C   UNL d   1      33.200  20.887 -22.664  0.00  0.00     0.019 A 
ATOM      9  C   UNL d   1      32.828  20.575 -21.080  0.00  0.00     0.002 A 
ATOM     10  C   UNL d   1      33.057  19.962 -21.585  0.00  0.00     0.000 A 
ATOM     11  C   UNL d   1      33.241  20.118 -22.369  0.00  0.00     0.002 A 
ENDROOT
BRANCH   1  12
ATOM     12  C   UNL d   1      32.287  23.342 -20.653  0.00  0.00     0.216 C 
ATOM     13  O   UNL d   1      31.514  23.658 -20.714  0.00  0.00    -0.644 OA
ATOM     14  O   UNL d   1      32.811  23.644 -20.095  0.00  0.00    -0.644 OA
ENDBRANCH   1  12
TORSDOF 1
ENDMDL
MODEL 4
REMARK VINA RESULT:      -2.5      1.664      2.317
REMARK  1 active torsions:
REMARK  status: ('A' for Active; 'I' for Inactive)
REMARK    1  A    between atoms: C_7  and  C_1 
ROOT
ATOM      1  C   UNL d   1      31.172  16.660 -24.066  0.00  0.00     0.122 A 
ATOM      2  C   UNL d   1      31.619  16.305 -23.453  0.00  0.00     0.285 A 
ATOM      3  C   UNL d   1      31.368  17.420 -24.309  0.00  0.00     0.012 A 
ATOM      4  N   UNL d   1      32.245  16.706 -23.097  0.00  0.00    -0.208 NA
ATOM      5  C   UNL d   1      32.433  17.475 -23.353  0.00  0.00     0.085 A 
ATOM      6  C   UNL d   1      31.997  17.835 -23.959  0.00  0.00     0.018 A 
ATOM      7  O   UNL d   1      31.428  15.541 -23.203  0.00  0.00    -0.265 OA
ATOM      8  C   UNL d   1      33.058  17.880 -23.000  0.00  0.00     0.019 A 
ATOM      9  C   UNL d   1      32.180  18.591 -24.212  0.00  0.00     0.002 A 
ATOM     10  C   UNL d   1      32.807  18.996 -23.857  0.00  0.00     0.000 A 
ATOM     11  C   UNL d   1      33.241  18.642 -23.257  0.00  0.00     0.002 A 
ENDROOT
BRANCH   1  12
ATOM     12  C   UNL d   1      30.554  16.258 -24.415  0.00  0.00     0.216 C 
ATOM     13  O   UNL d   1      30.714  15.685 -25.003  0.00  0.00    -0.644 OA
ATOM     14  O   UNL d   1      29.776  16.412 -24.194  0.00  0.00    -0.644 OA
ENDBRANCH   1  12
TORSDOF 1
ENDMDL
MODEL 5
REMARK VINA RESULT:      -2.4      4.326      5.117
REMARK  1 active torsions:
REMARK  status: ('A' for Active; 'I' for Inactive)
REMARK    1  A    between atoms: C_7  and  C_1 
ROOT
ATOM      1  C   UNL d   1      32.772  20.588 -21.664  0.00  0.00     0.122 A 
ATOM      2  C   UNL d   1      32.966  21.111 -22.288  0.00  0.00     0.285 A 
ATOM      3  C   UNL d   1      32.739  19.781 -21.820  0.00  0.00     0.012 A 
ATOM      4  N   UNL d   1      33.123  20.829 -23.046  0.00  0.00    -0.208 NA
ATOM      5  C   UNL d   1      33.086  20.010 -23.190  0.00  0.00     0.085 A 
ATOM      6  C   UNL d   1      32.894  19.483 -22.580  0.00  0.00     0.018 A 
ATOM      7  O   UNL d   1      33.002  21.923 -22.139  0.00  0.00    -0.265 OA
ATOM      8  C   UNL d   1      33.241  19.723 -23.947  0.00  0.00     0.019 A 
ATOM      9  C   UNL d   1      32.857  18.678 -22.719  0.00  0.00     0.002 A 
ATOM     10  C   UNL d   1      33.013  18.392 -23.480  0.00  0.00     0.000 A 
ATOM     11  C   UNL d   1      33.203  18.911 -24.086  0.00  0.00     0.002 A 
ENDROOT
BRANCH   1  12
ATOM     12  C   UNL d   1      32.618  20.872 -20.915  0.00  0.00     0.216 C 
ATOM     13  O   UNL d   1      31.840  21.109 -20.716  0.00  0.00    -0.644 OA
ATOM     14  O   UNL d   1      33.220  20.928 -20.356  0.00  0.00    -0.644 OA
ENDBRANCH   1  12
TORSDOF 1
ENDMDL
MODEL 6
REMARK VINA RESULT:      -0.7      1.053      1.806
REMARK  1 active torsions:
REMARK  status: ('A' for Active; 'I' for Inactive)
REMARK    1  A    between atoms: C_7  and  C_1 
ROOT
ATOM      1  C   UNL d   1      30.284  17.484 -24.429  0.00  0.00     0.122 A 
ATOM      2  C   UNL d   1      30.220  16.651 -24.389  0.00  0.00     0.285 A 
ATOM      3  C   UNL d   1      31.034  17.822 -24.452  0.00  0.00     0.012 A 
ATOM      4  N   UNL d   1      30.891  16.172 -24.371  0.00  0.00    -0.208 NA
ATOM      5  C   UNL d   1      31.642  16.527 -24.395  0.00  0.00     0.085 A 
ATOM      6  C   UNL d   1      31.718  17.352 -24.435  0.00  0.00     0.018 A 
ATOM      7  O   UNL d   1      29.470  16.303 -24.365  0.00  0.00    -0.265 OA
ATOM      8  C   UNL d   1      32.317  16.054 -24.378  0.00  0.00     0.019 A 
ATOM      9  C   UNL d   1      32.457  17.703 -24.459  0.00  0.00     0.002 A 
ATOM     10  C   UNL d   1      33.132  17.226 -24.442  0.00  0.00     0.000 A 
ATOM     11  C   UNL d   1      33.061  16.410 -24.402  0.00  0.00     0.002 A 
ENDROOT
BRANCH   1  12
ATOM     12  C   UNL d   1      29.617  17.953 -24.446  0.00  0.00     0.216 C 
ATOM     13  O   UNL d   1      29.446  18.451 -23.795  0.00  0.00    -0.644 OA
ATOM     14  O   UNL d   1      29.112  17.940 -25.096  0.00  0.00    -0.644 OA
ENDBRANCH   1  12
TORSDOF 1
ENDMDL
