MODEL 1
REMARK VINA RESULT:      -7.9      0.000      0.000
REMARK  4 active torsions:
REMARK  status: ('A' for Active; 'I' for Inactive)
REMARK    1  A    between atoms: C_6  and  N_1 
REMARK    2  A    between atoms: C_8  and  C_14 
REMARK    3  A    between atoms: O_20  and  C_8 
REMARK    4  A    between atoms: C_22  and  O_20 
ROOT
ATOM      1  N   UNL d   1     -48.147  13.970  22.952  0.00  0.00    -0.242 N 
ATOM      2  C   UNL d   1     -48.377  14.778  22.828  0.00  0.00     0.267 A 
ATOM      3  C   UNL d   1     -48.694  13.553  23.203  0.00  0.00     0.267 A 
ATOM      4  C   UNL d   1     -49.172  14.787  23.051  0.00  0.00     0.061 A 
ATOM      5  C   UNL d   1     -49.373  14.010  23.288  0.00  0.00     0.061 A 
ATOM      6  C   UNL d   1     -50.144  13.822  23.549  0.00  0.00     0.005 A 
ATOM      7  C   UNL d   1     -49.744  15.367  23.077  0.00  0.00     0.005 A 
ATOM      8  O   UNL d   1     -47.940  15.413  22.557  0.00  0.00    -0.267 OA
ATOM      9  O   UNL d   1     -48.632  12.740  23.375  0.00  0.00    -0.267 OA
ATOM     10  C   UNL d   1     -50.691  14.434  23.561  0.00  0.00     0.000 A 
ATOM     11  C   UNL d   1     -50.490  15.211  23.323  0.00  0.00     0.000 A 
ATOM     12  C   UNL d   1     -51.061  15.791  23.349  0.00  0.00     0.000 C 
ENDROOT
BRANCH   1  13
ATOM     13  C   UNL d   1     -47.398  13.654  22.814  0.00  0.00     0.070 A 
ATOM     14  C   UNL d   1     -46.817  13.665  23.404  0.00  0.00     0.018 A 
ATOM     15  C   UNL d   1     -46.068  13.349  23.267  0.00  0.00     0.007 A 
ATOM     16  C   UNL d   1     -45.877  13.015  22.540  0.00  0.00     0.064 A 
ATOM     17  C   UNL d   1     -46.474  12.996  21.912  0.00  0.00     0.007 A 
ATOM     18  C   UNL d   1     -47.251  13.334  22.083  0.00  0.00     0.018 A 
BRANCH  16  19
ATOM     19  C   UNL d   1     -45.112  12.710  22.448  0.00  0.00     0.300 C 
ATOM     20  O   UNL d   1     -44.864  12.064  22.939  0.00  0.00    -0.259 OA
BRANCH  19  21
ATOM     21  O   UNL d   1     -44.641  13.031  21.906  0.00  0.00    -0.271 OA
BRANCH  21  22
ATOM     22  C   UNL d   1     -43.942  12.684  21.747  0.00  0.00     0.126 C 
ATOM     23  C   UNL d   1     -43.372  13.059  21.241  0.00  0.00     0.029 C 
ENDBRANCH  21  22
ENDBRANCH  19  21
ENDBRANCH  16  19
ENDBRANCH   1  13
TORSDOF 4
ENDMDL
MODEL 2
REMARK VINA RESULT:      -7.8      1.231      1.804
REMARK  4 active torsions:
REMARK  status: ('A' for Active; 'I' for Inactive)
REMARK    1  A    between atoms: C_6  and  N_1 
REMARK    2  A    between atoms: C_8  and  C_14 
REMARK    3  A    between atoms: O_20  and  C_8 
REMARK    4  A    between atoms: C_22  and  O_20 
ROOT
ATOM      1  N   UNL d   1     -47.861  13.421  22.702  0.00  0.00    -0.242 N 
ATOM      2  C   UNL d   1     -48.587  13.118  22.381  0.00  0.00     0.267 A 
ATOM      3  C   UNL d   1     -47.916  14.117  22.924  0.00  0.00     0.267 A 
ATOM      4  C   UNL d   1     -49.105  13.757  22.445  0.00  0.00     0.061 A 
ATOM      5  C   UNL d   1     -48.680  14.391  22.789  0.00  0.00     0.061 A 
ATOM      6  C   UNL d   1     -49.042  15.130  22.934  0.00  0.00     0.005 A 
ATOM      7  C   UNL d   1     -49.889  13.870  22.249  0.00  0.00     0.005 A 
ATOM      8  O   UNL d   1     -48.759  12.380  22.077  0.00  0.00    -0.267 OA
ATOM      9  O   UNL d   1     -47.294  14.558  23.261  0.00  0.00    -0.267 OA
ATOM     10  C   UNL d   1     -49.832  15.202  22.722  0.00  0.00     0.000 A 
ATOM     11  C   UNL d   1     -50.258  14.569  22.378  0.00  0.00     0.000 A 
ATOM     12  C   UNL d   1     -51.041  14.681  22.183  0.00  0.00     0.000 C 
ENDROOT
BRANCH   1  13
ATOM     13  C   UNL d   1     -47.153  13.005  22.771  0.00  0.00     0.070 A 
ATOM     14  C   UNL d   1     -46.515  13.163  22.267  0.00  0.00     0.018 A 
ATOM     15  C   UNL d   1     -45.807  12.747  22.337  0.00  0.00     0.007 A 
ATOM     16  C   UNL d   1     -45.714  12.164  22.908  0.00  0.00     0.064 A 
ATOM     17  C   UNL d   1     -46.372  11.986  23.443  0.00  0.00     0.007 A 
ATOM     18  C   UNL d   1     -47.102  12.436  23.349  0.00  0.00     0.018 A 
BRANCH  16  19
ATOM     19  C   UNL d   1     -44.984  11.772  22.940  0.00  0.00     0.300 C 
ATOM     20  O   UNL d   1     -44.321  12.101  22.525  0.00  0.00    -0.259 OA
BRANCH  19  21
ATOM     21  O   UNL d   1     -44.931  11.106  23.356  0.00  0.00    -0.271 OA
BRANCH  21  22
ATOM     22  C   UNL d   1     -44.230  10.730  23.395  0.00  0.00     0.126 C 
ATOM     23  C   UNL d   1     -44.177   9.934  23.688  0.00  0.00     0.029 C 
ENDBRANCH  21  22
ENDBRANCH  19  21
ENDBRANCH  16  19
ENDBRANCH   1  13
TORSDOF 4
ENDMDL
MODEL 3
REMARK VINA RESULT:      -7.7      0.423      1.191
REMARK  4 active torsions:
REMARK  status: ('A' for Active; 'I' for Inactive)
REMARK    1  A    between atoms: C_6  and  N_1 
REMARK    2  A    between atoms: C_8  and  C_14 
REMARK    3  A    between atoms: O_20  and  C_8 
REMARK    4  A    between atoms: C_22  and  O_20 
ROOT
ATOM      1  N   UNL d   1     -47.817  13.969  22.841  0.00  0.00    -0.242 N 
ATOM      2  C   UNL d   1     -48.486  13.565  23.172  0.00  0.00     0.267 A 
ATOM      3  C   UNL d   1     -47.955  14.672  22.689  0.00  0.00     0.267 A 
ATOM      4  C   UNL d   1     -49.068  14.149  23.199  0.00  0.00     0.061 A 
ATOM      5  C   UNL d   1     -48.732  14.851  22.893  0.00  0.00     0.061 A 
ATOM      6  C   UNL d   1     -49.174  15.558  22.839  0.00  0.00     0.005 A 
ATOM      7  C   UNL d   1     -49.845  14.161  23.449  0.00  0.00     0.005 A 
ATOM      8  O   UNL d   1     -48.563  12.788  23.415  0.00  0.00    -0.267 OA
ATOM      9  O   UNL d   1     -47.404  15.204  22.361  0.00  0.00    -0.267 OA
ATOM     10  C   UNL d   1     -49.952  15.528  23.102  0.00  0.00     0.000 A 
ATOM     11  C   UNL d   1     -50.289  14.826  23.408  0.00  0.00     0.000 A 
ATOM     12  C   UNL d   1     -51.064  14.837  23.658  0.00  0.00     0.000 C 
ENDROOT
BRANCH   1  13
ATOM     13  C   UNL d   1     -47.077  13.637  22.692  0.00  0.00     0.070 A 
ATOM     14  C   UNL d   1     -46.476  13.664  23.262  0.00  0.00     0.018 A 
ATOM     15  C   UNL d   1     -45.736  13.333  23.113  0.00  0.00     0.007 A 
ATOM     16  C   UNL d   1     -45.574  12.966  22.396  0.00  0.00     0.064 A 
ATOM     17  C   UNL d   1     -46.192  12.929  21.789  0.00  0.00     0.007 A 
ATOM     18  C   UNL d   1     -46.958  13.284  21.971  0.00  0.00     0.018 A 
BRANCH  16  19
ATOM     19  C   UNL d   1     -44.816  12.647  22.291  0.00  0.00     0.300 C 
ATOM     20  O   UNL d   1     -44.581  11.981  22.762  0.00  0.00    -0.259 OA
BRANCH  19  21
ATOM     21  O   UNL d   1     -44.340  12.972  21.757  0.00  0.00    -0.271 OA
BRANCH  21  22
ATOM     22  C   UNL d   1     -43.617  12.658  21.641  0.00  0.00     0.126 C 
ATOM     23  C   UNL d   1     -43.036  13.060  21.170  0.00  0.00     0.029 C 
ENDBRANCH  21  22
ENDBRANCH  19  21
ENDBRANCH  16  19
ENDBRANCH   1  13
TORSDOF 4
ENDMDL
MODEL 4
REMARK VINA RESULT:      -5.6      8.539      9.584
REMARK  4 active torsions:
REMARK  status: ('A' for Active; 'I' for Inactive)
REMARK    1  A    between atoms: C_6  and  N_1 
REMARK    2  A    between atoms: C_8  and  C_14 
REMARK    3  A    between atoms: O_20  and  C_8 
REMARK    4  A    between atoms: C_22  and  O_20 
ROOT
ATOM      1  N   UNL d   1     -39.175  14.269  20.176  0.00  0.00    -0.242 N 
ATOM      2  C   UNL d   1     -39.554  14.434  20.918  0.00  0.00     0.267 A 
ATOM      3  C   UNL d   1     -38.614  13.802  20.239  0.00  0.00     0.267 A 
ATOM      4  C   UNL d   1     -39.122  13.982  21.457  0.00  0.00     0.061 A 
ATOM      5  C   UNL d   1     -38.527  13.581  21.026  0.00  0.00     0.061 A 
ATOM      6  C   UNL d   1     -37.986  13.070  21.406  0.00  0.00     0.005 A 
ATOM      7  C   UNL d   1     -39.171  13.867  22.263  0.00  0.00     0.005 A 
ATOM      8  O   UNL d   1     -40.190  14.918  21.086  0.00  0.00    -0.267 OA
ATOM      9  O   UNL d   1     -38.141  13.540  19.605  0.00  0.00    -0.267 OA
ATOM     10  C   UNL d   1     -38.068  12.982  22.219  0.00  0.00     0.000 A 
ATOM     11  C   UNL d   1     -38.664  13.382  22.649  0.00  0.00     0.000 A 
ATOM     12  C   UNL d   1     -38.712  13.268  23.454  0.00  0.00     0.000 C 
ENDROOT
BRANCH   1  13
ATOM     13  C   UNL d   1     -39.390  14.582  19.444  0.00  0.00     0.070 A 
ATOM     14  C   UNL d   1     -39.811  14.129  18.893  0.00  0.00     0.018 A 
ATOM     15  C   UNL d   1     -40.025  14.442  18.162  0.00  0.00     0.007 A 
ATOM     16  C   UNL d   1     -39.827  15.213  17.958  0.00  0.00     0.064 A 
ATOM     17  C   UNL d   1     -39.386  15.701  18.523  0.00  0.00     0.007 A 
ATOM     18  C   UNL d   1     -39.174  15.348  19.282  0.00  0.00     0.018 A 
BRANCH  16  19
ATOM     19  C   UNL d   1     -40.063  15.485  17.211  0.00  0.00     0.300 C 
ATOM     20  O   UNL d   1     -39.510  15.921  16.738  0.00  0.00    -0.259 OA
BRANCH  19  21
ATOM     21  O   UNL d   1     -40.794  15.330  16.967  0.00  0.00    -0.271 OA
BRANCH  21  22
ATOM     22  C   UNL d   1     -41.168  15.860  16.504  0.00  0.00     0.126 C 
ATOM     23  C   UNL d   1     -41.988  15.765  16.304  0.00  0.00     0.029 C 
ENDBRANCH  21  22
ENDBRANCH  19  21
ENDBRANCH  16  19
ENDBRANCH   1  13
TORSDOF 4
ENDMDL
MODEL 5
REMARK VINA RESULT:      -5.4      7.834      9.965
REMARK  4 active torsions:
REMARK  status: ('A' for Active; 'I' for Inactive)
REMARK    1  A    between atoms: C_6  and  N_1 
REMARK    2  A    between atoms: C_8  and  C_14 
REMARK    3  A    between atoms: O_20  and  C_8 
REMARK    4  A    between atoms: C_22  and  O_20 
ROOT
ATOM      1  N   UNL d   1     -39.355  14.549  18.680  0.00  0.00    -0.242 N 
ATOM      2  C   UNL d   1     -38.969  14.929  19.334  0.00  0.00     0.267 A 
ATOM      3  C   UNL d   1     -40.001  14.255  18.861  0.00  0.00     0.267 A 
ATOM      4  C   UNL d   1     -39.497  14.817  19.959  0.00  0.00     0.061 A 
ATOM      5  C   UNL d   1     -40.151  14.390  19.659  0.00  0.00     0.061 A 
ATOM      6  C   UNL d   1     -40.795  14.181  20.150  0.00  0.00     0.005 A 
ATOM      7  C   UNL d   1     -39.493  15.031  20.746  0.00  0.00     0.005 A 
ATOM      8  O   UNL d   1     -38.251  15.318  19.366  0.00  0.00    -0.267 OA
ATOM      9  O   UNL d   1     -40.502  13.848  18.335  0.00  0.00    -0.267 OA
ATOM     10  C   UNL d   1     -40.752  14.415  20.936  0.00  0.00     0.000 A 
ATOM     11  C   UNL d   1     -40.098  14.842  21.235  0.00  0.00     0.000 A 
ATOM     12  C   UNL d   1     -40.093  15.056  22.021  0.00  0.00     0.000 C 
ENDROOT
BRANCH   1  13
ATOM     13  C   UNL d   1     -39.063  14.497  17.911  0.00  0.00     0.070 A 
ATOM     14  C   UNL d   1     -39.306  15.031  17.327  0.00  0.00     0.018 A 
ATOM     15  C   UNL d   1     -39.014  14.979  16.557  0.00  0.00     0.007 A 
ATOM     16  C   UNL d   1     -38.475  14.395  16.349  0.00  0.00     0.064 A 
ATOM     17  C   UNL d   1     -38.211  13.828  16.949  0.00  0.00     0.007 A 
ATOM     18  C   UNL d   1     -38.532  13.905  17.746  0.00  0.00     0.018 A 
BRANCH  16  19
ATOM     19  C   UNL d   1     -38.209  14.381  15.564  0.00  0.00     0.300 C 
ATOM     20  O   UNL d   1     -37.942  15.104  15.207  0.00  0.00    -0.259 OA
BRANCH  19  21
ATOM     21  O   UNL d   1     -38.213  13.698  15.176  0.00  0.00    -0.271 OA
BRANCH  21  22
ATOM     22  C   UNL d   1     -38.195  13.705  14.379  0.00  0.00     0.126 C 
ATOM     23  C   UNL d   1     -37.943  13.022  13.941  0.00  0.00     0.029 C 
ENDBRANCH  21  22
ENDBRANCH  19  21
ENDBRANCH  16  19
ENDBRANCH   1  13
TORSDOF 4
ENDMDL
MODEL 6
REMARK VINA RESULT:      -5.3      8.617     10.628
REMARK  4 active torsions:
REMARK  status: ('A' for Active; 'I' for Inactive)
REMARK    1  A    between atoms: C_6  and  N_1 
REMARK    2  A    between atoms: C_8  and  C_14 
REMARK    3  A    between atoms: O_20  and  C_8 
REMARK    4  A    between atoms: C_22  and  O_20 
ROOT
ATOM      1  N   UNL d   1     -38.716  14.190  17.912  0.00  0.00    -0.242 N 
ATOM      2  C   UNL d   1     -38.676  13.488  17.435  0.00  0.00     0.267 A 
ATOM      3  C   UNL d   1     -38.547  14.798  17.540  0.00  0.00     0.267 A 
ATOM      4  C   UNL d   1     -38.449  13.773  16.694  0.00  0.00     0.061 A 
ATOM      5  C   UNL d   1     -38.367  14.604  16.761  0.00  0.00     0.061 A 
ATOM      6  C   UNL d   1     -38.140  15.072  16.107  0.00  0.00     0.005 A 
ATOM      7  C   UNL d   1     -38.303  13.420  15.974  0.00  0.00     0.005 A 
ATOM      8  O   UNL d   1     -38.821  12.709  17.634  0.00  0.00    -0.267 OA
ATOM      9  O   UNL d   1     -38.539  15.565  17.863  0.00  0.00    -0.267 OA
ATOM     10  C   UNL d   1     -38.003  14.677  15.400  0.00  0.00     0.000 A 
ATOM     11  C   UNL d   1     -38.085  13.847  15.333  0.00  0.00     0.000 A 
ATOM     12  C   UNL d   1     -37.940  13.493  14.613  0.00  0.00     0.000 C 
ENDROOT
BRANCH   1  13
ATOM     13  C   UNL d   1     -38.921  14.221  18.710  0.00  0.00     0.070 A 
ATOM     14  C   UNL d   1     -38.338  14.224  19.298  0.00  0.00     0.018 A 
ATOM     15  C   UNL d   1     -38.543  14.255  20.096  0.00  0.00     0.007 A 
ATOM     16  C   UNL d   1     -39.330  14.283  20.330  0.00  0.00     0.064 A 
ATOM     17  C   UNL d   1     -39.952  14.280  19.726  0.00  0.00     0.007 A 
ATOM     18  C   UNL d   1     -39.710  14.247  18.898  0.00  0.00     0.018 A 
BRANCH  16  19
ATOM     19  C   UNL d   1     -39.488  14.312  21.143  0.00  0.00     0.300 C 
ATOM     20  O   UNL d   1     -40.000  14.920  21.441  0.00  0.00    -0.259 OA
BRANCH  19  21
ATOM     21  O   UNL d   1     -39.156  13.776  21.612  0.00  0.00    -0.271 OA
BRANCH  21  22
ATOM     22  C   UNL d   1     -39.251  13.839  22.401  0.00  0.00     0.126 C 
ATOM     23  C   UNL d   1     -38.877  13.291  22.932  0.00  0.00     0.029 C 
ENDBRANCH  21  22
ENDBRANCH  19  21
ENDBRANCH  16  19
ENDBRANCH   1  13
TORSDOF 4
ENDMDL
