MODEL 1
REMARK VINA RESULT:      68.8      0.000      0.000
REMARK  8 active torsions:
REMARK  status: ('A' for Active; 'I' for Inactive)
REMARK    1  A    between atoms: C_21  and  N_5 
REMARK    2  A    between atoms: S_10  and  C_6 
REMARK    3  A    between atoms: C_17  and  C_7 
REMARK    4  A    between atoms: C_23  and  S_10 
REMARK    5  A    between atoms: C_13  and  C_23 
REMARK       I    between atoms: N_19  and  C_13 
REMARK    6  A    between atoms: C_28  and  N_19 
REMARK    7  A    between atoms: C_24  and  C_21 
REMARK    8  A    between atoms: C_27  and  C_28 
ROOT
ATOM      1  C   UNL d   1     -51.509  25.399  33.376  0.00  0.00     0.081 A 
ATOM      2  C   UNL d   1     -51.419  26.193  33.395  0.00  0.00     0.117 A 
ATOM      3  N   UNL d   1     -50.655  26.574  33.405  0.00  0.00    -0.215 NA
ATOM      4  C   UNL d   1     -50.801  24.923  33.366  0.00  0.00     0.268 A 
ATOM      5  N   UNL d   1     -50.056  25.266  33.375  0.00  0.00    -0.253 N 
ATOM      6  C   UNL d   1     -49.989  26.135  33.396  0.00  0.00     0.182 A 
ATOM      7  C   UNL d   1     -52.300  25.211  33.371  0.00  0.00     0.013 A 
ATOM      8  S   UNL d   1     -52.181  26.549  33.402  0.00  0.00    -0.067 SA
ATOM      9  C   UNL d   1     -52.727  25.920  33.387  0.00  0.00     0.037 A 
ATOM     10  O   UNL d   1     -50.843  24.084  33.347  0.00  0.00    -0.267 OA
ENDROOT
BRANCH   6  11
ATOM     11  S   UNL d   1     -49.241  26.509  33.405  0.00  0.00    -0.044 SA
BRANCH  11  12
ATOM     12  C   UNL d   1     -49.017  26.995  33.998  0.00  0.00     0.101 C 
BRANCH  12  13
ATOM     13  C   UNL d   1     -48.266  27.099  34.202  0.00  0.00     0.286 C 
ATOM     14  N   UNL d   1     -47.964  27.764  34.549  0.00  0.00    -0.206 NA
ATOM     15  O   UNL d   1     -47.742  26.501  34.058  0.00  0.00    -0.265 OA
BRANCH  14  16
ATOM     16  C   UNL d   1     -48.545  28.353  34.677  0.00  0.00     0.102 C 
BRANCH  16  17
ATOM     17  C   UNL d   1     -48.253  29.125  34.917  0.00  0.00     0.021 A 
ATOM     18  C   UNL d   1     -48.288  29.797  34.401  0.00  0.00     0.028 A 
ATOM     19  C   UNL d   1     -48.014  30.504  34.639  0.00  0.00     0.119 A 
ATOM     20  O   UNL d   1     -47.990  31.227  34.240  0.00  0.00    -0.300 OA
ATOM     21  C   UNL d   1     -47.690  30.604  35.387  0.00  0.00     0.119 A 
ATOM     22  C   UNL d   1     -47.645  31.749  34.772  0.00  0.00     0.304 A 
ATOM     23  O   UNL d   1     -47.461  31.370  35.474  0.00  0.00    -0.300 OA
ATOM     24  C   UNL d   1     -47.645  29.944  35.920  0.00  0.00     0.026 A 
ATOM     25  C   UNL d   1     -47.927  29.231  35.669  0.00  0.00     0.004 A 
ENDBRANCH  16  17
ENDBRANCH  14  16
ENDBRANCH  12  13
ENDBRANCH  11  12
ENDBRANCH   6  11
BRANCH   5  26
ATOM     26  C   UNL d   1     -49.408  24.718  33.363  0.00  0.00     0.085 C 
BRANCH  26  27
ATOM     27  C   UNL d   1     -49.540  23.872  33.318  0.00  0.00     0.019 C 
ATOM     28  C   UNL d   1     -49.345  23.413  33.978  0.00  0.00     0.002 C 
ENDBRANCH  26  27
ENDBRANCH   5  26
BRANCH   7  29
ATOM     29  C   UNL d   1     -52.900  24.690  33.358  0.00  0.00     0.001 A 
ATOM     30  C   UNL d   1     -52.830  23.868  33.362  0.00  0.00     0.000 A 
ATOM     31  C   UNL d   1     -53.431  23.348  33.349  0.00  0.00     0.000 A 
ATOM     32  C   UNL d   1     -54.202  23.651  33.329  0.00  0.00     0.000 A 
ATOM     33  C   UNL d   1     -54.309  24.467  33.325  0.00  0.00     0.000 A 
ATOM     34  C   UNL d   1     -53.666  24.984  33.339  0.00  0.00     0.000 A 
ENDBRANCH   7  29
TORSDOF 8
ENDMDL
