MODEL 1
REMARK VINA RESULT:      85.1      0.000      0.000
REMARK  4 active torsions:
REMARK  status: ('A' for Active; 'I' for Inactive)
REMARK    1  A    between atoms: N_7  and  C_1 
REMARK    2  A    between atoms: C_9  and  N_3 
REMARK       I    between atoms: C_11  and  N_7 
REMARK    3  A    between atoms: C_15  and  C_11 
REMARK    4  A    between atoms: C_17  and  C_15 
ROOT
ATOM      1  C   UNL d   1     -55.315-100.858 -43.285  0.00  0.00     0.169 A 
ATOM      2  C   UNL d   1     -55.268-101.376 -42.635  0.00  0.00     0.065 A 
ATOM      3  N   UNL d   1     -54.973-101.230 -43.941  0.00  0.00    -0.212 N 
ATOM      4  N   UNL d   1     -54.715-101.979 -43.698  0.00  0.00    -0.163 NA
ATOM      5  C   UNL d   1     -54.897-102.068 -42.894  0.00  0.00     0.114 A 
ATOM      6  S   UNL d   1     -55.187-102.221 -41.597  0.00  0.00     0.091 S 
ATOM      7  C   UNL d   1     -54.846-102.592 -42.253  0.00  0.00     0.090 A 
ATOM      8  C   UNL d   1     -55.448-101.469 -41.837  0.00  0.00     0.073 A 
ATOM      9  O   UNL d   1     -55.258-102.540 -40.835  0.00  0.00    -0.247 OA
ENDROOT
BRANCH   1  10
ATOM     10  N   UNL d   1     -55.648-100.098 -43.271  0.00  0.00    -0.189 NA
ATOM     11  C   UNL d   1     -56.446 -99.991 -43.424  0.00  0.00     0.281 C 
ATOM     12  O   UNL d   1     -56.933-100.649 -43.594  0.00  0.00    -0.265 OA
BRANCH  11  13
ATOM     13  C   UNL d   1     -56.780 -99.236 -43.411  0.00  0.00     0.063 C 
BRANCH  13  14
ATOM     14  C   UNL d   1     -57.539 -99.127 -43.708  0.00  0.00     0.005 A 
ATOM     15  C   UNL d   1     -58.188 -99.240 -43.215  0.00  0.00     0.003 A 
ATOM     16  C   UNL d   1     -58.951 -99.131 -43.511  0.00  0.00     0.030 A 
ATOM     17  C   UNL d   1     -59.063 -98.908 -44.302  0.00  0.00     0.140 A 
ATOM     18  C   UNL d   1     -58.410 -98.797 -44.787  0.00  0.00     0.030 A 
ATOM     19  F   UNL d   1     -59.826 -98.799 -44.599  0.00  0.00    -0.204 F 
ATOM     20  C   UNL d   1     -57.647 -98.906 -44.494  0.00  0.00     0.003 A 
ENDBRANCH  13  14
ENDBRANCH  11  13
ENDBRANCH   1  10
BRANCH   3  21
ATOM     21  C   UNL d   1     -54.902-100.914 -44.701  0.00  0.00     0.085 A 
ATOM     22  C   UNL d   1     -54.855-100.095 -44.796  0.00  0.00     0.031 A 
ATOM     23  C   UNL d   1     -54.784 -99.792 -45.547  0.00  0.00     0.059 A 
ATOM     24 CL   UNL d   1     -54.737 -98.981 -45.653  0.00  0.00    -0.082 Cl
ATOM     25  C   UNL d   1     -54.760-100.291 -46.204  0.00  0.00     0.011 A 
ATOM     26  C   UNL d   1     -54.806-101.100 -46.108  0.00  0.00     0.002 A 
ATOM     27  C   UNL d   1     -54.878-101.417 -45.349  0.00  0.00     0.019 A 
ENDBRANCH   3  21
TORSDOF 4
ENDMDL
