MODEL 1
REMARK VINA RESULT:      42.2      0.000      0.000
REMARK  5 active torsions:
REMARK  status: ('A' for Active; 'I' for Inactive)
REMARK    1  A    between atoms: C_12  and  N_3 
REMARK    2  A    between atoms: C_10  and  N_7 
REMARK    3  A    between atoms: C_11  and  C_10 
REMARK    4  A    between atoms: C_15  and  C_11 
REMARK    5  A    between atoms: C_16  and  C_12 
ROOT
ATOM      1  C   UNL d   1      13.761  13.116  -2.425  0.00  0.00     0.191 A 
ATOM      2  C   UNL d   1      13.913  12.499  -1.886  0.00  0.00     0.196 A 
ATOM      3  N   UNL d   1      13.429  12.775  -3.106  0.00  0.00    -0.191 N 
ATOM      4  N   UNL d   1      13.945  13.886  -2.222  0.00  0.00    -0.204 NA
ATOM      5  N   UNL d   1      13.671  11.790  -2.246  0.00  0.00    -0.122 NA
ATOM      6  N   UNL d   1      13.380  11.968  -2.981  0.00  0.00    -0.058 NA
ATOM      7  N   UNL d   1      14.431  13.445  -0.948  0.00  0.00    -0.251 N 
ATOM      8  C   UNL d   1      14.244  12.669  -1.158  0.00  0.00     0.289 A 
ATOM      9  C   UNL d   1      14.279  14.063  -1.488  0.00  0.00     0.187 A 
ATOM     10  O   UNL d   1      14.396  12.051  -0.618  0.00  0.00    -0.265 OA
ENDROOT
BRANCH   7  11
ATOM     11  C   UNL d   1      14.768  13.626  -0.210  0.00  0.00     0.127 C 
BRANCH  11  12
ATOM     12  C   UNL d   1      15.554  13.896  -0.159  0.00  0.00     0.213 C 
ATOM     13  O   UNL d   1      16.176  13.352  -0.157  0.00  0.00    -0.285 OA
BRANCH  12  14
ATOM     14  C   UNL d   1      15.703  14.702  -0.111  0.00  0.00     0.041 A 
ATOM     15  C   UNL d   1      15.076  15.240  -0.111  0.00  0.00     0.003 A 
ATOM     16  C   UNL d   1      15.219  16.040  -0.063  0.00  0.00     0.000 A 
ATOM     17  C   UNL d   1      15.999  16.315  -0.014  0.00  0.00     0.000 A 
ATOM     18  C   UNL d   1      16.626  15.777  -0.014  0.00  0.00     0.000 A 
ATOM     19  C   UNL d   1      16.482  14.977  -0.062  0.00  0.00     0.003 A 
ENDBRANCH  12  14
ENDBRANCH  11  12
ENDBRANCH   7  11
BRANCH   3  20
ATOM     20  C   UNL d   1      13.186  13.181  -3.797  0.00  0.00     0.104 C 
BRANCH  20  21
ATOM     21  C   UNL d   1      13.282  12.824  -4.543  0.00  0.00     0.019 A 
ATOM     22  C   UNL d   1      13.819  13.130  -5.089  0.00  0.00     0.002 A 
ATOM     23  C   UNL d   1      13.897  12.768  -5.811  0.00  0.00     0.000 A 
ATOM     24  C   UNL d   1      13.461  12.109  -6.010  0.00  0.00     0.000 A 
ATOM     25  C   UNL d   1      12.909  11.795  -5.449  0.00  0.00     0.000 A 
ATOM     26  C   UNL d   1      12.828  12.160  -4.719  0.00  0.00     0.002 A 
ENDBRANCH  20  21
ENDBRANCH   3  20
TORSDOF 5
ENDMDL
MODEL 2
REMARK VINA RESULT:      44.3      2.258      3.536
REMARK  5 active torsions:
REMARK  status: ('A' for Active; 'I' for Inactive)
REMARK    1  A    between atoms: C_12  and  N_3 
REMARK    2  A    between atoms: C_10  and  N_7 
REMARK    3  A    between atoms: C_11  and  C_10 
REMARK    4  A    between atoms: C_15  and  C_11 
REMARK    5  A    between atoms: C_16  and  C_12 
ROOT
ATOM      1  C   UNL d   1      13.297  14.081  -3.896  0.00  0.00     0.191 A 
ATOM      2  C   UNL d   1      13.146  13.358  -4.284  0.00  0.00     0.196 A 
ATOM      3  N   UNL d   1      13.100  14.692  -4.425  0.00  0.00    -0.191 N 
ATOM      4  N   UNL d   1      13.588  14.079  -3.133  0.00  0.00    -0.204 NA
ATOM      5  N   UNL d   1      12.858  13.538  -5.042  0.00  0.00    -0.122 NA
ATOM      6  N   UNL d   1      12.835  14.346  -5.116  0.00  0.00    -0.058 NA
ATOM      7  N   UNL d   1      13.583  12.646  -3.124  0.00  0.00    -0.251 N 
ATOM      8  C   UNL d   1      13.289  12.653  -3.895  0.00  0.00     0.289 A 
ATOM      9  C   UNL d   1      13.734  13.369  -2.737  0.00  0.00     0.187 A 
ATOM     10  O   UNL d   1      13.138  11.930  -4.283  0.00  0.00    -0.265 OA
ENDROOT
BRANCH   7  11
ATOM     11  C   UNL d   1      13.731  11.933  -2.723  0.00  0.00     0.127 C 
BRANCH  11  12
ATOM     12  C   UNL d   1      13.558  11.861  -1.912  0.00  0.00     0.213 C 
ATOM     13  O   UNL d   1      12.772  11.816  -1.662  0.00  0.00    -0.285 OA
BRANCH  12  14
ATOM     14  C   UNL d   1      14.172  11.835  -1.367  0.00  0.00     0.041 A 
ATOM     15  C   UNL d   1      14.956  11.836  -1.627  0.00  0.00     0.003 A 
ATOM     16  C   UNL d   1      15.569  11.810  -1.091  0.00  0.00     0.000 A 
ATOM     17  C   UNL d   1      15.402  11.783  -0.280  0.00  0.00     0.000 A 
ATOM     18  C   UNL d   1      14.618  11.781  -0.020  0.00  0.00     0.000 A 
ATOM     19  C   UNL d   1      14.006  11.807  -0.557  0.00  0.00     0.003 A 
ENDBRANCH  12  14
ENDBRANCH  11  12
ENDBRANCH   7  11
BRANCH   3  20
ATOM     20  C   UNL d   1      13.160  15.514  -4.278  0.00  0.00     0.104 C 
BRANCH  20  21
ATOM     21  C   UNL d   1      13.899  15.893  -4.346  0.00  0.00     0.019 A 
ATOM     22  C   UNL d   1      14.273  15.952  -5.078  0.00  0.00     0.002 A 
ATOM     23  C   UNL d   1      14.993  16.326  -5.124  0.00  0.00     0.000 A 
ATOM     24  C   UNL d   1      15.354  16.644  -4.467  0.00  0.00     0.000 A 
ATOM     25  C   UNL d   1      14.969  16.582  -3.714  0.00  0.00     0.000 A 
ATOM     26  C   UNL d   1      14.242  16.206  -3.666  0.00  0.00     0.002 A 
ENDBRANCH  20  21
ENDBRANCH   3  20
TORSDOF 5
ENDMDL
