MODEL 1
REMARK VINA RESULT:      74.4      0.000      0.000
REMARK  5 active torsions:
REMARK  status: ('A' for Active; 'I' for Inactive)
REMARK    1  A    between atoms: C_7  and  C_1 
REMARK    2  A    between atoms: C_12  and  N_2 
REMARK    3  A    between atoms: C_8  and  C_7 
REMARK    4  A    between atoms: O_25  and  C_20 
REMARK    5  A    between atoms: C_26  and  O_25 
ROOT
ATOM      1  N   UNL d   1     -50.210  26.433  33.423  0.00  0.00    -0.242 N 
ATOM      2  C   UNL d   1     -49.374  26.423  33.418  0.00  0.00     0.267 A 
ATOM      3  C   UNL d   1     -50.452  27.223  33.458  0.00  0.00     0.267 A 
ATOM      4  C   UNL d   1     -49.778  27.695  33.476  0.00  0.00     0.062 A 
ATOM      5  C   UNL d   1     -49.111  27.204  33.451  0.00  0.00     0.066 A 
ATOM      6  O   UNL d   1     -48.902  25.746  33.387  0.00  0.00    -0.267 OA
ATOM      7  O   UNL d   1     -51.233  27.487  33.473  0.00  0.00    -0.267 OA
ENDROOT
BRANCH   4   8
ATOM      8  C   UNL d   1     -49.767  28.510  33.511  0.00  0.00     0.018 C 
BRANCH   8   9
ATOM      9  C   UNL d   1     -49.194  28.824  34.021  0.00  0.00     0.045 A 
ATOM     10  N   UNL d   1     -48.751  28.419  34.583  0.00  0.00    -0.308 N 
ATOM     11  C   UNL d   1     -48.253  28.956  34.958  0.00  0.00     0.060 A 
ATOM     12  C   UNL d   1     -48.803  27.618  34.738  0.00  0.00     0.099 C 
ATOM     13  C   UNL d   1     -47.698  28.866  35.554  0.00  0.00     0.017 A 
ATOM     14  C   UNL d   1     -48.387  29.699  34.626  0.00  0.00    -0.002 A 
ATOM     15  C   UNL d   1     -47.273  29.514  35.825  0.00  0.00     0.002 A 
ATOM     16  C   UNL d   1     -47.412  30.262  35.487  0.00  0.00    -0.000 A 
ATOM     17  C   UNL d   1     -47.967  30.353  34.890  0.00  0.00    -0.003 A 
ATOM     18  C   UNL d   1     -48.969  29.617  34.046  0.00  0.00     0.054 A 
ATOM     19  C   UNL d   1     -48.653  30.378  34.175  0.00  0.00     0.010 C 
ATOM     20  C   UNL d   1     -49.243  30.263  33.596  0.00  0.00     0.010 C 
ENDBRANCH   8   9
ENDBRANCH   4   8
BRANCH   1  21
ATOM     21  C   UNL d   1     -50.697  25.775  33.396  0.00  0.00     0.070 A 
ATOM     22  C   UNL d   1     -50.374  25.020  33.334  0.00  0.00     0.020 A 
ATOM     23  C   UNL d   1     -50.871  24.353  33.308  0.00  0.00     0.026 A 
ATOM     24  C   UNL d   1     -51.690  24.446  33.343  0.00  0.00     0.100 A 
ATOM     25  C   UNL d   1     -52.017  25.206  33.406  0.00  0.00     0.026 A 
ATOM     26  C   UNL d   1     -51.525  25.868  33.432  0.00  0.00     0.020 A 
BRANCH  24  27
ATOM     27  O   UNL d   1     -52.186  23.789  33.317  0.00  0.00    -0.305 OA
BRANCH  27  28
ATOM     28  C   UNL d   1     -52.992  23.871  33.449  0.00  0.00     0.123 C 
ATOM     29  C   UNL d   1     -53.438  23.232  33.717  0.00  0.00     0.029 C 
ENDBRANCH  27  28
ENDBRANCH  24  27
ENDBRANCH   1  21
TORSDOF 5
ENDMDL
