MODEL 1
REMARK VINA RESULT:      62.2      0.000      0.000
REMARK  4 active torsions:
REMARK  status: ('A' for Active; 'I' for Inactive)
REMARK    1  A    between atoms: C_14  and  N_3 
REMARK    2  A    between atoms: C_9  and  C_5 
REMARK    3  A    between atoms: C_19  and  C_14 
REMARK    4  A    between atoms: C_23  and  C_19 
ROOT
ATOM      1  C   UNL d   1      59.218  49.682  51.059  0.00  0.00     0.083 A 
ATOM      2  C   UNL d   1      58.899  49.687  51.818  0.00  0.00     0.161 A 
ATOM      3  N   UNL d   1      60.231  49.686  51.944  0.00  0.00    -0.272 N 
ATOM      4  C   UNL d   1      59.520  49.689  52.369  0.00  0.00     0.288 A 
ATOM      5  C   UNL d   1      60.043  49.682  51.133  0.00  0.00     0.072 A 
ATOM      6  C   UNL d   1      58.726  49.680  50.398  0.00  0.00     0.201 A 
ATOM      7  O   UNL d   1      58.071  49.688  51.916  0.00  0.00    -0.302 OA
ATOM      8  C   UNL d   1      57.908  49.681  50.500  0.00  0.00     0.062 A 
ATOM      9  C   UNL d   1      57.583  49.686  51.257  0.00  0.00     0.103 A 
ATOM     10  O   UNL d   1      59.446  49.693  53.185  0.00  0.00    -0.264 OA
ATOM     11  O   UNL d   1      59.047  49.675  49.640  0.00  0.00    -0.286 OA
ATOM     12  C   UNL d   1      57.411  49.678  49.835  0.00  0.00     0.005 A 
ATOM     13  C   UNL d   1      56.754  49.687  51.349  0.00  0.00     0.025 A 
ATOM     14  C   UNL d   1      56.596  49.680  49.930  0.00  0.00     0.000 A 
ATOM     15  C   UNL d   1      56.267  49.684  50.689  0.00  0.00     0.002 A 
ENDROOT
BRANCH   5  16
ATOM     16  C   UNL d   1      60.367  49.677  50.377  0.00  0.00     0.019 A 
ATOM     17  C   UNL d   1      61.189  49.692  50.270  0.00  0.00     0.031 A 
ATOM     18  C   UNL d   1      61.508  49.687  49.512  0.00  0.00     0.140 A 
ATOM     19  F   UNL d   1      62.326  49.702  49.414  0.00  0.00    -0.204 F 
ATOM     20  C   UNL d   1      61.009  49.668  48.847  0.00  0.00     0.030 A 
ATOM     21  C   UNL d   1      60.188  49.654  48.953  0.00  0.00     0.002 A 
ATOM     22  C   UNL d   1      59.869  49.658  49.720  0.00  0.00     0.002 A 
ENDBRANCH   5  16
BRANCH   3  23
ATOM     23  C   UNL d   1      60.989  49.686  52.264  0.00  0.00     0.086 C 
BRANCH  23  24
ATOM     24  C   UNL d   1      61.150  49.232  52.931  0.00  0.00     0.065 C 
BRANCH  24  25
ATOM     25  C   UNL d   1      61.806  49.407  53.400  0.00  0.00     0.236 C 
ATOM     26  O   UNL d   1      62.458  48.919  53.385  0.00  0.00    -0.283 OA
ENDBRANCH  24  25
ENDBRANCH  23  24
ENDBRANCH   3  23
TORSDOF 4
ENDMDL
