MODEL 1
REMARK VINA RESULT:      39.7      0.000      0.000
REMARK  5 active torsions:
REMARK  status: ('A' for Active; 'I' for Inactive)
REMARK    1  A    between atoms: N_2  and  S_1 
REMARK    2  A    between atoms: C_10  and  S_1 
REMARK    3  A    between atoms: C_4  and  N_12 
REMARK    4  A    between atoms: C_8  and  C_17 
REMARK       I    between atoms: N_11  and  C_8 
REMARK    5  A    between atoms: N_12  and  N_11 
ROOT
ATOM      1  C   UNL d   1      45.754 -16.887  44.399  0.00  0.00     0.104 A 
ATOM      2  C   UNL d   1      45.657 -18.530  44.412  0.00  0.00     0.059 A 
ATOM      3  C   UNL d   1      46.431 -17.339  44.261  0.00  0.00     0.013 A 
ATOM      4  C   UNL d   1      45.030 -17.257  44.543  0.00  0.00     0.013 A 
ATOM      5  C   UNL d   1      46.372 -18.154  44.270  0.00  0.00     0.006 A 
ATOM      6  C   UNL d   1      44.986 -18.082  44.548  0.00  0.00     0.006 A 
ENDROOT
BRANCH   2   7
ATOM      7  C   UNL d   1      45.605 -19.349  44.419  0.00  0.00     0.297 C 
ATOM      8  N   UNL d   1      46.132 -19.722  43.915  0.00  0.00    -0.104 NA
ATOM      9  O   UNL d   1      45.021 -19.629  44.943  0.00  0.00    -0.264 OA
BRANCH   8  10
ATOM     10  N   UNL d   1      46.647 -19.272  43.463  0.00  0.00    -0.118 NA
BRANCH  10  11
ATOM     11  C   UNL d   1      46.642 -19.336  42.634  0.00  0.00     0.215 A 
ATOM     12  N   UNL d   1      46.644 -18.712  42.101  0.00  0.00    -0.219 NA
ATOM     13  C   UNL d   1      46.638 -19.012  41.339  0.00  0.00     0.090 A 
ATOM     14  C   UNL d   1      46.637 -18.657  40.599  0.00  0.00     0.018 A 
ATOM     15  C   UNL d   1      46.633 -19.841  41.402  0.00  0.00     0.050 A 
ATOM     16  C   UNL d   1      46.630 -19.123  39.918  0.00  0.00     0.002 A 
ATOM     17  C   UNL d   1      46.642 -17.830  40.539  0.00  0.00     0.002 C 
ATOM     18  C   UNL d   1      46.625 -19.943  39.983  0.00  0.00     0.001 A 
ATOM     19  C   UNL d   1      46.626 -20.316  40.726  0.00  0.00     0.008 A 
ATOM     20  S   UNL d   1      46.635 -20.035  42.201  0.00  0.00    -0.045 SA
ENDBRANCH  10  11
ENDBRANCH   8  10
ENDBRANCH   2   7
BRANCH   1  21
ATOM     21  S   UNL d   1      45.796 -16.066  44.394  0.00  0.00     0.271 S 
ATOM     22  O   UNL d   1      45.042 -16.020  44.721  0.00  0.00    -0.200 OA
ATOM     23  O   UNL d   1      46.552 -16.110  44.066  0.00  0.00    -0.200 OA
BRANCH  21  24
ATOM     24  N   UNL d   1      45.841 -15.242  44.387  0.00  0.00    -0.229 N 
ATOM     25  C   UNL d   1      45.230 -14.800  44.055  0.00  0.00     0.092 A 
ATOM     26  C   UNL d   1      45.275 -13.976  44.048  0.00  0.00     0.018 A 
ATOM     27  C   UNL d   1      44.664 -13.533  43.715  0.00  0.00     0.002 A 
ATOM     28  C   UNL d   1      45.929 -13.588  44.373  0.00  0.00     0.003 A 
ATOM     29  C   UNL d   1      44.709 -12.711  43.709  0.00  0.00     0.000 A 
ATOM     30  C   UNL d   1      45.366 -12.329  44.036  0.00  0.00     0.000 A 
ATOM     31  C   UNL d   1      45.974 -12.773  44.367  0.00  0.00     0.000 A 
ATOM     32  C   UNL d   1      46.543 -14.038  44.708  0.00  0.00     0.020 A 
ATOM     33  C   UNL d   1      46.498 -14.861  44.714  0.00  0.00     0.092 A 
ENDBRANCH  21  24
ENDBRANCH   1  21
TORSDOF 5
ENDMDL
