MODEL 1
REMARK VINA RESULT:      13.5      0.000      0.000
REMARK  1 active torsions:
REMARK  status: ('A' for Active; 'I' for Inactive)
REMARK    1  A    between atoms: C_12  and  N_2 
ROOT
ATOM      1  C   UNL d   1     -50.788  24.657  33.306  0.00  0.00     0.267 A 
ATOM      2  N   UNL d   1     -51.278  24.025  33.306  0.00  0.00    -0.271 N 
ATOM      3  C   UNL d   1     -50.973  25.322  33.306  0.00  0.00     0.081 A 
ATOM      4  C   UNL d   1     -51.695  25.718  33.307  0.00  0.00     0.105 A 
ATOM      5  O   UNL d   1     -52.370  25.506  33.307  0.00  0.00    -0.305 OA
ATOM      6  C   UNL d   1     -52.113  24.058  33.306  0.00  0.00     0.090 A 
ATOM      7  C   UNL d   1     -52.620  24.739  33.307  0.00  0.00     0.116 A 
ATOM      8  C   UNL d   1     -50.264  25.744  33.306  0.00  0.00     0.028 A 
ATOM      9  O   UNL d   1     -49.980  24.498  33.306  0.00  0.00    -0.267 OA
ATOM     10  C   UNL d   1     -51.713  26.539  33.307  0.00  0.00     0.026 A 
ATOM     11  C   UNL d   1     -50.281  26.567  33.306  0.00  0.00     0.103 A 
ATOM     12  N   UNL d   1     -49.579  26.992  33.306  0.00  0.00    -0.148 N 
ATOM     13  C   UNL d   1     -51.009  26.967  33.307  0.00  0.00     0.023 A 
ATOM     14  C   UNL d   1     -52.455  23.278  33.306  0.00  0.00     0.020 A 
ATOM     15  C   UNL d   1     -53.462  24.646  33.307  0.00  0.00     0.026 A 
ATOM     16  C   UNL d   1     -53.301  23.188  33.306  0.00  0.00     0.002 A 
ATOM     17  C   UNL d   1     -53.805  23.877  33.307  0.00  0.00     0.002 A 
ENDROOT
BRANCH   2  18
ATOM     18  C   UNL d   1     -50.932  23.282  33.306  0.00  0.00     0.083 C 
ATOM     19  C   UNL d   1     -50.153  23.194  33.530  0.00  0.00     0.021 C 
ENDBRANCH   2  18
TORSDOF 1
ENDMDL
