MODEL 1
REMARK VINA RESULT:      -6.6      0.000      0.000
REMARK  6 active torsions:
REMARK  status: ('A' for Active; 'I' for Inactive)
REMARK       I    between atoms: N_3  and  C_1 
REMARK    1  A    between atoms: O_10  and  C_1 
REMARK    2  A    between atoms: N_2  and  C_4 
REMARK    3  A    between atoms: C_9  and  N_3 
REMARK    4  A    between atoms: C_17  and  O_10 
REMARK    5  A    between atoms: C_18  and  C_17 
REMARK    6  A    between atoms: C_19  and  C_18 
ROOT
ATOM      1  C   UNL d   1     -48.826  14.367  22.852  0.00  0.00     0.064 A 
ATOM      2  C   UNL d   1     -48.146  14.820  22.704  0.00  0.00     0.020 A 
ATOM      3  C   UNL d   1     -48.760  13.555  22.980  0.00  0.00     0.020 A 
ATOM      4  C   UNL d   1     -47.336  13.650  22.811  0.00  0.00     0.137 A 
ATOM      5  C   UNL d   1     -48.019  13.195  22.960  0.00  0.00     0.034 A 
ATOM      6  C   UNL d   1     -47.405  14.462  22.683  0.00  0.00     0.034 A 
ENDROOT
BRANCH   4   7
ATOM      7  N   UNL d   1     -46.596  13.298  22.790  0.00  0.00    -0.344 NA
ATOM      8  C   UNL d   1     -45.854  12.941  22.773  0.00  0.00     0.445 C 
ATOM      9  O   UNL d   1     -45.686  12.313  23.280  0.00  0.00    -0.220 OA
BRANCH   8  10
ATOM     10  O   UNL d   1     -45.277  13.212  22.247  0.00  0.00    -0.246 OA
BRANCH  10  11
ATOM     11  C   UNL d   1     -44.628  12.737  22.067  0.00  0.00     0.129 C 
BRANCH  11  12
ATOM     12  C   UNL d   1     -44.059  12.997  21.521  0.00  0.00     0.027 C 
BRANCH  12  13
ATOM     13  C   UNL d   1     -43.318  12.642  21.495  0.00  0.00     0.002 C 
ATOM     14  C   UNL d   1     -42.679  13.048  21.171  0.00  0.00     0.000 C 
ENDBRANCH  12  13
ENDBRANCH  11  12
ENDBRANCH  10  11
ENDBRANCH   8  10
ENDBRANCH   4   7
BRANCH   1  15
ATOM     15  N   UNL d   1     -49.567  14.733  22.871  0.00  0.00    -0.300 N 
ATOM     16  C   UNL d   1     -50.136  14.541  22.306  0.00  0.00     0.107 A 
ATOM     17  C   UNL d   1     -50.869  14.907  22.327  0.00  0.00     0.142 A 
ATOM     18  O   UNL d   1     -51.037  15.464  22.913  0.00  0.00    -0.300 OA
ATOM     19  C   UNL d   1     -50.468  15.655  23.478  0.00  0.00     0.142 A 
ATOM     20  C   UNL d   1     -49.728  15.288  23.457  0.00  0.00     0.107 A 
ENDBRANCH   1  15
TORSDOF 6
ENDMDL
MODEL 2
REMARK VINA RESULT:      -6.4      1.137      1.712
REMARK  6 active torsions:
REMARK  status: ('A' for Active; 'I' for Inactive)
REMARK       I    between atoms: N_3  and  C_1 
REMARK    1  A    between atoms: O_10  and  C_1 
REMARK    2  A    between atoms: N_2  and  C_4 
REMARK    3  A    between atoms: C_9  and  N_3 
REMARK    4  A    between atoms: C_17  and  O_10 
REMARK    5  A    between atoms: C_18  and  C_17 
REMARK    6  A    between atoms: C_19  and  C_18 
ROOT
ATOM      1  C   UNL d   1     -48.711  14.334  22.774  0.00  0.00     0.064 A 
ATOM      2  C   UNL d   1     -48.648  13.532  22.980  0.00  0.00     0.020 A 
ATOM      3  C   UNL d   1     -48.038  14.759  22.560  0.00  0.00     0.020 A 
ATOM      4  C   UNL d   1     -47.239  13.580  22.757  0.00  0.00     0.137 A 
ATOM      5  C   UNL d   1     -47.303  14.386  22.550  0.00  0.00     0.034 A 
ATOM      6  C   UNL d   1     -47.915  13.158  22.971  0.00  0.00     0.034 A 
ENDROOT
BRANCH   4   7
ATOM      7  N   UNL d   1     -46.512  13.203  22.749  0.00  0.00    -0.344 NA
ATOM      8  C   UNL d   1     -45.778  12.828  22.739  0.00  0.00     0.445 C 
ATOM      9  O   UNL d   1     -45.143  13.175  22.343  0.00  0.00    -0.220 OA
BRANCH   8  10
ATOM     10  O   UNL d   1     -45.678  12.105  23.124  0.00  0.00    -0.246 OA
BRANCH  10  11
ATOM     11  C   UNL d   1     -44.992  11.665  23.004  0.00  0.00     0.129 C 
BRANCH  11  12
ATOM     12  C   UNL d   1     -44.873  10.955  23.417  0.00  0.00     0.027 C 
BRANCH  12  13
ATOM     13  C   UNL d   1     -44.160  10.550  23.348  0.00  0.00     0.002 C 
ATOM     14  C   UNL d   1     -44.072   9.810  23.698  0.00  0.00     0.000 C 
ENDBRANCH  12  13
ENDBRANCH  11  12
ENDBRANCH  10  11
ENDBRANCH   8  10
ENDBRANCH   4   7
BRANCH   1  15
ATOM     15  N   UNL d   1     -49.451  14.703  22.786  0.00  0.00    -0.300 N 
ATOM     16  C   UNL d   1     -49.592  15.328  23.306  0.00  0.00     0.107 A 
ATOM     17  C   UNL d   1     -50.326  15.692  23.314  0.00  0.00     0.142 A 
ATOM     18  O   UNL d   1     -50.922  15.433  22.805  0.00  0.00    -0.300 OA
ATOM     19  C   UNL d   1     -50.781  14.808  22.285  0.00  0.00     0.142 A 
ATOM     20  C   UNL d   1     -50.041  14.441  22.276  0.00  0.00     0.107 A 
ENDBRANCH   1  15
TORSDOF 6
ENDMDL
MODEL 3
REMARK VINA RESULT:      -5.4      1.764      1.999
REMARK  6 active torsions:
REMARK  status: ('A' for Active; 'I' for Inactive)
REMARK       I    between atoms: N_3  and  C_1 
REMARK    1  A    between atoms: O_10  and  C_1 
REMARK    2  A    between atoms: N_2  and  C_4 
REMARK    3  A    between atoms: C_9  and  N_3 
REMARK    4  A    between atoms: C_17  and  O_10 
REMARK    5  A    between atoms: C_18  and  C_17 
REMARK    6  A    between atoms: C_19  and  C_18 
ROOT
ATOM      1  C   UNL d   1     -49.054  13.428  22.795  0.00  0.00     0.064 A 
ATOM      2  C   UNL d   1     -48.239  13.575  22.853  0.00  0.00     0.020 A 
ATOM      3  C   UNL d   1     -49.346  12.666  22.916  0.00  0.00     0.020 A 
ATOM      4  C   UNL d   1     -48.008  12.198  23.153  0.00  0.00     0.137 A 
ATOM      5  C   UNL d   1     -48.827  12.052  23.094  0.00  0.00     0.034 A 
ATOM      6  C   UNL d   1     -47.719  12.962  23.031  0.00  0.00     0.034 A 
ENDROOT
BRANCH   4   7
ATOM      7  N   UNL d   1     -47.486  11.592  23.330  0.00  0.00    -0.344 NA
ATOM      8  C   UNL d   1     -46.966  10.978  23.507  0.00  0.00     0.445 C 
ATOM      9  O   UNL d   1     -47.230  10.197  23.494  0.00  0.00    -0.220 OA
BRANCH   8  10
ATOM     10  O   UNL d   1     -46.180  11.145  23.697  0.00  0.00    -0.246 OA
BRANCH  10  11
ATOM     11  C   UNL d   1     -45.599  10.571  23.588  0.00  0.00     0.129 C 
BRANCH  11  12
ATOM     12  C   UNL d   1     -44.800  10.791  23.525  0.00  0.00     0.027 C 
BRANCH  12  13
ATOM     13  C   UNL d   1     -44.207  10.241  23.673  0.00  0.00     0.002 C 
ATOM     14  C   UNL d   1     -43.417  10.456  23.584  0.00  0.00     0.000 C 
ENDBRANCH  12  13
ENDBRANCH  11  12
ENDBRANCH  10  11
ENDBRANCH   8  10
ENDBRANCH   4   7
BRANCH   1  15
ATOM     15  N   UNL d   1     -49.571  14.049  22.616  0.00  0.00    -0.300 N 
ATOM     16  C   UNL d   1     -50.273  13.896  22.210  0.00  0.00     0.107 A 
ATOM     17  C   UNL d   1     -50.782  14.514  22.034  0.00  0.00     0.142 A 
ATOM     18  O   UNL d   1     -50.593  15.284  22.262  0.00  0.00    -0.300 OA
ATOM     19  C   UNL d   1     -49.891  15.436  22.667  0.00  0.00     0.142 A 
ATOM     20  C   UNL d   1     -49.377  14.814  22.845  0.00  0.00     0.107 A 
ENDBRANCH   1  15
TORSDOF 6
ENDMDL
MODEL 4
REMARK VINA RESULT:      -4.1      5.749      9.622
REMARK  6 active torsions:
REMARK  status: ('A' for Active; 'I' for Inactive)
REMARK       I    between atoms: N_3  and  C_1 
REMARK    1  A    between atoms: O_10  and  C_1 
REMARK    2  A    between atoms: N_2  and  C_4 
REMARK    3  A    between atoms: C_9  and  N_3 
REMARK    4  A    between atoms: C_17  and  O_10 
REMARK    5  A    between atoms: C_18  and  C_17 
REMARK    6  A    between atoms: C_19  and  C_18 
ROOT
ATOM      1  C   UNL d   1     -39.247  14.565  17.509  0.00  0.00     0.064 A 
ATOM      2  C   UNL d   1     -38.879  14.298  18.203  0.00  0.00     0.020 A 
ATOM      3  C   UNL d   1     -40.034  14.813  17.528  0.00  0.00     0.020 A 
ATOM      4  C   UNL d   1     -40.083  14.525  18.936  0.00  0.00     0.137 A 
ATOM      5  C   UNL d   1     -40.452  14.794  18.237  0.00  0.00     0.034 A 
ATOM      6  C   UNL d   1     -39.296  14.278  18.913  0.00  0.00     0.034 A 
ENDROOT
BRANCH   4   7
ATOM      7  N   UNL d   1     -40.494  14.504  19.644  0.00  0.00    -0.344 NA
ATOM      8  C   UNL d   1     -40.906  14.487  20.357  0.00  0.00     0.445 C 
ATOM      9  O   UNL d   1     -40.953  15.167  20.822  0.00  0.00    -0.220 OA
BRANCH   8  10
ATOM     10  O   UNL d   1     -41.272  13.791  20.607  0.00  0.00    -0.246 OA
BRANCH  10  11
ATOM     11  C   UNL d   1     -41.981  13.824  21.025  0.00  0.00     0.129 C 
BRANCH  11  12
ATOM     12  C   UNL d   1     -42.354  13.125  21.273  0.00  0.00     0.027 C 
BRANCH  12  13
ATOM     13  C   UNL d   1     -43.166  13.033  21.176  0.00  0.00     0.002 C 
ATOM     14  C   UNL d   1     -43.590  12.557  21.697  0.00  0.00     0.000 C 
ENDBRANCH  12  13
ENDBRANCH  11  12
ENDBRANCH  10  11
ENDBRANCH   8  10
ENDBRANCH   4   7
BRANCH   1  15
ATOM     15  N   UNL d   1     -38.822  14.582  16.800  0.00  0.00    -0.300 N 
ATOM     16  C   UNL d   1     -38.669  13.881  16.394  0.00  0.00     0.107 A 
ATOM     17  C   UNL d   1     -38.247  13.901  15.691  0.00  0.00     0.142 A 
ATOM     18  O   UNL d   1     -37.977  14.621  15.392  0.00  0.00    -0.300 OA
ATOM     19  C   UNL d   1     -38.129  15.323  15.799  0.00  0.00     0.142 A 
ATOM     20  C   UNL d   1     -38.554  15.303  16.507  0.00  0.00     0.107 A 
ENDBRANCH   1  15
TORSDOF 6
ENDMDL
MODEL 5
REMARK VINA RESULT:      -4.1      8.164     10.200
REMARK  6 active torsions:
REMARK  status: ('A' for Active; 'I' for Inactive)
REMARK       I    between atoms: N_3  and  C_1 
REMARK    1  A    between atoms: O_10  and  C_1 
REMARK    2  A    between atoms: N_2  and  C_4 
REMARK    3  A    between atoms: C_9  and  N_3 
REMARK    4  A    between atoms: C_17  and  O_10 
REMARK    5  A    between atoms: C_18  and  C_17 
REMARK    6  A    between atoms: C_19  and  C_18 
ROOT
ATOM      1  C   UNL d   1     -38.814  14.767  17.360  0.00  0.00     0.064 A 
ATOM      2  C   UNL d   1     -39.593  14.505  17.483  0.00  0.00     0.020 A 
ATOM      3  C   UNL d   1     -38.334  14.951  18.005  0.00  0.00     0.020 A 
ATOM      4  C   UNL d   1     -39.410  14.610  18.896  0.00  0.00     0.137 A 
ATOM      5  C   UNL d   1     -38.628  14.873  18.771  0.00  0.00     0.034 A 
ATOM      6  C   UNL d   1     -39.888  14.427  18.248  0.00  0.00     0.034 A 
ENDROOT
BRANCH   4   7
ATOM      7  N   UNL d   1     -39.709  14.531  19.654  0.00  0.00    -0.344 NA
ATOM      8  C   UNL d   1     -40.014  14.452  20.415  0.00  0.00     0.445 C 
ATOM      9  O   UNL d   1     -40.822  14.327  20.524  0.00  0.00    -0.220 OA
BRANCH   8  10
ATOM     10  O   UNL d   1     -39.512  14.496  21.069  0.00  0.00    -0.246 OA
BRANCH  10  11
ATOM     11  C   UNL d   1     -39.599  13.966  21.693  0.00  0.00     0.129 C 
BRANCH  11  12
ATOM     12  C   UNL d   1     -39.090  14.004  22.348  0.00  0.00     0.027 C 
BRANCH  12  13
ATOM     13  C   UNL d   1     -38.963  13.336  22.812  0.00  0.00     0.002 C 
ATOM     14  C   UNL d   1     -38.451  13.375  23.456  0.00  0.00     0.000 C 
ENDBRANCH  12  13
ENDBRANCH  11  12
ENDBRANCH  10  11
ENDBRANCH   8  10
ENDBRANCH   4   7
BRANCH   1  15
ATOM     15  N   UNL d   1     -38.524  14.842  16.590  0.00  0.00    -0.300 N 
ATOM     16  C   UNL d   1     -38.244  14.179  16.188  0.00  0.00     0.107 A 
ATOM     17  C   UNL d   1     -37.957  14.257  15.424  0.00  0.00     0.142 A 
ATOM     18  O   UNL d   1     -37.949  14.997  15.059  0.00  0.00    -0.300 OA
ATOM     19  C   UNL d   1     -38.230  15.661  15.461  0.00  0.00     0.142 A 
ATOM     20  C   UNL d   1     -38.519  15.582  16.231  0.00  0.00     0.107 A 
ENDBRANCH   1  15
TORSDOF 6
ENDMDL
MODEL 6
REMARK VINA RESULT:      -3.8      3.447      7.647
REMARK  6 active torsions:
REMARK  status: ('A' for Active; 'I' for Inactive)
REMARK       I    between atoms: N_3  and  C_1 
REMARK    1  A    between atoms: O_10  and  C_1 
REMARK    2  A    between atoms: N_2  and  C_4 
REMARK    3  A    between atoms: C_9  and  N_3 
REMARK    4  A    between atoms: C_17  and  O_10 
REMARK    5  A    between atoms: C_18  and  C_17 
REMARK    6  A    between atoms: C_19  and  C_18 
ROOT
ATOM      1  C   UNL d   1     -40.660  14.455  20.275  0.00  0.00     0.064 A 
ATOM      2  C   UNL d   1     -40.758  14.416  21.099  0.00  0.00     0.020 A 
ATOM      3  C   UNL d   1     -41.222  14.114  19.776  0.00  0.00     0.020 A 
ATOM      4  C   UNL d   1     -41.979  13.696  20.925  0.00  0.00     0.137 A 
ATOM      5  C   UNL d   1     -41.880  13.735  20.098  0.00  0.00     0.034 A 
ATOM      6  C   UNL d   1     -41.415  14.038  21.421  0.00  0.00     0.034 A 
ENDROOT
BRANCH   4   7
ATOM      7  N   UNL d   1     -42.630  13.321  21.251  0.00  0.00    -0.344 NA
ATOM      8  C   UNL d   1     -43.282  12.939  21.579  0.00  0.00     0.445 C 
ATOM      9  O   UNL d   1     -43.234  12.140  21.781  0.00  0.00    -0.220 OA
BRANCH   8  10
ATOM     10  O   UNL d   1     -43.984  13.354  21.705  0.00  0.00    -0.246 OA
BRANCH  10  11
ATOM     11  C   UNL d   1     -44.661  12.955  21.952  0.00  0.00     0.129 C 
BRANCH  11  12
ATOM     12  C   UNL d   1     -45.353  13.377  22.133  0.00  0.00     0.027 C 
BRANCH  12  13
ATOM     13  C   UNL d   1     -46.012  12.984  22.429  0.00  0.00     0.002 C 
ATOM     14  C   UNL d   1     -46.652  13.414  22.718  0.00  0.00     0.000 C 
ENDBRANCH  12  13
ENDBRANCH  11  12
ENDBRANCH  10  11
ENDBRANCH   8  10
ENDBRANCH   4   7
BRANCH   1  15
ATOM     15  N   UNL d   1     -39.999  14.836  19.958  0.00  0.00    -0.300 N 
ATOM     16  C   UNL d   1     -39.608  14.512  19.308  0.00  0.00     0.107 A 
ATOM     17  C   UNL d   1     -38.953  14.893  18.997  0.00  0.00     0.142 A 
ATOM     18  O   UNL d   1     -38.685  15.598  19.333  0.00  0.00    -0.300 OA
ATOM     19  C   UNL d   1     -39.076  15.922  19.983  0.00  0.00     0.142 A 
ATOM     20  C   UNL d   1     -39.737  15.539  20.297  0.00  0.00     0.107 A 
ENDBRANCH   1  15
TORSDOF 6
ENDMDL
