MODEL 1
REMARK VINA RESULT:      -5.5      0.000      0.000
REMARK  3 active torsions:
REMARK  status: ('A' for Active; 'I' for Inactive)
REMARK    1  A    between atoms: N_2  and  C_1 
REMARK       I    between atoms: C_5  and  N_2 
REMARK    2  A    between atoms: C_8  and  C_5 
REMARK    3  A    between atoms: O_17  and  C_13 
ROOT
ATOM      1  N   UNL d   1     -41.325-122.755 -50.903  0.00  0.00    -0.184 NA
ATOM      2  C   UNL d   1     -41.818-123.283 -50.502  0.00  0.00     0.281 C 
ATOM      3  O   UNL d   1     -42.267-123.816 -50.946  0.00  0.00    -0.265 OA
ENDROOT
BRANCH   1   4
ATOM      4  C   UNL d   1     -41.299-122.778 -51.732  0.00  0.00     0.182 A 
ATOM      5  N   UNL d   1     -41.272-122.136 -52.274  0.00  0.00    -0.283 N 
ATOM      6  C   UNL d   1     -41.253-122.496 -53.047  0.00  0.00     0.072 A 
ATOM      7  C   UNL d   1     -41.266-121.363 -52.091  0.00  0.00     0.101 C 
ATOM      8  C   UNL d   1     -41.224-122.170 -53.823  0.00  0.00     0.018 A 
ATOM      9  C   UNL d   1     -41.269-123.285 -52.939  0.00  0.00     0.048 A 
ATOM     10  C   UNL d   1     -41.211-122.691 -54.490  0.00  0.00     0.002 A 
ATOM     11  C   UNL d   1     -41.227-123.490 -54.370  0.00  0.00     0.001 A 
ATOM     12  C   UNL d   1     -41.256-123.816 -53.601  0.00  0.00     0.008 A 
ATOM     13  S   UNL d   1     -41.296-123.470 -52.160  0.00  0.00    -0.048 SA
ENDBRANCH   1   4
BRANCH   2  14
ATOM     14  C   UNL d   1     -41.879-123.302 -49.696  0.00  0.00     0.058 A 
ATOM     15  C   UNL d   1     -41.231-123.500 -49.248  0.00  0.00     0.007 A 
ATOM     16  C   UNL d   1     -41.298-123.518 -48.426  0.00  0.00     0.024 A 
ATOM     17  C   UNL d   1     -42.010-123.339 -48.068  0.00  0.00     0.094 A 
ATOM     18  C   UNL d   1     -42.658-123.142 -48.517  0.00  0.00     0.024 A 
ATOM     19  C   UNL d   1     -42.614-123.116 -49.357  0.00  0.00     0.007 A 
BRANCH  17  20
ATOM     20  O   UNL d   1     -42.069-123.360 -47.240  0.00  0.00    -0.328 OA
ATOM     21  C   UNL d   1     -41.754-122.763 -46.676  0.00  0.00     0.181 C 
ENDBRANCH  17  20
ENDBRANCH   2  14
TORSDOF 3
ENDMDL
MODEL 2
REMARK VINA RESULT:      -5.4      1.336      4.804
REMARK  3 active torsions:
REMARK  status: ('A' for Active; 'I' for Inactive)
REMARK    1  A    between atoms: N_2  and  C_1 
REMARK       I    between atoms: C_5  and  N_2 
REMARK    2  A    between atoms: C_8  and  C_5 
REMARK    3  A    between atoms: O_17  and  C_13 
ROOT
ATOM      1  N   UNL d   1     -41.935-123.393 -50.724  0.00  0.00    -0.184 NA
ATOM      2  C   UNL d   1     -41.498-122.793 -51.087  0.00  0.00     0.281 C 
ATOM      3  O   UNL d   1     -41.129-122.230 -50.608  0.00  0.00    -0.265 OA
ENDROOT
BRANCH   1   4
ATOM      4  C   UNL d   1     -41.988-123.408 -49.896  0.00  0.00     0.182 A 
ATOM      5  N   UNL d   1     -42.676-123.399 -49.413  0.00  0.00    -0.283 N 
ATOM      6  C   UNL d   1     -42.387-123.424 -48.611  0.00  0.00     0.072 A 
ATOM      7  C   UNL d   1     -43.429-123.372 -49.665  0.00  0.00     0.101 C 
ATOM      8  C   UNL d   1     -42.782-123.428 -47.867  0.00  0.00     0.018 A 
ATOM      9  C   UNL d   1     -41.591-123.446 -48.648  0.00  0.00     0.048 A 
ATOM     10  C   UNL d   1     -42.323-123.456 -47.156  0.00  0.00     0.002 A 
ATOM     11  C   UNL d   1     -41.517-123.478 -47.204  0.00  0.00     0.001 A 
ATOM     12  C   UNL d   1     -41.123-123.474 -47.941  0.00  0.00     0.008 A 
ATOM     13  S   UNL d   1     -41.337-123.437 -49.408  0.00  0.00    -0.048 SA
ENDBRANCH   1   4
BRANCH   2  14
ATOM     14  C   UNL d   1     -41.416-122.733 -51.889  0.00  0.00     0.058 A 
ATOM     15  C   UNL d   1     -41.205-123.388 -52.322  0.00  0.00     0.007 A 
ATOM     16  C   UNL d   1     -41.123-123.321 -53.140  0.00  0.00     0.024 A 
ATOM     17  C   UNL d   1     -41.251-122.605 -53.510  0.00  0.00     0.094 A 
ATOM     18  C   UNL d   1     -41.462-121.950 -53.076  0.00  0.00     0.024 A 
ATOM     19  C   UNL d   1     -41.552-121.993 -52.240  0.00  0.00     0.007 A 
BRANCH  17  20
ATOM     20  O   UNL d   1     -41.166-122.547 -54.334  0.00  0.00    -0.328 OA
ATOM     21  C   UNL d   1     -41.793-122.338 -54.914  0.00  0.00     0.181 C 
ENDBRANCH  17  20
ENDBRANCH   2  14
TORSDOF 3
ENDMDL
MODEL 3
REMARK VINA RESULT:      -2.8      1.434      4.807
REMARK  3 active torsions:
REMARK  status: ('A' for Active; 'I' for Inactive)
REMARK    1  A    between atoms: N_2  and  C_1 
REMARK       I    between atoms: C_5  and  N_2 
REMARK    2  A    between atoms: C_8  and  C_5 
REMARK    3  A    between atoms: O_17  and  C_13 
ROOT
ATOM      1  N   UNL d   1     -41.921-122.358 -51.622  0.00  0.00    -0.184 NA
ATOM      2  C   UNL d   1     -41.840-122.920 -52.221  0.00  0.00     0.281 C 
ATOM      3  O   UNL d   1     -41.756-123.714 -52.007  0.00  0.00    -0.265 OA
ENDROOT
BRANCH   1   4
ATOM      4  C   UNL d   1     -41.914-122.608 -50.830  0.00  0.00     0.182 A 
ATOM      5  N   UNL d   1     -42.399-122.350 -50.194  0.00  0.00    -0.283 N 
ATOM      6  C   UNL d   1     -42.140-122.801 -49.518  0.00  0.00     0.072 A 
ATOM      7  C   UNL d   1     -42.973-121.803 -50.230  0.00  0.00     0.101 C 
ATOM      8  C   UNL d   1     -42.392-122.812 -48.715  0.00  0.00     0.018 A 
ATOM      9  C   UNL d   1     -41.550-123.276 -49.765  0.00  0.00     0.048 A 
ATOM     10  C   UNL d   1     -42.012-123.336 -48.170  0.00  0.00     0.002 A 
ATOM     11  C   UNL d   1     -41.414-123.815 -48.429  0.00  0.00     0.001 A 
ATOM     12  C   UNL d   1     -41.162-123.805 -49.226  0.00  0.00     0.008 A 
ATOM     13  S   UNL d   1     -41.403-123.173 -50.545  0.00  0.00    -0.048 SA
ENDBRANCH   1   4
BRANCH   2  14
ATOM     14  C   UNL d   1     -41.841-122.729 -53.007  0.00  0.00     0.058 A 
ATOM     15  C   UNL d   1     -42.496-122.890 -53.459  0.00  0.00     0.007 A 
ATOM     16  C   UNL d   1     -42.492-122.693 -54.260  0.00  0.00     0.024 A 
ATOM     17  C   UNL d   1     -41.836-122.341 -54.594  0.00  0.00     0.094 A 
ATOM     18  C   UNL d   1     -41.180-122.180 -54.141  0.00  0.00     0.024 A 
ATOM     19  C   UNL d   1     -41.161-122.371 -53.321  0.00  0.00     0.007 A 
BRANCH  17  20
ATOM     20  O   UNL d   1     -41.840-122.146 -55.401  0.00  0.00    -0.328 OA
ATOM     21  C   UNL d   1     -42.231-121.450 -55.772  0.00  0.00     0.181 C 
ENDBRANCH  17  20
ENDBRANCH   2  14
TORSDOF 3
ENDMDL
