MODEL 1
REMARK VINA RESULT:      80.2      0.000      0.000
REMARK  5 active torsions:
REMARK  status: ('A' for Active; 'I' for Inactive)
REMARK    1  A    between atoms: C_12  and  N_3 
REMARK    2  A    between atoms: C_10  and  N_7 
REMARK    3  A    between atoms: C_11  and  C_10 
REMARK    4  A    between atoms: C_14  and  C_11 
REMARK    5  A    between atoms: C_19  and  C_12 
ROOT
ATOM      1  C   UNL d   1      61.138  47.805  49.926  0.00  0.00     0.191 A 
ATOM      2  C   UNL d   1      61.167  48.264  50.622  0.00  0.00     0.196 A 
ATOM      3  N   UNL d   1      61.724  47.220  49.991  0.00  0.00    -0.191 N 
ATOM      4  N   UNL d   1      60.592  47.985  49.345  0.00  0.00    -0.204 NA
ATOM      5  N   UNL d   1      61.770  47.952  51.100  0.00  0.00    -0.122 NA
ATOM      6  N   UNL d   1      62.099  47.322  50.710  0.00  0.00    -0.058 NA
ATOM      7  N   UNL d   1      60.095  49.074  50.133  0.00  0.00    -0.251 N 
ATOM      8  C   UNL d   1      60.649  48.889  50.717  0.00  0.00     0.289 A 
ATOM      9  C   UNL d   1      60.067  48.615  49.437  0.00  0.00     0.187 A 
ATOM     10  O   UNL d   1      60.677  49.348  51.412  0.00  0.00    -0.265 OA
ENDROOT
BRANCH   7  11
ATOM     11  C   UNL d   1      59.565  49.708  50.222  0.00  0.00     0.127 C 
BRANCH  11  12
ATOM     12  C   UNL d   1      58.832  49.705  49.826  0.00  0.00     0.213 C 
ATOM     13  O   UNL d   1      58.812  49.703  49.000  0.00  0.00    -0.285 OA
BRANCH  12  14
ATOM     14  C   UNL d   1      58.137  49.703  50.262  0.00  0.00     0.041 A 
ATOM     15  C   UNL d   1      58.167  49.698  51.089  0.00  0.00     0.004 A 
ATOM     16  C   UNL d   1      57.475  49.697  51.518  0.00  0.00     0.011 A 
ATOM     17  C   UNL d   1      56.744  49.700  51.133  0.00  0.00     0.058 A 
ATOM     18  C   UNL d   1      56.713  49.705  50.305  0.00  0.00     0.011 A 
ATOM     19 CL   UNL d   1      56.036  49.698  51.573  0.00  0.00    -0.082 Cl
ATOM     20  C   UNL d   1      57.406  49.706  49.877  0.00  0.00     0.004 A 
ENDBRANCH  12  14
ENDBRANCH  11  12
ENDBRANCH   7  11
BRANCH   3  21
ATOM     21  C   UNL d   1      61.900  46.630  49.423  0.00  0.00     0.104 C 
BRANCH  21  22
ATOM     22  C   UNL d   1      61.728  45.832  49.588  0.00  0.00     0.019 A 
ATOM     23  C   UNL d   1      61.174  45.634  50.166  0.00  0.00     0.002 A 
ATOM     24  C   UNL d   1      61.020  44.851  50.313  0.00  0.00     0.000 A 
ATOM     25  C   UNL d   1      61.397  44.255  49.904  0.00  0.00     0.000 A 
ATOM     26  C   UNL d   1      61.966  44.459  49.310  0.00  0.00     0.000 A 
ATOM     27  C   UNL d   1      62.123  45.250  49.161  0.00  0.00     0.002 A 
ENDBRANCH  21  22
ENDBRANCH   3  21
TORSDOF 5
ENDMDL
