MODEL 1
REMARK VINA RESULT:      13.9      0.000      0.000
REMARK  2 active torsions:
REMARK  status: ('A' for Active; 'I' for Inactive)
REMARK    1  A    between atoms: C_6  and  C_1 
REMARK    2  A    between atoms: C_7  and  C_5 
ROOT
ATOM      1  C   UNL d   1     -55.257-102.348 -40.212  0.00  0.00     0.169 A 
ATOM      2  C   UNL d   1     -54.908-102.083 -39.496  0.00  0.00     0.048 A 
ATOM      3  N   UNL d   1     -55.957-102.864 -39.175  0.00  0.00    -0.148 NA
ATOM      4  N   UNL d   1     -55.894-102.823 -40.009  0.00  0.00    -0.142 NA
ATOM      5  C   UNL d   1     -55.333-102.395 -38.867  0.00  0.00     0.105 A 
ENDROOT
BRANCH   5   6
ATOM      6  C   UNL d   1     -55.181-102.276 -38.067  0.00  0.00     0.019 A 
ATOM      7  C   UNL d   1     -55.350-102.875 -37.525  0.00  0.00     0.002 A 
ATOM      8  C   UNL d   1     -55.200-102.760 -36.724  0.00  0.00     0.011 A 
ATOM      9  C   UNL d   1     -54.880-102.055 -36.441  0.00  0.00     0.058 A 
ATOM     10  C   UNL d   1     -54.713-101.462 -36.988  0.00  0.00     0.011 A 
ATOM     11 CL   UNL d   1     -54.734-101.945 -35.657  0.00  0.00    -0.082 Cl
ATOM     12  C   UNL d   1     -54.859-101.563 -37.796  0.00  0.00     0.002 A 
ENDBRANCH   5   6
BRANCH   1  13
ATOM     13  C   UNL d   1     -54.996-102.159 -40.982  0.00  0.00     0.231 C 
ATOM     14  O   UNL d   1     -54.714-101.399 -41.166  0.00  0.00    -0.643 OA
ATOM     15  O   UNL d   1     -55.027-102.755 -41.567  0.00  0.00    -0.643 OA
ENDBRANCH   1  13
TORSDOF 2
ENDMDL
