MODEL 1
REMARK VINA RESULT:      -2.6      0.000      0.000
REMARK  1 active torsions:
REMARK  status: ('A' for Active; 'I' for Inactive)
REMARK    1  A    between atoms: C_6  and  C_2 
ROOT
ATOM      1  C   UNL d   1      32.571  22.291 -20.966  0.00  0.00     0.019 A 
ATOM      2  C   UNL d   1      32.143  22.860 -21.366  0.00  0.00     0.001 A 
ATOM      3  C   UNL d   1      32.828  22.410 -20.201  0.00  0.00     0.001 A 
ATOM      4  C   UNL d   1      32.655  23.118 -19.818  0.00  0.00     0.000 A 
ATOM      5  C   UNL d   1      31.965  23.574 -20.986  0.00  0.00     0.000 A 
ATOM      6  C   UNL d   1      32.220  23.701 -20.215  0.00  0.00     0.000 A 
ENDROOT
BRANCH   1   7
ATOM      7  C   UNL d   1      32.749  21.575 -21.349  0.00  0.00     0.102 A 
ATOM      8  N   UNL d   1      32.492  20.827 -21.118  0.00  0.00    -0.222 NA
ATOM      9  C   UNL d   1      32.797  20.277 -21.654  0.00  0.00     0.199 A 
ATOM     10  N   UNL d   1      33.240  20.685 -22.214  0.00  0.00    -0.221 NA
ATOM     11  C   UNL d   1      33.213  21.489 -22.030  0.00  0.00     0.120 A 
ENDBRANCH   1   7
TORSDOF 1
ENDMDL
MODEL 2
REMARK VINA RESULT:      -2.4      6.556      7.147
REMARK  1 active torsions:
REMARK  status: ('A' for Active; 'I' for Inactive)
REMARK    1  A    between atoms: C_6  and  C_2 
ROOT
ATOM      1  C   UNL d   1      29.957  16.234 -23.844  0.00  0.00     0.019 A 
ATOM      2  C   UNL d   1      29.580  15.740 -23.314  0.00  0.00     0.001 A 
ATOM      3  C   UNL d   1      29.551  16.811 -24.254  0.00  0.00     0.001 A 
ATOM      4  C   UNL d   1      28.741  16.902 -24.133  0.00  0.00     0.000 A 
ATOM      5  C   UNL d   1      28.766  15.827 -23.188  0.00  0.00     0.000 A 
ATOM      6  C   UNL d   1      28.350  16.406 -23.597  0.00  0.00     0.000 A 
ENDROOT
BRANCH   1   7
ATOM      7  C   UNL d   1      30.775  16.145 -23.969  0.00  0.00     0.102 A 
ATOM      8  N   UNL d   1      31.369  16.577 -23.597  0.00  0.00    -0.222 NA
ATOM      9  C   UNL d   1      32.097  16.308 -23.884  0.00  0.00     0.199 A 
ATOM     10  N   UNL d   1      31.950  15.711 -24.431  0.00  0.00    -0.221 NA
ATOM     11  C   UNL d   1      31.132  15.607 -24.487  0.00  0.00     0.120 A 
ENDBRANCH   1   7
TORSDOF 1
ENDMDL
MODEL 3
REMARK VINA RESULT:      -2.3      6.145      7.071
REMARK  1 active torsions:
REMARK  status: ('A' for Active; 'I' for Inactive)
REMARK    1  A    between atoms: C_6  and  C_2 
ROOT
ATOM      1  C   UNL d   1      30.321  16.526 -24.036  0.00  0.00     0.019 A 
ATOM      2  C   UNL d   1      30.432  17.242 -24.413  0.00  0.00     0.001 A 
ATOM      3  C   UNL d   1      30.924  16.162 -23.625  0.00  0.00     0.001 A 
ATOM      4  C   UNL d   1      31.665  16.519 -23.586  0.00  0.00     0.000 A 
ATOM      5  C   UNL d   1      31.175  17.607 -24.377  0.00  0.00     0.000 A 
ATOM      6  C   UNL d   1      31.787  17.246 -23.965  0.00  0.00     0.000 A 
ENDROOT
BRANCH   1   7
ATOM      7  C   UNL d   1      29.574  16.161 -24.073  0.00  0.00     0.102 A 
ATOM      8  N   UNL d   1      28.990  16.197 -23.492  0.00  0.00    -0.222 NA
ATOM      9  C   UNL d   1      28.342  15.758 -23.757  0.00  0.00     0.199 A 
ATOM     10  N   UNL d   1      28.526  15.453 -24.498  0.00  0.00    -0.221 NA
ATOM     11  C   UNL d   1      29.288  15.700 -24.698  0.00  0.00     0.120 A 
ENDBRANCH   1   7
TORSDOF 1
ENDMDL
MODEL 4
REMARK VINA RESULT:      -2.2      4.719      5.732
REMARK  1 active torsions:
REMARK  status: ('A' for Active; 'I' for Inactive)
REMARK    1  A    between atoms: C_6  and  C_2 
ROOT
ATOM      1  C   UNL d   1      32.206  17.477 -23.787  0.00  0.00     0.019 A 
ATOM      2  C   UNL d   1      32.584  17.858 -23.172  0.00  0.00     0.001 A 
ATOM      3  C   UNL d   1      32.188  17.795 -24.539  0.00  0.00     0.001 A 
ATOM      4  C   UNL d   1      32.557  18.517 -24.685  0.00  0.00     0.000 A 
ATOM      5  C   UNL d   1      32.957  18.584 -23.313  0.00  0.00     0.000 A 
ATOM      6  C   UNL d   1      32.942  18.910 -24.066  0.00  0.00     0.000 A 
ENDROOT
BRANCH   1   7
ATOM      7  C   UNL d   1      31.833  16.748 -23.643  0.00  0.00     0.102 A 
ATOM      8  N   UNL d   1      31.019  16.623 -23.605  0.00  0.00    -0.222 NA
ATOM      9  C   UNL d   1      30.893  15.820 -23.451  0.00  0.00     0.199 A 
ATOM     10  N   UNL d   1      31.627  15.453 -23.396  0.00  0.00    -0.221 NA
ATOM     11  C   UNL d   1      32.212  16.024 -23.514  0.00  0.00     0.120 A 
ENDBRANCH   1   7
TORSDOF 1
ENDMDL
MODEL 5
REMARK VINA RESULT:      -2.2      4.194      5.833
REMARK  1 active torsions:
REMARK  status: ('A' for Active; 'I' for Inactive)
REMARK    1  A    between atoms: C_6  and  C_2 
ROOT
ATOM      1  C   UNL d   1      31.748  17.480 -23.973  0.00  0.00     0.019 A 
ATOM      2  C   UNL d   1      31.902  16.801 -23.546  0.00  0.00     0.001 A 
ATOM      3  C   UNL d   1      31.056  17.571 -24.395  0.00  0.00     0.001 A 
ATOM      4  C   UNL d   1      30.496  16.967 -24.394  0.00  0.00     0.000 A 
ATOM      5  C   UNL d   1      31.343  16.190 -23.542  0.00  0.00     0.000 A 
ATOM      6  C   UNL d   1      30.643  16.274 -23.964  0.00  0.00     0.000 A 
ENDROOT
BRANCH   1   7
ATOM      7  C   UNL d   1      32.311  18.091 -23.977  0.00  0.00     0.102 A 
ATOM      8  N   UNL d   1      32.541  18.540 -23.324  0.00  0.00    -0.222 NA
ATOM      9  C   UNL d   1      33.111  19.083 -23.577  0.00  0.00     0.199 A 
ATOM     10  N   UNL d   1      33.232  18.969 -24.383  0.00  0.00    -0.221 NA
ATOM     11  C   UNL d   1      32.739  18.356 -24.635  0.00  0.00     0.120 A 
ENDBRANCH   1   7
TORSDOF 1
ENDMDL
