MODEL 1
REMARK VINA RESULT:      40.8      0.000      0.000
REMARK  3 active torsions:
REMARK  status: ('A' for Active; 'I' for Inactive)
REMARK       I    between atoms: C_4  and  N_1 
REMARK    1  A    between atoms: C_7  and  C_3 
REMARK    2  A    between atoms: C_9  and  C_4 
REMARK    3  A    between atoms: C_8  and  C_5 
ROOT
ATOM      1  N   UNL d   1      14.081  13.139  -2.357  0.00  0.00    -0.191 N 
ATOM      2  N   UNL d   1      14.384  13.779  -1.951  0.00  0.00    -0.163 NA
ATOM      3  C   UNL d   1      13.850  13.427  -3.116  0.00  0.00     0.110 A 
ATOM      4  C   UNL d   1      14.011  12.377  -2.093  0.00  0.00     0.303 C 
ATOM      5  C   UNL d   1      14.350  14.450  -2.429  0.00  0.00     0.103 A 
ATOM      6  C   UNL d   1      14.024  14.235  -3.138  0.00  0.00     0.042 A 
ATOM      7  O   UNL d   1      13.669  11.779  -2.623  0.00  0.00    -0.263 OA
ENDROOT
BRANCH   3   8
ATOM      8  C   UNL d   1      13.512  12.979  -3.721  0.00  0.00     0.118 A 
ATOM      9  O   UNL d   1      13.682  12.200  -3.880  0.00  0.00    -0.304 OA
ATOM     10  C   UNL d   1      13.219  11.963  -4.535  0.00  0.00     0.123 A 
ATOM     11  C   UNL d   1      12.769  12.614  -4.766  0.00  0.00     0.029 A 
ATOM     12  C   UNL d   1      12.960  13.244  -4.250  0.00  0.00     0.028 A 
ENDBRANCH   3   8
BRANCH   4  13
ATOM     13  C   UNL d   1      14.250  12.148  -1.347  0.00  0.00     0.158 A 
ATOM     14  O   UNL d   1      15.022  12.030  -1.092  0.00  0.00    -0.300 OA
ATOM     15  C   UNL d   1      15.013  11.803  -0.304  0.00  0.00     0.123 A 
ATOM     16  C   UNL d   1      14.229  11.779  -0.061  0.00  0.00     0.029 A 
ATOM     17  C   UNL d   1      13.750  11.992  -0.704  0.00  0.00     0.032 A 
ENDBRANCH   4  13
BRANCH   5  18
ATOM     18  C   UNL d   1      14.612  15.206  -2.196  0.00  0.00     0.019 A 
ATOM     19  C   UNL d   1      14.780  15.325  -1.422  0.00  0.00     0.002 A 
ATOM     20  C   UNL d   1      15.042  16.060  -1.157  0.00  0.00     0.007 A 
ATOM     21  C   UNL d   1      15.129  16.670  -1.692  0.00  0.00     0.035 A 
ATOM     22  C   UNL d   1      14.959  16.565  -2.501  0.00  0.00     0.007 A 
ATOM     23 BR   UNL d   1      15.391  17.402  -1.421  0.00  0.00    -0.049 Br
ATOM     24  C   UNL d   1      14.691  15.802  -2.754  0.00  0.00     0.002 A 
ENDBRANCH   5  18
TORSDOF 3
ENDMDL
MODEL 2
REMARK VINA RESULT:      43.7      1.877      3.590
REMARK  3 active torsions:
REMARK  status: ('A' for Active; 'I' for Inactive)
REMARK       I    between atoms: C_4  and  N_1 
REMARK    1  A    between atoms: C_7  and  C_3 
REMARK    2  A    between atoms: C_9  and  C_4 
REMARK    3  A    between atoms: C_8  and  C_5 
ROOT
ATOM      1  N   UNL d   1      14.523  13.769  -1.872  0.00  0.00    -0.191 N 
ATOM      2  N   UNL d   1      14.255  13.170  -2.359  0.00  0.00    -0.163 NA
ATOM      3  C   UNL d   1      14.403  14.489  -2.294  0.00  0.00     0.110 A 
ATOM      4  C   UNL d   1      14.841  13.696  -1.132  0.00  0.00     0.303 C 
ATOM      5  C   UNL d   1      13.974  13.493  -3.064  0.00  0.00     0.103 A 
ATOM      6  C   UNL d   1      14.065  14.296  -3.024  0.00  0.00     0.042 A 
ATOM      7  O   UNL d   1      15.092  14.413  -0.710  0.00  0.00    -0.263 OA
ENDROOT
BRANCH   3   8
ATOM      8  C   UNL d   1      14.591  15.245  -2.023  0.00  0.00     0.118 A 
ATOM      9  O   UNL d   1      14.618  15.471  -1.243  0.00  0.00    -0.304 OA
ATOM     10  C   UNL d   1      14.830  16.281  -1.215  0.00  0.00     0.123 A 
ATOM     11  C   UNL d   1      14.929  16.535  -1.993  0.00  0.00     0.029 A 
ATOM     12  C   UNL d   1      14.777  15.880  -2.490  0.00  0.00     0.028 A 
ENDBRANCH   3   8
BRANCH   4  13
ATOM     13  C   UNL d   1      14.937  12.972  -0.765  0.00  0.00     0.158 A 
ATOM     14  O   UNL d   1      15.586  12.471  -0.824  0.00  0.00    -0.300 OA
ATOM     15  C   UNL d   1      15.452  11.804  -0.368  0.00  0.00     0.123 A 
ATOM     16  C   UNL d   1      14.713  11.885  -0.018  0.00  0.00     0.029 A 
ATOM     17  C   UNL d   1      14.388  12.608  -0.261  0.00  0.00     0.032 A 
ENDBRANCH   4  13
BRANCH   5  18
ATOM     18  C   UNL d   1      13.657  13.045  -3.692  0.00  0.00     0.019 A 
ATOM     19  C   UNL d   1      13.860  13.249  -4.439  0.00  0.00     0.002 A 
ATOM     20  C   UNL d   1      13.565  12.827  -5.084  0.00  0.00     0.007 A 
ATOM     21  C   UNL d   1      13.063  12.198  -4.953  0.00  0.00     0.035 A 
ATOM     22  C   UNL d   1      12.841  11.971  -4.182  0.00  0.00     0.007 A 
ATOM     23 BR   UNL d   1      12.771  11.780  -5.601  0.00  0.00    -0.049 Br
ATOM     24  C   UNL d   1      13.155  12.417  -3.533  0.00  0.00     0.002 A 
ENDBRANCH   5  18
TORSDOF 3
ENDMDL
