MODEL 1
REMARK VINA RESULT:      -3.8      0.000      0.000
REMARK  4 active torsions:
REMARK  status: ('A' for Active; 'I' for Inactive)
REMARK    1  A    between atoms: C_7  and  N_1 
REMARK    2  A    between atoms: C_12  and  N_4 
REMARK    3  A    between atoms: C_8  and  C_7 
REMARK    4  A    between atoms: C_16  and  C_12 
ROOT
ATOM      1  N   UNL d   1      59.532  -0.500  29.441  0.00  0.00    -0.273 N 
ATOM      2  C   UNL d   1      60.084   0.015  29.804  0.00  0.00     0.153 A 
ATOM      3  S   UNL d   1      59.824   0.596  30.314  0.00  0.00    -0.039 SA
ATOM      4  N   UNL d   1      58.469   0.167  30.114  0.00  0.00    -0.281 N 
ATOM      5  C   UNL d   1      58.730  -0.423  29.597  0.00  0.00     0.168 A 
ATOM      6  C   UNL d   1      59.021   0.682  30.476  0.00  0.00     0.120 A 
ATOM      7  S   UNL d   1      60.898  -0.070  29.641  0.00  0.00    -0.052 SA
ENDROOT
BRANCH   4   8
ATOM      8  C   UNL d   1      57.669   0.255  30.279  0.00  0.00     0.101 C 
BRANCH   8   9
ATOM      9  C   UNL d   1      57.374   0.029  31.014  0.00  0.00     0.099 A 
ATOM     10  N   UNL d   1      57.062  -0.735  31.098  0.00  0.00    -0.242 NA
ATOM     11  C   UNL d   1      56.763  -0.970  31.834  0.00  0.00     0.099 A 
ATOM     12  C   UNL d   1      56.779  -0.445  32.474  0.00  0.00     0.021 A 
ATOM     13  C   UNL d   1      57.092   0.314  32.377  0.00  0.00     0.003 A 
ATOM     14  C   UNL d   1      57.387   0.546  31.651  0.00  0.00     0.021 A 
ENDBRANCH   8   9
ENDBRANCH   4   8
BRANCH   1  15
ATOM     15  C   UNL d   1      59.807  -1.087  28.926  0.00  0.00     0.107 C 
BRANCH  15  16
ATOM     16  C   UNL d   1      59.488  -1.850  28.941  0.00  0.00     0.118 A 
ATOM     17  O   UNL d   1      59.715  -2.458  29.457  0.00  0.00    -0.304 OA
ATOM     18  C   UNL d   1      59.252  -3.117  29.275  0.00  0.00     0.123 A 
ATOM     19  C   UNL d   1      58.752  -2.923  28.664  0.00  0.00     0.029 A 
ATOM     20  C   UNL d   1      58.896  -2.138  28.455  0.00  0.00     0.028 A 
ENDBRANCH  15  16
ENDBRANCH   1  15
TORSDOF 4
ENDMDL
MODEL 2
REMARK VINA RESULT:      -3.1      0.881      1.219
REMARK  4 active torsions:
REMARK  status: ('A' for Active; 'I' for Inactive)
REMARK    1  A    between atoms: C_7  and  N_1 
REMARK    2  A    between atoms: C_12  and  N_4 
REMARK    3  A    between atoms: C_8  and  C_7 
REMARK    4  A    between atoms: C_16  and  C_12 
ROOT
ATOM      1  N   UNL d   1      59.039   0.030  30.200  0.00  0.00    -0.273 N 
ATOM      2  C   UNL d   1      59.545   0.363  30.779  0.00  0.00     0.153 A 
ATOM      3  S   UNL d   1      59.228   0.680  31.461  0.00  0.00    -0.039 SA
ATOM      4  N   UNL d   1      57.908   0.343  31.007  0.00  0.00    -0.281 N 
ATOM      5  C   UNL d   1      58.227   0.020  30.315  0.00  0.00     0.168 A 
ATOM      6  C   UNL d   1      58.414   0.676  31.586  0.00  0.00     0.120 A 
ATOM      7  S   UNL d   1      60.369   0.369  30.654  0.00  0.00    -0.052 SA
ENDROOT
BRANCH   4   8
ATOM      8  C   UNL d   1      57.097   0.340  31.135  0.00  0.00     0.101 C 
BRANCH   8   9
ATOM      9  C   UNL d   1      56.788  -0.036  31.800  0.00  0.00     0.099 A 
ATOM     10  N   UNL d   1      56.621   0.420  32.471  0.00  0.00    -0.242 NA
ATOM     11  C   UNL d   1      56.309   0.048  33.144  0.00  0.00     0.099 A 
ATOM     12  C   UNL d   1      56.170  -0.767  33.139  0.00  0.00     0.021 A 
ATOM     13  C   UNL d   1      56.342  -1.211  32.463  0.00  0.00     0.003 A 
ATOM     14  C   UNL d   1      56.648  -0.845  31.800  0.00  0.00     0.021 A 
ENDBRANCH   8   9
ENDBRANCH   4   8
BRANCH   1  15
ATOM     15  C   UNL d   1      59.371  -0.290  29.512  0.00  0.00     0.107 C 
BRANCH  15  16
ATOM     16  C   UNL d   1      59.113  -1.017  29.214  0.00  0.00     0.118 A 
ATOM     17  O   UNL d   1      59.292  -1.761  29.533  0.00  0.00    -0.304 OA
ATOM     18  C   UNL d   1      58.921  -2.326  29.060  0.00  0.00     0.123 A 
ATOM     19  C   UNL d   1      58.522  -1.942  28.464  0.00  0.00     0.029 A 
ATOM     20  C   UNL d   1      58.639  -1.132  28.556  0.00  0.00     0.028 A 
ENDBRANCH  15  16
ENDBRANCH   1  15
TORSDOF 4
ENDMDL
MODEL 3
REMARK VINA RESULT:      -2.7      1.147      1.312
REMARK  4 active torsions:
REMARK  status: ('A' for Active; 'I' for Inactive)
REMARK    1  A    between atoms: C_7  and  N_1 
REMARK    2  A    between atoms: C_12  and  N_4 
REMARK    3  A    between atoms: C_8  and  C_7 
REMARK    4  A    between atoms: C_16  and  C_12 
ROOT
ATOM      1  N   UNL d   1      58.288  -0.708  29.516  0.00  0.00    -0.273 N 
ATOM      2  C   UNL d   1      58.243   0.090  29.263  0.00  0.00     0.153 A 
ATOM      3  S   UNL d   1      58.110   0.682  29.809  0.00  0.00    -0.039 SA
ATOM      4  N   UNL d   1      58.064  -0.294  30.860  0.00  0.00    -0.281 N 
ATOM      5  C   UNL d   1      58.198  -0.896  30.310  0.00  0.00     0.168 A 
ATOM      6  C   UNL d   1      58.019   0.503  30.608  0.00  0.00     0.120 A 
ATOM      7  S   UNL d   1      58.335   0.273  28.455  0.00  0.00    -0.052 SA
ENDROOT
BRANCH   4   8
ATOM      8  C   UNL d   1      57.972  -0.469  31.658  0.00  0.00     0.101 C 
BRANCH   8   9
ATOM      9  C   UNL d   1      57.218  -0.490  31.989  0.00  0.00     0.099 A 
ATOM     10  N   UNL d   1      56.829  -1.220  32.042  0.00  0.00    -0.242 NA
ATOM     11  C   UNL d   1      56.070  -1.249  32.375  0.00  0.00     0.099 A 
ATOM     12  C   UNL d   1      55.711  -0.556  32.648  0.00  0.00     0.021 A 
ATOM     13  C   UNL d   1      56.110   0.166  32.590  0.00  0.00     0.003 A 
ATOM     14  C   UNL d   1      56.858   0.195  32.262  0.00  0.00     0.021 A 
ENDBRANCH   8   9
ENDBRANCH   4   8
BRANCH   1  15
ATOM     15  C   UNL d   1      58.423  -1.301  28.954  0.00  0.00     0.107 C 
BRANCH  15  16
ATOM     16  C   UNL d   1      59.002  -1.879  29.078  0.00  0.00     0.118 A 
ATOM     17  O   UNL d   1      59.818  -1.740  29.133  0.00  0.00    -0.304 OA
ATOM     18  C   UNL d   1      60.182  -2.471  29.256  0.00  0.00     0.123 A 
ATOM     19  C   UNL d   1      59.607  -3.046  29.276  0.00  0.00     0.029 A 
ATOM     20  C   UNL d   1      58.875  -2.682  29.166  0.00  0.00     0.028 A 
ENDBRANCH  15  16
ENDBRANCH   1  15
TORSDOF 4
ENDMDL
MODEL 4
REMARK VINA RESULT:      -1.9      1.779      3.871
REMARK  4 active torsions:
REMARK  status: ('A' for Active; 'I' for Inactive)
REMARK    1  A    between atoms: C_7  and  N_1 
REMARK    2  A    between atoms: C_12  and  N_4 
REMARK    3  A    between atoms: C_8  and  C_7 
REMARK    4  A    between atoms: C_16  and  C_12 
ROOT
ATOM      1  N   UNL d   1      57.519   0.566  32.476  0.00  0.00    -0.273 N 
ATOM      2  C   UNL d   1      58.302   0.644  32.765  0.00  0.00     0.153 A 
ATOM      3  S   UNL d   1      58.926   0.682  32.240  0.00  0.00    -0.039 SA
ATOM      4  N   UNL d   1      58.012   0.567  31.140  0.00  0.00    -0.281 N 
ATOM      5  C   UNL d   1      57.377   0.528  31.669  0.00  0.00     0.168 A 
ATOM      6  C   UNL d   1      58.795   0.645  31.429  0.00  0.00     0.120 A 
ATOM      7  S   UNL d   1      58.438   0.682  33.586  0.00  0.00    -0.052 SA
ENDROOT
BRANCH   4   8
ATOM      8  C   UNL d   1      57.884   0.530  30.330  0.00  0.00     0.101 C 
BRANCH   8   9
ATOM      9  C   UNL d   1      58.255  -0.054  29.882  0.00  0.00     0.099 A 
ATOM     10  N   UNL d   1      57.982  -0.834  29.946  0.00  0.00    -0.242 NA
ATOM     11  C   UNL d   1      58.350  -1.427  29.498  0.00  0.00     0.099 A 
ATOM     12  C   UNL d   1      58.980  -1.238  28.997  0.00  0.00     0.021 A 
ATOM     13  C   UNL d   1      59.242  -0.455  28.942  0.00  0.00     0.003 A 
ATOM     14  C   UNL d   1      58.880   0.130  29.383  0.00  0.00     0.021 A 
ENDBRANCH   8   9
ENDBRANCH   4   8
BRANCH   1  15
ATOM     15  C   UNL d   1      56.893   0.529  33.017  0.00  0.00     0.107 C 
BRANCH  15  16
ATOM     16  C   UNL d   1      56.360  -0.104  33.006  0.00  0.00     0.118 A 
ATOM     17  O   UNL d   1      56.564  -0.907  33.023  0.00  0.00    -0.304 OA
ATOM     18  C   UNL d   1      55.861  -1.338  33.004  0.00  0.00     0.123 A 
ATOM     19  C   UNL d   1      55.237  -0.816  32.975  0.00  0.00     0.029 A 
ATOM     20  C   UNL d   1      55.544  -0.051  32.976  0.00  0.00     0.028 A 
ENDBRANCH  15  16
ENDBRANCH   1  15
TORSDOF 4
ENDMDL
