MODEL 1
REMARK VINA RESULT:      69.8      0.000      0.000
REMARK  6 active torsions:
REMARK  status: ('A' for Active; 'I' for Inactive)
REMARK    1  A    between atoms: C_9  and  C_2 
REMARK    2  A    between atoms: N_12  and  C_6 
REMARK    3  A    between atoms: N_11  and  C_20 
REMARK    4  A    between atoms: C_19  and  N_12 
REMARK    5  A    between atoms: O_21  and  C_16 
REMARK    6  A    between atoms: C_20  and  C_19 
ROOT
ATOM      1  C   UNL d   1     -55.454-100.074 -44.589  0.00  0.00     0.060 A 
ATOM      2  C   UNL d   1     -55.155-100.769 -44.300  0.00  0.00     0.011 A 
ATOM      3  C   UNL d   1     -54.711-101.144 -44.917  0.00  0.00     0.037 A 
ATOM      4  C   UNL d   1     -55.206 -99.994 -45.396  0.00  0.00     0.116 A 
ATOM      5  S   UNL d   1     -54.744-100.664 -45.592  0.00  0.00    -0.067 SA
ATOM      6  C   UNL d   1     -55.917 -99.489 -44.256  0.00  0.00     0.166 A 
ATOM      7  N   UNL d   1     -55.427 -99.332 -45.846  0.00  0.00    -0.217 NA
ATOM      8  N   UNL d   1     -56.130 -98.846 -44.697  0.00  0.00    -0.205 NA
ATOM      9  C   UNL d   1     -55.883 -98.760 -45.512  0.00  0.00     0.201 A 
ENDROOT
BRANCH   6  10
ATOM     10  N   UNL d   1     -56.173 -99.542 -43.468  0.00  0.00    -0.224 NA
BRANCH  10  11
ATOM     11  C   UNL d   1     -56.785 -99.058 -43.206  0.00  0.00     0.120 C 
BRANCH  11  12
ATOM     12  C   UNL d   1     -57.395 -98.827 -43.729  0.00  0.00     0.101 C 
BRANCH  12  13
ATOM     13  N   UNL d   1     -58.183 -98.802 -43.459  0.00  0.00    -0.298 N 
ATOM     14  C   UNL d   1     -58.324 -98.790 -42.678  0.00  0.00     0.107 A 
ATOM     15  C   UNL d   1     -59.116 -98.766 -42.422  0.00  0.00     0.142 A 
ATOM     16  O   UNL d   1     -59.709 -98.755 -42.958  0.00  0.00    -0.300 OA
ATOM     17  C   UNL d   1     -59.567 -98.768 -43.733  0.00  0.00     0.142 A 
ATOM     18  C   UNL d   1     -58.800 -98.792 -44.012  0.00  0.00     0.107 A 
ENDBRANCH  12  13
ENDBRANCH  11  12
ENDBRANCH  10  11
ENDBRANCH   6  10
BRANCH   2  19
ATOM     19  C   UNL d   1     -55.281-101.022 -43.550  0.00  0.00     0.001 A 
ATOM     20  C   UNL d   1     -54.854-100.716 -42.919  0.00  0.00     0.002 A 
ATOM     21  C   UNL d   1     -54.982-100.974 -42.150  0.00  0.00     0.024 A 
ATOM     22  C   UNL d   1     -55.548-101.552 -41.988  0.00  0.00     0.094 A 
ATOM     23  C   UNL d   1     -55.981-101.860 -42.646  0.00  0.00     0.024 A 
ATOM     24  C   UNL d   1     -55.852-101.602 -43.411  0.00  0.00     0.002 A 
BRANCH  22  25
ATOM     25  O   UNL d   1     -55.703-101.812 -41.361  0.00  0.00    -0.328 OA
ATOM     26  C   UNL d   1     -55.192-102.357 -40.966  0.00  0.00     0.181 C 
ENDBRANCH  22  25
ENDBRANCH   2  19
TORSDOF 6
ENDMDL
