MODEL 1
REMARK VINA RESULT:      -6.0      0.000      0.000
REMARK  1 active torsions:
REMARK  status: ('A' for Active; 'I' for Inactive)
REMARK    1  A    between atoms: C_4  and  C_1 
ROOT
ATOM      1  C   UNL d   1     -41.574-122.512 -53.481  0.00  0.00     0.168 A 
ATOM      2  N   UNL d   1     -41.494-121.944 -52.892  0.00  0.00    -0.225 NA
ATOM      3  N   UNL d   1     -41.493-123.260 -53.129  0.00  0.00    -0.225 NA
ATOM      4  C   UNL d   1     -41.362-122.337 -52.173  0.00  0.00     0.101 A 
ATOM      5  C   UNL d   1     -41.362-123.149 -52.321  0.00  0.00     0.101 A 
ATOM      6  C   UNL d   1     -41.243-122.055 -51.402  0.00  0.00     0.021 A 
ATOM      7  C   UNL d   1     -41.241-123.680 -51.689  0.00  0.00     0.021 A 
ATOM      8  C   UNL d   1     -41.123-122.583 -50.781  0.00  0.00     0.002 A 
ATOM      9  C   UNL d   1     -41.122-123.396 -50.925  0.00  0.00     0.002 A 
ENDROOT
BRANCH   1  10
ATOM     10  C   UNL d   1     -41.712-122.370 -54.281  0.00  0.00     0.065 A 
ATOM     11  S   UNL d   1     -41.372-122.536 -54.897  0.00  0.00    -0.083 SA
ATOM     12  C   UNL d   1     -41.651-122.319 -55.524  0.00  0.00     0.035 A 
ATOM     13  C   UNL d   1     -42.260-121.942 -55.545  0.00  0.00     0.008 A 
ATOM     14  C   UNL d   1     -42.599-121.777 -54.930  0.00  0.00     0.010 A 
ENDBRANCH   1  10
TORSDOF 1
ENDMDL
MODEL 2
REMARK VINA RESULT:      -5.8      1.037      3.488
REMARK  1 active torsions:
REMARK  status: ('A' for Active; 'I' for Inactive)
REMARK    1  A    between atoms: C_4  and  C_1 
ROOT
ATOM      1  C   UNL d   1     -41.489-122.459 -52.817  0.00  0.00     0.168 A 
ATOM      2  N   UNL d   1     -41.123-122.888 -53.415  0.00  0.00    -0.225 NA
ATOM      3  N   UNL d   1     -42.031-121.938 -53.170  0.00  0.00    -0.225 NA
ATOM      4  C   UNL d   1     -41.437-122.635 -54.141  0.00  0.00     0.101 A 
ATOM      5  C   UNL d   1     -41.997-122.049 -53.988  0.00  0.00     0.101 A 
ATOM      6  C   UNL d   1     -41.280-122.867 -54.922  0.00  0.00     0.021 A 
ATOM      7  C   UNL d   1     -42.402-121.694 -54.625  0.00  0.00     0.021 A 
ATOM      8  C   UNL d   1     -41.683-122.514 -55.548  0.00  0.00     0.002 A 
ATOM      9  C   UNL d   1     -42.244-121.927 -55.399  0.00  0.00     0.002 A 
ENDROOT
BRANCH   1  10
ATOM     10  C   UNL d   1     -41.348-122.529 -52.008  0.00  0.00     0.065 A 
ATOM     11  S   UNL d   1     -41.230-122.065 -51.466  0.00  0.00    -0.083 SA
ATOM     12  C   UNL d   1     -41.123-122.319 -50.802  0.00  0.00     0.035 A 
ATOM     13  C   UNL d   1     -41.131-123.024 -50.670  0.00  0.00     0.008 A 
ATOM     14  C   UNL d   1     -41.249-123.486 -51.211  0.00  0.00     0.010 A 
ENDBRANCH   1  10
TORSDOF 1
ENDMDL
MODEL 3
REMARK VINA RESULT:      -4.7      2.129      2.968
REMARK  1 active torsions:
REMARK  status: ('A' for Active; 'I' for Inactive)
REMARK    1  A    between atoms: C_4  and  C_1 
ROOT
ATOM      1  C   UNL d   1     -41.659-122.815 -50.721  0.00  0.00     0.168 A 
ATOM      2  N   UNL d   1     -42.411-122.756 -50.394  0.00  0.00    -0.225 NA
ATOM      3  N   UNL d   1     -41.141-123.077 -50.127  0.00  0.00    -0.225 NA
ATOM      4  C   UNL d   1     -42.362-122.981 -49.596  0.00  0.00     0.101 A 
ATOM      5  C   UNL d   1     -41.578-123.179 -49.434  0.00  0.00     0.101 A 
ATOM      6  C   UNL d   1     -42.936-123.030 -48.999  0.00  0.00     0.021 A 
ATOM      7  C   UNL d   1     -41.370-123.427 -48.665  0.00  0.00     0.021 A 
ATOM      8  C   UNL d   1     -42.726-123.276 -48.242  0.00  0.00     0.002 A 
ATOM      9  C   UNL d   1     -41.942-123.475 -48.075  0.00  0.00     0.002 A 
ENDROOT
BRANCH   1  10
ATOM     10  C   UNL d   1     -41.450-122.645 -51.500  0.00  0.00     0.065 A 
ATOM     11  S   UNL d   1     -41.285-122.045 -51.868  0.00  0.00    -0.083 SA
ATOM     12  C   UNL d   1     -41.123-122.093 -52.567  0.00  0.00     0.035 A 
ATOM     13  C   UNL d   1     -41.123-122.726 -52.903  0.00  0.00     0.008 A 
ATOM     14  C   UNL d   1     -41.287-123.325 -52.536  0.00  0.00     0.010 A 
ENDBRANCH   1  10
TORSDOF 1
ENDMDL
MODEL 4
REMARK VINA RESULT:      -4.5      2.116      4.012
REMARK  1 active torsions:
REMARK  status: ('A' for Active; 'I' for Inactive)
REMARK    1  A    between atoms: C_4  and  C_1 
ROOT
ATOM      1  C   UNL d   1     -41.751-123.056 -50.690  0.00  0.00     0.168 A 
ATOM      2  N   UNL d   1     -41.637-123.703 -51.185  0.00  0.00    -0.225 NA
ATOM      3  N   UNL d   1     -41.639-122.367 -51.140  0.00  0.00    -0.225 NA
ATOM      4  C   UNL d   1     -41.455-123.418 -51.943  0.00  0.00     0.101 A 
ATOM      5  C   UNL d   1     -41.457-122.593 -51.913  0.00  0.00     0.101 A 
ATOM      6  C   UNL d   1     -41.287-123.808 -52.656  0.00  0.00     0.021 A 
ATOM      7  C   UNL d   1     -41.289-122.159 -52.605  0.00  0.00     0.021 A 
ATOM      8  C   UNL d   1     -41.123-123.375 -53.336  0.00  0.00     0.002 A 
ATOM      9  C   UNL d   1     -41.123-122.550 -53.311  0.00  0.00     0.002 A 
ENDROOT
BRANCH   1  10
ATOM     10  C   UNL d   1     -41.942-123.081 -49.889  0.00  0.00     0.065 A 
ATOM     11  S   UNL d   1     -41.571-123.173 -49.276  0.00  0.00    -0.083 SA
ATOM     12  C   UNL d   1     -41.920-123.165 -48.647  0.00  0.00     0.035 A 
ATOM     13  C   UNL d   1     -42.629-123.066 -48.621  0.00  0.00     0.008 A 
ATOM     14  C   UNL d   1     -43.000-122.974 -49.233  0.00  0.00     0.010 A 
ENDBRANCH   1  10
TORSDOF 1
ENDMDL
