MODEL 1
REMARK VINA RESULT:      15.3      0.000      0.000
REMARK  1 active torsions:
REMARK  status: ('A' for Active; 'I' for Inactive)
REMARK    1  A    between atoms: C_6  and  C_2 
ROOT
ATOM      1  C   UNL d   1     -51.723  24.609  33.323  0.00  0.00     0.018 A 
ATOM      2  C   UNL d   1     -51.651  25.435  33.327  0.00  0.00     0.002 A 
ATOM      3  C   UNL d   1     -50.899  25.784  33.322  0.00  0.00     0.000 A 
ATOM      4  C   UNL d   1     -51.057  24.141  33.314  0.00  0.00     0.002 A 
ATOM      5  C   UNL d   1     -50.210  25.302  33.313  0.00  0.00     0.000 A 
ATOM      6  C   UNL d   1     -50.292  24.482  33.308  0.00  0.00     0.000 A 
ATOM      7  C   UNL d   1     -50.832  26.602  33.327  0.00  0.00     0.000 A 
ATOM      8  C   UNL d   1     -49.473  25.649  33.308  0.00  0.00     0.000 A 
ATOM      9  C   UNL d   1     -50.080  26.952  33.322  0.00  0.00     0.000 A 
ATOM     10  C   UNL d   1     -49.413  26.484  33.312  0.00  0.00     0.000 A 
ENDROOT
BRANCH   1  11
ATOM     11  C   UNL d   1     -52.473  24.263  33.328  0.00  0.00     0.090 A 
ATOM     12  N   UNL d   1     -53.201  24.587  33.307  0.00  0.00    -0.219 NA
ATOM     13  C   UNL d   1     -53.755  23.976  33.325  0.00  0.00     0.215 A 
ATOM     14  S   UNL d   1     -53.325  23.269  33.357  0.00  0.00    -0.045 SA
ATOM     15  N   UNL d   1     -54.598  24.055  33.312  0.00  0.00    -0.120 N 
ATOM     16  C   UNL d   1     -52.549  23.453  33.359  0.00  0.00     0.058 A 
ENDBRANCH   1  11
TORSDOF 1
ENDMDL
