MODEL 1
REMARK VINA RESULT:       2.2      0.000      0.000
REMARK  7 active torsions:
REMARK  status: ('A' for Active; 'I' for Inactive)
REMARK    1  A    between atoms: C_10  and  C_3 
REMARK    2  A    between atoms: N_12  and  C_4 
REMARK    3  A    between atoms: O_23  and  C_11 
REMARK    4  A    between atoms: C_25  and  N_12 
REMARK    5  A    between atoms: O_26  and  C_13 
REMARK    6  A    between atoms: C_18  and  C_28 
REMARK    7  A    between atoms: C_28  and  C_25 
ROOT
ATOM      1  C   UNL d   1      58.700  -1.470  30.085  0.00  0.00     0.168 A 
ATOM      2  N   UNL d   1      58.152  -0.992  30.500  0.00  0.00    -0.184 N 
ATOM      3  C   UNL d   1      58.614  -2.264  30.081  0.00  0.00     0.057 A 
ATOM      4  C   UNL d   1      58.250  -0.203  30.495  0.00  0.00     0.218 A 
ATOM      5  N   UNL d   1      57.458  -2.145  30.888  0.00  0.00    -0.160 NA
ATOM      6  N   UNL d   1      59.310  -1.129  29.691  0.00  0.00    -0.227 NA
ATOM      7  C   UNL d   1      58.865   0.150  30.099  0.00  0.00     0.071 A 
ATOM      8  C   UNL d   1      57.989  -2.609  30.485  0.00  0.00     0.124 A 
ATOM      9  C   UNL d   1      59.404  -0.321  29.690  0.00  0.00     0.087 A 
ATOM     10  C   UNL d   1      60.048   0.040  29.274  0.00  0.00     0.021 C 
ENDROOT
BRANCH   4  11
ATOM     11  N   UNL d   1      57.699   0.283  30.913  0.00  0.00    -0.380 NA
BRANCH  11  12
ATOM     12  C   UNL d   1      57.306   0.682  31.544  0.00  0.00     0.163 C 
BRANCH  12  13
ATOM     13  C   UNL d   1      56.568   0.384  31.812  0.00  0.00     0.035 C 
BRANCH  13  14
ATOM     14  C   UNL d   1      56.384   0.436  32.634  0.00  0.00     0.005 A 
ATOM     15  C   UNL d   1      55.564   0.489  32.872  0.00  0.00     0.026 A 
ATOM     16  C   UNL d   1      55.370   0.542  33.702  0.00  0.00     0.116 A 
ATOM     17  C   UNL d   1      55.997   0.541  34.283  0.00  0.00     0.116 A 
ATOM     18  C   UNL d   1      56.796   0.489  34.037  0.00  0.00     0.026 A 
ATOM     19  C   UNL d   1      56.987   0.436  33.204  0.00  0.00     0.002 A 
BRANCH  16  20
ATOM     20  O   UNL d   1      54.572   0.594  33.943  0.00  0.00    -0.326 OA
ATOM     21  C   UNL d   1      53.957   0.622  33.370  0.00  0.00     0.181 C 
ENDBRANCH  16  20
BRANCH  17  22
ATOM     22  O   UNL d   1      55.805   0.593  35.100  0.00  0.00    -0.326 OA
ATOM     23  C   UNL d   1      56.416   0.682  35.680  0.00  0.00     0.181 C 
ENDBRANCH  17  22
ENDBRANCH  13  14
ENDBRANCH  12  13
ENDBRANCH  11  12
ENDBRANCH   4  11
BRANCH   3  24
ATOM     24  C   UNL d   1      59.145  -2.728  29.678  0.00  0.00     0.005 A 
ATOM     25  C   UNL d   1      58.924  -3.088  28.995  0.00  0.00     0.001 A 
ATOM     26  C   UNL d   1      59.455  -3.551  28.592  0.00  0.00     0.011 A 
ATOM     27  C   UNL d   1      60.199  -3.649  28.879  0.00  0.00     0.058 A 
ATOM     28  C   UNL d   1      60.411  -3.282  29.568  0.00  0.00     0.011 A 
ATOM     29 CL   UNL d   1      60.755  -4.135  28.457  0.00  0.00    -0.082 Cl
ATOM     30  C   UNL d   1      59.888  -2.826  29.965  0.00  0.00     0.001 A 
ENDBRANCH   3  24
TORSDOF 7
ENDMDL
MODEL 2
REMARK VINA RESULT:       5.2      7.993      9.002
REMARK  7 active torsions:
REMARK  status: ('A' for Active; 'I' for Inactive)
REMARK    1  A    between atoms: C_10  and  C_3 
REMARK    2  A    between atoms: N_12  and  C_4 
REMARK    3  A    between atoms: O_23  and  C_11 
REMARK    4  A    between atoms: C_25  and  N_12 
REMARK    5  A    between atoms: O_26  and  C_13 
REMARK    6  A    between atoms: C_18  and  C_28 
REMARK    7  A    between atoms: C_28  and  C_25 
ROOT
ATOM      1  C   UNL d   1      58.712  -9.762  31.720  0.00  0.00     0.168 A 
ATOM      2  N   UNL d   1      59.357  -9.748  32.255  0.00  0.00    -0.184 N 
ATOM      3  C   UNL d   1      58.847  -9.755  30.932  0.00  0.00     0.057 A 
ATOM      4  C   UNL d   1      59.208  -9.755  33.035  0.00  0.00     0.218 A 
ATOM      5  N   UNL d   1      60.241  -9.722  31.168  0.00  0.00    -0.160 NA
ATOM      6  N   UNL d   1      57.961  -9.781  32.001  0.00  0.00    -0.227 NA
ATOM      7  C   UNL d   1      58.451  -9.774  33.328  0.00  0.00     0.071 A 
ATOM      8  C   UNL d   1      59.616  -9.736  30.649  0.00  0.00     0.124 A 
ATOM      9  C   UNL d   1      57.816  -9.788  32.802  0.00  0.00     0.087 A 
ATOM     10  C   UNL d   1      57.023  -9.808  33.099  0.00  0.00     0.021 C 
ENDROOT
BRANCH   4  11
ATOM     11  N   UNL d   1      59.857  -9.741  33.578  0.00  0.00    -0.380 NA
BRANCH  11  12
ATOM     12  C   UNL d   1      60.303  -9.816  34.290  0.00  0.00     0.163 C 
BRANCH  12  13
ATOM     13  C   UNL d   1      59.953  -9.569  35.013  0.00  0.00     0.035 C 
BRANCH  13  14
ATOM     14  C   UNL d   1      60.173  -8.822  35.336  0.00  0.00     0.005 A 
ATOM     15  C   UNL d   1      59.622  -8.170  35.285  0.00  0.00     0.026 A 
ATOM     16  C   UNL d   1      59.839  -7.410  35.610  0.00  0.00     0.116 A 
ATOM     17  C   UNL d   1      60.602  -7.312  35.981  0.00  0.00     0.116 A 
ATOM     18  C   UNL d   1      61.133  -7.958  36.025  0.00  0.00     0.026 A 
ATOM     19  C   UNL d   1      60.913  -8.718  35.699  0.00  0.00     0.002 A 
BRANCH  16  20
ATOM     20  O   UNL d   1      59.307  -6.768  35.564  0.00  0.00    -0.326 OA
ATOM     21  C   UNL d   1      58.491  -6.881  35.737  0.00  0.00     0.181 C 
ENDBRANCH  16  20
BRANCH  17  22
ATOM     22  O   UNL d   1      60.814  -6.564  36.301  0.00  0.00    -0.326 OA
ATOM     23  C   UNL d   1      61.069  -5.936  35.793  0.00  0.00     0.181 C 
ENDBRANCH  17  22
ENDBRANCH  13  14
ENDBRANCH  12  13
ENDBRANCH  11  12
ENDBRANCH   4  11
BRANCH   3  24
ATOM     24  C   UNL d   1      58.222  -9.769  30.414  0.00  0.00     0.005 A 
ATOM     25  C   UNL d   1      58.357  -9.747  29.623  0.00  0.00     0.001 A 
ATOM     26  C   UNL d   1      57.732  -9.760  29.105  0.00  0.00     0.011 A 
ATOM     27  C   UNL d   1      56.981  -9.795  29.386  0.00  0.00     0.058 A 
ATOM     28  C   UNL d   1      56.855  -9.817  30.185  0.00  0.00     0.011 A 
ATOM     29 CL   UNL d   1      56.327  -9.809  28.843  0.00  0.00    -0.082 Cl
ATOM     30  C   UNL d   1      57.470  -9.804  30.695  0.00  0.00     0.001 A 
ENDBRANCH   3  24
TORSDOF 7
ENDMDL
