MODEL 1
REMARK VINA RESULT:      23.6      0.000      0.000
REMARK  4 active torsions:
REMARK  status: ('A' for Active; 'I' for Inactive)
REMARK    1  A    between atoms: C_3  and  C_1 
REMARK    2  A    between atoms: C_8  and  C_3 
REMARK    3  A    between atoms: C_9  and  C_3 
REMARK    4  A    between atoms: N_5  and  C_9 
ROOT
ATOM      1  C   UNL d   1      13.986  12.779  -2.536  0.00  0.00     0.023 A 
ATOM      2  C   UNL d   1      14.013  13.637  -2.521  0.00  0.00     0.082 A 
ATOM      3  N   UNL d   1      13.675  13.910  -3.207  0.00  0.00    -0.246 NA
ATOM      4  C   UNL d   1      13.630  12.564  -3.235  0.00  0.00     0.019 A 
ATOM      5  C   UNL d   1      13.435  13.255  -3.656  0.00  0.00     0.081 A 
ATOM      6  C   UNL d   1      14.159  14.363  -2.265  0.00  0.00     0.021 C 
ATOM      7  C   UNL d   1      13.454  11.822  -3.551  0.00  0.00     0.002 A 
ATOM      8  C   UNL d   1      13.062  13.193  -4.395  0.00  0.00     0.019 A 
ATOM      9  C   UNL d   1      13.085  11.780  -4.285  0.00  0.00     0.000 A 
ATOM     10  C   UNL d   1      12.888  12.454  -4.709  0.00  0.00     0.002 A 
ENDROOT
BRANCH   1  11
ATOM     11  C   UNL d   1      14.274  12.286  -1.940  0.00  0.00     0.048 C 
BRANCH  11  12
ATOM     12  C   UNL d   1      13.833  12.092  -1.288  0.00  0.00     0.102 A 
ATOM     13  O   UNL d   1      13.001  11.988  -1.277  0.00  0.00    -0.305 OA
ATOM     14  C   UNL d   1      12.772  11.796  -0.512  0.00  0.00     0.123 A 
ATOM     15  C   UNL d   1      13.482  11.780  -0.032  0.00  0.00     0.029 A 
ATOM     16  C   UNL d   1      14.112  11.962  -0.522  0.00  0.00     0.027 A 
ENDBRANCH  11  12
BRANCH  11  17
ATOM     17  C   UNL d   1      15.049  11.982  -2.021  0.00  0.00     0.150 C 
BRANCH  17  18
ATOM     18  N   UNL d   1      15.644  12.257  -1.513  0.00  0.00    -0.112 N 
ATOM     19  O   UNL d   1      15.573  12.969  -1.134  0.00  0.00    -0.532 OA
ATOM     20  O   UNL d   1      16.339  11.781  -1.393  0.00  0.00    -0.532 OA
ENDBRANCH  17  18
ENDBRANCH  11  17
ENDBRANCH   1  11
TORSDOF 4
ENDMDL
MODEL 2
REMARK VINA RESULT:      26.5      0.988      1.685
REMARK  4 active torsions:
REMARK  status: ('A' for Active; 'I' for Inactive)
REMARK    1  A    between atoms: C_3  and  C_1 
REMARK    2  A    between atoms: C_8  and  C_3 
REMARK    3  A    between atoms: C_9  and  C_3 
REMARK    4  A    between atoms: N_5  and  C_9 
ROOT
ATOM      1  C   UNL d   1      13.918  12.924  -2.463  0.00  0.00     0.023 A 
ATOM      2  C   UNL d   1      14.025  13.770  -2.565  0.00  0.00     0.082 A 
ATOM      3  N   UNL d   1      13.714  13.975  -3.287  0.00  0.00    -0.246 NA
ATOM      4  C   UNL d   1      13.544  12.649  -3.130  0.00  0.00     0.019 A 
ATOM      5  C   UNL d   1      13.415  13.290  -3.645  0.00  0.00     0.081 A 
ATOM      6  C   UNL d   1      14.237  14.508  -2.409  0.00  0.00     0.021 C 
ATOM      7  C   UNL d   1      13.301  11.889  -3.344  0.00  0.00     0.002 A 
ATOM      8  C   UNL d   1      13.039  13.160  -4.374  0.00  0.00     0.019 A 
ATOM      9  C   UNL d   1      12.930  11.781  -4.070  0.00  0.00     0.000 A 
ATOM     10  C   UNL d   1      12.797  12.404  -4.585  0.00  0.00     0.002 A 
ENDROOT
BRANCH   1  11
ATOM     11  C   UNL d   1      14.158  12.494  -1.800  0.00  0.00     0.048 C 
BRANCH  11  12
ATOM     12  C   UNL d   1      14.875  12.615  -1.442  0.00  0.00     0.102 A 
ATOM     13  O   UNL d   1      15.566  12.158  -1.570  0.00  0.00    -0.305 OA
ATOM     14  C   UNL d   1      16.170  12.461  -1.103  0.00  0.00     0.123 A 
ATOM     15  C   UNL d   1      15.846  13.127  -0.671  0.00  0.00     0.029 A 
ATOM     16  C   UNL d   1      15.061  13.203  -0.892  0.00  0.00     0.027 A 
ENDBRANCH  11  12
BRANCH  11  17
ATOM     17  C   UNL d   1      13.636  11.916  -1.496  0.00  0.00     0.150 C 
BRANCH  17  18
ATOM     18  N   UNL d   1      13.551  11.843  -0.674  0.00  0.00    -0.112 N 
ATOM     19  O   UNL d   1      14.197  11.780  -0.191  0.00  0.00    -0.532 OA
ATOM     20  O   UNL d   1      12.770  11.835  -0.337  0.00  0.00    -0.532 OA
ENDBRANCH  17  18
ENDBRANCH  11  17
ENDBRANCH   1  11
TORSDOF 4
ENDMDL
