MODEL 1
REMARK VINA RESULT:     125.4      0.000      0.000
REMARK  9 active torsions:
REMARK  status: ('A' for Active; 'I' for Inactive)
REMARK    1  A    between atoms: C_19  and  N_1 
REMARK    2  A    between atoms: S_10  and  C_2 
REMARK    3  A    between atoms: N_8  and  C_9 
REMARK    4  A    between atoms: C_20  and  S_10 
REMARK    5  A    between atoms: C_11  and  C_20 
REMARK       I    between atoms: N_13  and  C_11 
REMARK    6  A    between atoms: C_15  and  N_13 
REMARK    7  A    between atoms: C_32  and  C_19 
REMARK    8  A    between atoms: O_25  and  C_22 
REMARK    9  A    between atoms: C_33  and  C_32 
ROOT
ATOM      1  N   UNL d   1     -54.960-100.547 -43.493  0.00  0.00    -0.253 N 
ATOM      2  C   UNL d   1     -54.899-101.227 -43.026  0.00  0.00     0.182 A 
ATOM      3  C   UNL d   1     -55.103-100.606 -44.293  0.00  0.00     0.268 A 
ATOM      4  C   UNL d   1     -55.187-101.356 -44.634  0.00  0.00     0.076 A 
ATOM      5  N   UNL d   1     -54.980-101.967 -43.359  0.00  0.00    -0.222 NA
ATOM      6  C   UNL d   1     -55.126-102.033 -44.170  0.00  0.00     0.088 A 
ATOM      7  C   UNL d   1     -55.329-101.413 -45.431  0.00  0.00     0.024 A 
ATOM      8  C   UNL d   1     -55.415-102.163 -45.786  0.00  0.00     0.065 A 
ATOM      9  O   UNL d   1     -55.165 -99.925 -44.761  0.00  0.00    -0.267 OA
ATOM     10  C   UNL d   1     -55.208-102.775 -44.506  0.00  0.00     0.021 A 
ATOM     11  C   UNL d   1     -55.352-102.836 -45.310  0.00  0.00     0.019 A 
ENDROOT
BRANCH   2  12
ATOM     12  S   UNL d   1     -54.751-101.158 -42.202  0.00  0.00    -0.044 SA
BRANCH  12  13
ATOM     13  C   UNL d   1     -55.283-101.477 -41.661  0.00  0.00     0.101 C 
BRANCH  13  14
ATOM     14  C   UNL d   1     -55.117-101.451 -40.859  0.00  0.00     0.286 C 
ATOM     15  N   UNL d   1     -55.217-102.118 -40.401  0.00  0.00    -0.207 NA
ATOM     16  O   UNL d   1     -54.848-100.753 -40.514  0.00  0.00    -0.265 OA
BRANCH  15  17
ATOM     17  C   UNL d   1     -55.051-102.100 -39.587  0.00  0.00     0.087 A 
ATOM     18  C   UNL d   1     -55.028-101.370 -39.206  0.00  0.00     0.043 A 
ATOM     19  C   UNL d   1     -54.862-101.352 -38.393  0.00  0.00     0.096 A 
ATOM     20  C   UNL d   1     -54.723-102.047 -37.980  0.00  0.00     0.024 A 
ATOM     21  C   UNL d   1     -54.749-102.773 -38.373  0.00  0.00     0.004 A 
ATOM     22  C   UNL d   1     -54.912-102.794 -39.174  0.00  0.00     0.019 A 
BRANCH  19  23
ATOM     23  O   UNL d   1     -54.837-100.614 -37.998  0.00  0.00    -0.328 OA
ATOM     24  C   UNL d   1     -54.794 -99.921 -38.424  0.00  0.00     0.181 C 
ENDBRANCH  19  23
ENDBRANCH  15  17
ENDBRANCH  13  14
ENDBRANCH  12  13
ENDBRANCH   2  12
BRANCH   1  25
ATOM     25  C   UNL d   1     -54.874 -99.796 -43.137  0.00  0.00     0.085 C 
BRANCH  25  26
ATOM     26  C   UNL d   1     -55.221 -99.143 -43.488  0.00  0.00     0.019 C 
BRANCH  26  27
ATOM     27  C   UNL d   1     -55.898 -98.805 -43.156  0.00  0.00     0.002 C 
ATOM     28  C   UNL d   1     -56.393 -99.265 -42.677  0.00  0.00     0.000 C 
ENDBRANCH  26  27
ENDBRANCH  25  26
ENDBRANCH   1  25
BRANCH   8  29
ATOM     29  N   UNL d   1     -55.560-102.233 -46.595  0.00  0.00    -0.300 N 
ATOM     30  C   UNL d   1     -56.149-102.753 -46.863  0.00  0.00     0.107 A 
ATOM     31  C   UNL d   1     -56.286-102.814 -47.676  0.00  0.00     0.142 A 
ATOM     32  O   UNL d   1     -55.842-102.363 -48.216  0.00  0.00    -0.300 OA
ATOM     33  C   UNL d   1     -55.255-101.847 -47.934  0.00  0.00     0.142 A 
ATOM     34  C   UNL d   1     -55.112-101.779 -47.123  0.00  0.00     0.107 A 
ENDBRANCH   8  29
TORSDOF 9
ENDMDL
