MODEL 1
REMARK VINA RESULT:      57.4      0.000      0.000
REMARK  8 active torsions:
REMARK  status: ('A' for Active; 'I' for Inactive)
REMARK    1  A    between atoms: C_2  and  P_1 
REMARK    2  A    between atoms: O_4  and  P_1 
REMARK    3  A    between atoms: C_5  and  P_1 
REMARK    4  A    between atoms: C_3  and  C_2 
REMARK    5  A    between atoms: C_20  and  O_4 
REMARK    6  A    between atoms: O_19  and  C_8 
REMARK    7  A    between atoms: N_11  and  C_9 
REMARK    8  A    between atoms: O_21  and  C_10 
ROOT
ATOM      1  P   UNL d   1      13.644  13.165  -3.563  0.00  0.00     0.307 P 
ATOM      2  O   UNL d   1      13.864  12.430  -3.861  0.00  0.00    -0.277 OA
ENDROOT
BRANCH   1   3
ATOM      3  C   UNL d   1      13.424  13.899  -3.266  0.00  0.00     0.253 C 
ATOM      4  O   UNL d   1      12.788  13.969  -2.734  0.00  0.00    -0.281 OA
BRANCH   3   5
ATOM      5  C   UNL d   1      13.835  14.585  -3.492  0.00  0.00     0.046 A 
ATOM      6  C   UNL d   1      14.228  15.040  -2.929  0.00  0.00     0.030 A 
ATOM      7  C   UNL d   1      14.631  15.714  -3.157  0.00  0.00     0.116 A 
ATOM      8  C   UNL d   1      14.654  15.954  -3.953  0.00  0.00     0.116 A 
ATOM      9  C   UNL d   1      14.255  15.492  -4.523  0.00  0.00     0.026 A 
ATOM     10  C   UNL d   1      13.847  14.808  -4.290  0.00  0.00     0.005 A 
BRANCH   7  11
ATOM     11  O   UNL d   1      15.022  16.166  -2.593  0.00  0.00    -0.326 OA
ATOM     12  C   UNL d   1      14.603  16.485  -1.959  0.00  0.00     0.181 C 
ENDBRANCH   7  11
BRANCH   8  13
ATOM     13  O   UNL d   1      15.058  16.630  -4.184  0.00  0.00    -0.326 OA
ATOM     14  C   UNL d   1      14.775  17.065  -4.824  0.00  0.00     0.181 C 
ENDBRANCH   8  13
ENDBRANCH   3   5
ENDBRANCH   1   3
BRANCH   1  15
ATOM     15  O   UNL d   1      13.410  13.399  -4.316  0.00  0.00    -0.281 OA
BRANCH  15  16
ATOM     16  C   UNL d   1      13.425  12.866  -4.939  0.00  0.00     0.101 A 
ATOM     17  C   UNL d   1      14.095  12.817  -5.426  0.00  0.00     0.025 A 
ATOM     18  C   UNL d   1      14.111  12.286  -6.047  0.00  0.00     0.002 A 
ATOM     19  C   UNL d   1      13.464  11.799  -6.191  0.00  0.00     0.000 A 
ATOM     20  C   UNL d   1      12.797  11.843  -5.712  0.00  0.00     0.002 A 
ATOM     21  C   UNL d   1      12.779  12.382  -5.080  0.00  0.00     0.025 A 
ENDBRANCH  15  16
ENDBRANCH   1  15
BRANCH   1  22
ATOM     22  C   UNL d   1      13.880  12.928  -2.804  0.00  0.00     0.061 A 
ATOM     23  C   UNL d   1      13.393  13.084  -2.156  0.00  0.00     0.007 A 
ATOM     24  C   UNL d   1      13.630  12.846  -1.393  0.00  0.00     0.018 A 
ATOM     25  C   UNL d   1      14.344  12.458  -1.284  0.00  0.00     0.064 A 
ATOM     26  C   UNL d   1      14.829  12.304  -1.938  0.00  0.00     0.018 A 
ATOM     27  C   UNL d   1      14.592  12.543  -2.703  0.00  0.00     0.007 A 
BRANCH  25  28
ATOM     28  N   UNL d   1      14.578  12.222  -0.527  0.00  0.00    -0.301 N 
ATOM     29  C   UNL d   1      14.063  11.790  -0.053  0.00  0.00     0.100 C 
ATOM     30  C   UNL d   1      15.329  12.422  -0.250  0.00  0.00     0.100 C 
ENDBRANCH  25  28
ENDBRANCH   1  22
TORSDOF 8
ENDMDL
