MODEL 1
REMARK VINA RESULT:      -8.3      0.000      0.000
REMARK  3 active torsions:
REMARK  status: ('A' for Active; 'I' for Inactive)
REMARK    1  A    between atoms: N_6  and  S_1 
REMARK    2  A    between atoms: C_11  and  S_1 
REMARK    3  A    between atoms: C_2  and  N_6 
ROOT
ATOM      1  C   UNL d   1     -47.894  12.647  23.308  0.00  0.00     0.106 A 
ATOM      2  C   UNL d   1     -46.539  12.301  23.314  0.00  0.00     0.110 A 
ATOM      3  C   UNL d   1     -47.324  12.092  23.429  0.00  0.00     0.090 A 
ATOM      4  C   UNL d   1     -46.324  13.040  23.084  0.00  0.00     0.217 A 
ATOM      5  C   UNL d   1     -47.679  13.409  23.071  0.00  0.00     0.035 A 
ATOM      6  C   UNL d   1     -46.893  13.598  22.961  0.00  0.00     0.099 A 
ATOM      7  O   UNL d   1     -45.518  13.242  22.969  0.00  0.00    -0.285 OA
ATOM      8 CL   UNL d   1     -45.898  11.707  23.442  0.00  0.00    -0.078 Cl
ATOM      9 CL   UNL d   1     -47.536  11.316  23.670  0.00  0.00    -0.080 Cl
ATOM     10 CL   UNL d   1     -46.687  14.395  22.715  0.00  0.00    -0.079 Cl
ENDROOT
BRANCH   1  11
ATOM     11  N   UNL d   1     -48.680  12.439  23.423  0.00  0.00    -0.158 NA
BRANCH  11  12
ATOM     12  S   UNL d   1     -49.273  12.795  22.955  0.00  0.00     0.285 S 
ATOM     13  O   UNL d   1     -49.109  12.258  22.344  0.00  0.00    -0.198 OA
ATOM     14  O   UNL d   1     -49.440  13.349  23.588  0.00  0.00    -0.198 OA
BRANCH  12  15
ATOM     15  C   UNL d   1     -49.886  13.176  22.490  0.00  0.00     0.105 A 
ATOM     16  C   UNL d   1     -50.306  13.841  22.775  0.00  0.00     0.013 A 
ATOM     17  C   UNL d   1     -50.898  14.201  22.314  0.00  0.00     0.001 A 
ATOM     18  C   UNL d   1     -51.064  13.889  21.569  0.00  0.00     0.000 A 
ATOM     19  C   UNL d   1     -50.671  13.250  21.279  0.00  0.00     0.001 A 
ATOM     20  C   UNL d   1     -50.052  12.864  21.745  0.00  0.00     0.013 A 
ENDBRANCH  12  15
ENDBRANCH  11  12
ENDBRANCH   1  11
TORSDOF 3
ENDMDL
MODEL 2
REMARK VINA RESULT:      -8.2      0.920      1.713
REMARK  3 active torsions:
REMARK  status: ('A' for Active; 'I' for Inactive)
REMARK    1  A    between atoms: N_6  and  S_1 
REMARK    2  A    between atoms: C_11  and  S_1 
REMARK    3  A    between atoms: C_2  and  N_6 
ROOT
ATOM      1  C   UNL d   1     -47.441  13.531  23.031  0.00  0.00     0.106 A 
ATOM      2  C   UNL d   1     -46.107  13.116  22.957  0.00  0.00     0.110 A 
ATOM      3  C   UNL d   1     -46.674  13.701  22.855  0.00  0.00     0.090 A 
ATOM      4  C   UNL d   1     -46.295  12.383  23.225  0.00  0.00     0.217 A 
ATOM      5  C   UNL d   1     -47.640  12.778  23.307  0.00  0.00     0.035 A 
ATOM      6  C   UNL d   1     -47.062  12.210  23.402  0.00  0.00     0.099 A 
ATOM      7  O   UNL d   1     -45.706  11.793  23.325  0.00  0.00    -0.285 OA
ATOM      8 CL   UNL d   1     -45.260  13.282  22.770  0.00  0.00    -0.078 Cl
ATOM      9 CL   UNL d   1     -46.466  14.464  22.574  0.00  0.00    -0.080 Cl
ATOM     10 CL   UNL d   1     -47.286  11.432  23.691  0.00  0.00    -0.079 Cl
ENDROOT
BRANCH   1  11
ATOM     11  N   UNL d   1     -48.009  14.116  22.929  0.00  0.00    -0.158 NA
BRANCH  11  12
ATOM     12  S   UNL d   1     -48.773  13.905  22.665  0.00  0.00     0.285 S 
ATOM     13  O   UNL d   1     -49.036  13.884  23.451  0.00  0.00    -0.198 OA
ATOM     14  O   UNL d   1     -48.497  13.927  21.853  0.00  0.00    -0.198 OA
BRANCH  12  15
ATOM     15  C   UNL d   1     -49.550  13.689  22.372  0.00  0.00     0.105 A 
ATOM     16  C   UNL d   1     -49.661  13.383  21.601  0.00  0.00     0.013 A 
ATOM     17  C   UNL d   1     -50.421  13.178  21.330  0.00  0.00     0.001 A 
ATOM     18  C   UNL d   1     -51.064  13.281  21.835  0.00  0.00     0.000 A 
ATOM     19  C   UNL d   1     -50.976  13.574  22.580  0.00  0.00     0.001 A 
ATOM     20  C   UNL d   1     -50.193  13.792  22.878  0.00  0.00     0.013 A 
ENDBRANCH  12  15
ENDBRANCH  11  12
ENDBRANCH   1  11
TORSDOF 3
ENDMDL
MODEL 3
REMARK VINA RESULT:      -7.8      1.939      3.991
REMARK  3 active torsions:
REMARK  status: ('A' for Active; 'I' for Inactive)
REMARK    1  A    between atoms: N_6  and  S_1 
REMARK    2  A    between atoms: C_11  and  S_1 
REMARK    3  A    between atoms: C_2  and  N_6 
ROOT
ATOM      1  C   UNL d   1     -48.915  14.338  22.556  0.00  0.00     0.106 A 
ATOM      2  C   UNL d   1     -50.291  14.536  22.401  0.00  0.00     0.110 A 
ATOM      3  C   UNL d   1     -49.584  14.733  22.767  0.00  0.00     0.090 A 
ATOM      4  C   UNL d   1     -50.335  13.962  21.841  0.00  0.00     0.217 A 
ATOM      5  C   UNL d   1     -48.954  13.747  21.981  0.00  0.00     0.035 A 
ATOM      6  C   UNL d   1     -49.667  13.564  21.628  0.00  0.00     0.099 A 
ATOM      7  O   UNL d   1     -51.064  13.768  21.473  0.00  0.00    -0.285 OA
ATOM      8 CL   UNL d   1     -51.036  14.957  22.618  0.00  0.00    -0.078 Cl
ATOM      9 CL   UNL d   1     -49.551  15.335  23.351  0.00  0.00    -0.080 Cl
ATOM     10 CL   UNL d   1     -49.690  12.947  21.031  0.00  0.00    -0.079 Cl
ENDROOT
BRANCH   1  11
ATOM     11  N   UNL d   1     -48.206  14.536  22.922  0.00  0.00    -0.158 NA
BRANCH  11  12
ATOM     12  S   UNL d   1     -47.581  13.981  22.934  0.00  0.00     0.285 S 
ATOM     13  O   UNL d   1     -47.946  13.588  23.566  0.00  0.00    -0.198 OA
ATOM     14  O   UNL d   1     -47.207  14.391  22.280  0.00  0.00    -0.198 OA
BRANCH  12  15
ATOM     15  C   UNL d   1     -46.930  13.423  22.928  0.00  0.00     0.105 A 
ATOM     16  C   UNL d   1     -46.975  12.690  23.328  0.00  0.00     0.013 A 
ATOM     17  C   UNL d   1     -46.335  12.157  23.315  0.00  0.00     0.001 A 
ATOM     18  C   UNL d   1     -45.654  12.366  22.899  0.00  0.00     0.000 A 
ATOM     19  C   UNL d   1     -45.594  13.067  22.509  0.00  0.00     0.001 A 
ATOM     20  C   UNL d   1     -46.249  13.632  22.512  0.00  0.00     0.013 A 
ENDBRANCH  12  15
ENDBRANCH  11  12
ENDBRANCH   1  11
TORSDOF 3
ENDMDL
MODEL 4
REMARK VINA RESULT:      -6.3      8.845     10.217
REMARK  3 active torsions:
REMARK  status: ('A' for Active; 'I' for Inactive)
REMARK    1  A    between atoms: N_6  and  S_1 
REMARK    2  A    between atoms: C_11  and  S_1 
REMARK    3  A    between atoms: C_2  and  N_6 
ROOT
ATOM      1  C   UNL d   1     -39.816  14.302  17.572  0.00  0.00     0.106 A 
ATOM      2  C   UNL d   1     -38.914  14.171  16.510  0.00  0.00     0.110 A 
ATOM      3  C   UNL d   1     -39.534  14.572  16.868  0.00  0.00     0.090 A 
ATOM      4  C   UNL d   1     -38.582  13.518  16.841  0.00  0.00     0.217 A 
ATOM      5  C   UNL d   1     -39.478  13.631  17.917  0.00  0.00     0.035 A 
ATOM      6  C   UNL d   1     -38.862  13.245  17.545  0.00  0.00     0.099 A 
ATOM      7  O   UNL d   1     -37.948  13.116  16.465  0.00  0.00    -0.285 OA
ATOM      8 CL   UNL d   1     -38.590  14.451  15.738  0.00  0.00    -0.078 Cl
ATOM      9 CL   UNL d   1     -39.872  15.253  16.512  0.00  0.00    -0.080 Cl
ATOM     10 CL   UNL d   1     -38.522  12.549  17.918  0.00  0.00    -0.079 Cl
ENDROOT
BRANCH   1  11
ATOM     11  N   UNL d   1     -40.436  14.704  17.930  0.00  0.00    -0.158 NA
BRANCH  11  12
ATOM     12  S   UNL d   1     -40.457  14.768  18.763  0.00  0.00     0.285 S 
ATOM     13  O   UNL d   1     -40.941  14.095  18.799  0.00  0.00    -0.198 OA
ATOM     14  O   UNL d   1     -39.957  15.463  18.722  0.00  0.00    -0.198 OA
BRANCH  12  15
ATOM     15  C   UNL d   1     -40.466  14.852  19.617  0.00  0.00     0.105 A 
ATOM     16  C   UNL d   1     -40.838  14.289  20.111  0.00  0.00     0.013 A 
ATOM     17  C   UNL d   1     -40.839  14.382  20.938  0.00  0.00     0.001 A 
ATOM     18  C   UNL d   1     -40.465  15.042  21.263  0.00  0.00     0.000 A 
ATOM     19  C   UNL d   1     -40.102  15.593  20.803  0.00  0.00     0.001 A 
ATOM     20  C   UNL d   1     -40.092  15.511  19.942  0.00  0.00     0.013 A 
ENDBRANCH  12  15
ENDBRANCH  11  12
ENDBRANCH   1  11
TORSDOF 3
ENDMDL
MODEL 5
REMARK VINA RESULT:      -5.9      8.945     10.058
REMARK  3 active torsions:
REMARK  status: ('A' for Active; 'I' for Inactive)
REMARK    1  A    between atoms: N_6  and  S_1 
REMARK    2  A    between atoms: C_11  and  S_1 
REMARK    3  A    between atoms: C_2  and  N_6 
ROOT
ATOM      1  C   UNL d   1     -40.226  14.724  19.583  0.00  0.00     0.106 A 
ATOM      2  C   UNL d   1     -40.293  15.331  20.842  0.00  0.00     0.110 A 
ATOM      3  C   UNL d   1     -40.564  15.269  20.070  0.00  0.00     0.090 A 
ATOM      4  C   UNL d   1     -39.702  14.866  21.124  0.00  0.00     0.217 A 
ATOM      5  C   UNL d   1     -39.618  14.243  19.868  0.00  0.00     0.035 A 
ATOM      6  C   UNL d   1     -39.362  14.319  20.640  0.00  0.00     0.099 A 
ATOM      7  O   UNL d   1     -39.433  14.938  21.916  0.00  0.00    -0.285 OA
ATOM      8 CL   UNL d   1     -40.650  15.922  21.392  0.00  0.00    -0.078 Cl
ATOM      9 CL   UNL d   1     -41.182  15.761  19.786  0.00  0.00    -0.080 Cl
ATOM     10 CL   UNL d   1     -38.728  13.811  20.920  0.00  0.00    -0.079 Cl
ENDROOT
BRANCH   1  11
ATOM     11  N   UNL d   1     -40.497  14.662  18.810  0.00  0.00    -0.158 NA
BRANCH  11  12
ATOM     12  S   UNL d   1     -39.964  14.446  18.204  0.00  0.00     0.285 S 
ATOM     13  O   UNL d   1     -39.643  15.211  18.218  0.00  0.00    -0.198 OA
ATOM     14  O   UNL d   1     -40.298  13.656  18.192  0.00  0.00    -0.198 OA
BRANCH  12  15
ATOM     15  C   UNL d   1     -39.425  14.204  17.582  0.00  0.00     0.105 A 
ATOM     16  C   UNL d   1     -39.124  13.424  17.538  0.00  0.00     0.013 A 
ATOM     17  C   UNL d   1     -38.602  13.203  16.929  0.00  0.00     0.001 A 
ATOM     18  C   UNL d   1     -38.386  13.767  16.367  0.00  0.00     0.000 A 
ATOM     19  C   UNL d   1     -38.667  14.520  16.393  0.00  0.00     0.001 A 
ATOM     20  C   UNL d   1     -39.210  14.767  17.019  0.00  0.00     0.013 A 
ENDBRANCH  12  15
ENDBRANCH  11  12
ENDBRANCH   1  11
TORSDOF 3
ENDMDL
