MODEL 1
REMARK VINA RESULT:      -5.0      0.000      0.000
REMARK  4 active torsions:
REMARK  status: ('A' for Active; 'I' for Inactive)
REMARK    1  A    between atoms: C_2  and  S_1 
REMARK    2  A    between atoms: N_3  and  S_1 
REMARK    3  A    between atoms: C_6  and  N_3 
REMARK    4  A    between atoms: C_4  and  C_6 
REMARK       I    between atoms: N_5  and  C_4 
ROOT
ATOM      1  S   UNL d   1      58.625  -0.824  29.577  0.00  0.00     0.287 S 
ATOM      2  O   UNL d   1      59.087  -0.850  30.275  0.00  0.00    -0.198 OA
ATOM      3  O   UNL d   1      58.169  -0.806  28.868  0.00  0.00    -0.198 OA
ENDROOT
BRANCH   1   4
ATOM      4  C   UNL d   1      59.181  -1.345  29.194  0.00  0.00     0.126 A 
ATOM      5  C   UNL d   1      59.015  -2.156  29.134  0.00  0.00     0.071 A 
ATOM      6 CL   UNL d   1      58.299  -2.479  29.446  0.00  0.00    -0.082 Cl
ATOM      7  C   UNL d   1      59.560  -2.663  28.759  0.00  0.00     0.012 A 
ATOM      8  C   UNL d   1      60.258  -2.347  28.455  0.00  0.00     0.002 A 
ATOM      9  C   UNL d   1      60.417  -1.534  28.520  0.00  0.00     0.012 A 
ATOM     10  C   UNL d   1      59.881  -1.033  28.888  0.00  0.00     0.071 A 
ATOM     11 CL   UNL d   1      60.039  -0.224  28.953  0.00  0.00    -0.082 Cl
ENDBRANCH   1   4
BRANCH   1  12
ATOM     12  N   UNL d   1      58.077  -0.311  29.952  0.00  0.00    -0.152 NA
BRANCH  12  13
ATOM     13  C   UNL d   1      57.757  -0.521  30.696  0.00  0.00     0.173 C 
BRANCH  13  14
ATOM     14  C   UNL d   1      57.364   0.057  31.150  0.00  0.00     0.285 C 
ATOM     15  N   UNL d   1      56.847  -0.157  31.759  0.00  0.00    -0.271 N 
ATOM     16  C   UNL d   1      56.751  -0.966  31.880  0.00  0.00     0.083 A 
ATOM     17  C   UNL d   1      56.499   0.462  32.159  0.00  0.00     0.083 A 
ATOM     18  C   UNL d   1      56.279  -1.343  32.436  0.00  0.00     0.019 A 
ATOM     19  C   UNL d   1      55.791  -1.009  33.005  0.00  0.00     0.002 A 
ATOM     20  C   UNL d   1      55.649  -0.232  33.162  0.00  0.00     0.002 A 
ATOM     21  C   UNL d   1      55.964   0.430  32.787  0.00  0.00     0.019 A 
ATOM     22  O   UNL d   1      57.481   0.682  31.007  0.00  0.00    -0.265 OA
ENDBRANCH  13  14
ENDBRANCH  12  13
ENDBRANCH   1  12
TORSDOF 4
ENDMDL
MODEL 2
REMARK VINA RESULT:      -4.5      2.158      4.860
REMARK  4 active torsions:
REMARK  status: ('A' for Active; 'I' for Inactive)
REMARK    1  A    between atoms: C_2  and  S_1 
REMARK    2  A    between atoms: N_3  and  S_1 
REMARK    3  A    between atoms: C_6  and  N_3 
REMARK    4  A    between atoms: C_4  and  C_6 
REMARK       I    between atoms: N_5  and  C_4 
ROOT
ATOM      1  S   UNL d   1      56.422  -0.435  32.540  0.00  0.00     0.287 S 
ATOM      2  O   UNL d   1      56.158   0.240  32.119  0.00  0.00    -0.198 OA
ATOM      3  O   UNL d   1      56.684  -1.109  32.973  0.00  0.00    -0.198 OA
ENDROOT
BRANCH   1   4
ATOM      4  C   UNL d   1      56.190  -0.065  33.272  0.00  0.00     0.126 A 
ATOM      5  C   UNL d   1      55.398  -0.095  33.518  0.00  0.00     0.071 A 
ATOM      6 CL   UNL d   1      54.810  -0.488  33.053  0.00  0.00    -0.082 Cl
ATOM      7  C   UNL d   1      55.173   0.268  34.234  0.00  0.00     0.012 A 
ATOM      8  C   UNL d   1      55.746   0.650  34.686  0.00  0.00     0.002 A 
ATOM      9  C   UNL d   1      56.537   0.676  34.433  0.00  0.00     0.012 A 
ATOM     10  C   UNL d   1      56.760   0.319  33.728  0.00  0.00     0.071 A 
ATOM     11 CL   UNL d   1      57.547   0.343  33.475  0.00  0.00    -0.082 Cl
ENDBRANCH   1   4
BRANCH   1  12
ATOM     12  N   UNL d   1      56.651  -0.801  31.820  0.00  0.00    -0.152 NA
BRANCH  12  13
ATOM     13  C   UNL d   1      57.294  -0.490  31.384  0.00  0.00     0.173 C 
BRANCH  13  14
ATOM     14  C   UNL d   1      57.594  -0.919  30.735  0.00  0.00     0.285 C 
ATOM     15  N   UNL d   1      58.135  -0.577  30.211  0.00  0.00    -0.271 N 
ATOM     16  C   UNL d   1      58.350   0.201  30.375  0.00  0.00     0.083 A 
ATOM     17  C   UNL d   1      58.384  -1.056  29.601  0.00  0.00     0.083 A 
ATOM     18  C   UNL d   1      58.870   0.682  29.960  0.00  0.00     0.019 A 
ATOM     19  C   UNL d   1      59.301   0.507  29.283  0.00  0.00     0.002 A 
ATOM     20  C   UNL d   1      59.324  -0.176  28.856  0.00  0.00     0.002 A 
ATOM     21  C   UNL d   1      58.916  -0.878  28.994  0.00  0.00     0.019 A 
ATOM     22  O   UNL d   1      57.386  -1.531  30.658  0.00  0.00    -0.265 OA
ENDBRANCH  13  14
ENDBRANCH  12  13
ENDBRANCH   1  12
TORSDOF 4
ENDMDL
MODEL 3
REMARK VINA RESULT:      -2.3      1.692      4.600
REMARK  4 active torsions:
REMARK  status: ('A' for Active; 'I' for Inactive)
REMARK    1  A    between atoms: C_2  and  S_1 
REMARK    2  A    between atoms: N_3  and  S_1 
REMARK    3  A    between atoms: C_6  and  N_3 
REMARK    4  A    between atoms: C_4  and  C_6 
REMARK       I    between atoms: N_5  and  C_4 
ROOT
ATOM      1  S   UNL d   1      56.998  -0.223  31.778  0.00  0.00     0.287 S 
ATOM      2  O   UNL d   1      57.291  -0.998  31.898  0.00  0.00    -0.198 OA
ATOM      3  O   UNL d   1      56.698   0.557  31.667  0.00  0.00    -0.198 OA
ENDROOT
BRANCH   1   4
ATOM      4  C   UNL d   1      56.647  -0.238  32.554  0.00  0.00     0.126 A 
ATOM      5  C   UNL d   1      56.983   0.206  33.170  0.00  0.00     0.071 A 
ATOM      6 CL   UNL d   1      57.673   0.678  33.041  0.00  0.00    -0.082 Cl
ATOM      7  C   UNL d   1      56.638   0.189  33.929  0.00  0.00     0.012 A 
ATOM      8  C   UNL d   1      55.967  -0.271  34.052  0.00  0.00     0.002 A 
ATOM      9  C   UNL d   1      55.635  -0.713  33.431  0.00  0.00     0.012 A 
ATOM     10  C   UNL d   1      55.974  -0.698  32.684  0.00  0.00     0.071 A 
ATOM     11 CL   UNL d   1      55.646  -1.137  32.065  0.00  0.00    -0.082 Cl
ENDBRANCH   1   4
BRANCH   1  12
ATOM     12  N   UNL d   1      57.343  -0.206  31.013  0.00  0.00    -0.152 NA
BRANCH  12  13
ATOM     13  C   UNL d   1      57.972  -0.727  30.831  0.00  0.00     0.173 C 
BRANCH  13  14
ATOM     14  C   UNL d   1      58.456  -0.570  30.170  0.00  0.00     0.285 C 
ATOM     15  N   UNL d   1      58.765  -1.185  29.712  0.00  0.00    -0.271 N 
ATOM     16  C   UNL d   1      58.563  -1.947  29.952  0.00  0.00     0.083 A 
ATOM     17  C   UNL d   1      59.229  -0.956  29.082  0.00  0.00     0.083 A 
ATOM     18  C   UNL d   1      58.784  -2.661  29.611  0.00  0.00     0.019 A 
ATOM     19  C   UNL d   1      59.256  -2.790  28.951  0.00  0.00     0.002 A 
ATOM     20  C   UNL d   1      59.622  -2.254  28.474  0.00  0.00     0.002 A 
ATOM     21  C   UNL d   1      59.613  -1.432  28.528  0.00  0.00     0.019 A 
ATOM     22  O   UNL d   1      58.580   0.054  30.030  0.00  0.00    -0.265 OA
ENDBRANCH  13  14
ENDBRANCH  12  13
ENDBRANCH   1  12
TORSDOF 4
ENDMDL
