MODEL 1
REMARK VINA RESULT:      -5.4      0.000      0.000
REMARK  6 active torsions:
REMARK  status: ('A' for Active; 'I' for Inactive)
REMARK    1  A    between atoms: C_10  and  C_2 
REMARK    2  A    between atoms: C_14  and  N_3 
REMARK    3  A    between atoms: C_15  and  C_4 
REMARK    4  A    between atoms: N_5  and  C_9 
REMARK       I    between atoms: C_7  and  N_8 
REMARK    5  A    between atoms: C_13  and  C_7 
REMARK    6  A    between atoms: N_8  and  C_10 
ROOT
ATOM      1  N   UNL d   1     -45.051  12.703  22.714  0.00  0.00    -0.165 NA
ATOM      2  C   UNL d   1     -46.259  12.368  23.411  0.00  0.00     0.071 A 
ATOM      3  N   UNL d   1     -45.139  11.461  23.348  0.00  0.00    -0.228 N 
ATOM      4  C   UNL d   1     -45.823  12.888  22.969  0.00  0.00     0.105 A 
ATOM      5  C   UNL d   1     -45.912  11.647  23.602  0.00  0.00     0.105 A 
ENDROOT
BRANCH   2   6
ATOM      6  C   UNL d   1     -47.042  12.556  23.670  0.00  0.00     0.168 C 
BRANCH   6   7
ATOM      7  N   UNL d   1     -47.689  12.090  23.453  0.00  0.00    -0.362 NA
ATOM      8  C   UNL d   1     -48.330  11.624  23.240  0.00  0.00     0.328 C 
ATOM      9  O   UNL d   1     -48.374  10.834  23.475  0.00  0.00    -0.251 OA
BRANCH   8  10
ATOM     10  C   UNL d   1     -48.936  11.950  22.786  0.00  0.00     0.070 A 
ATOM     11  C   UNL d   1     -49.504  12.433  23.144  0.00  0.00     0.008 A 
ATOM     12  C   UNL d   1     -50.116  12.764  22.690  0.00  0.00     0.024 A 
ATOM     13  C   UNL d   1     -50.155  12.609  21.886  0.00  0.00     0.127 A 
ATOM     14  C   UNL d   1     -49.592  12.127  21.521  0.00  0.00     0.024 A 
ATOM     15  C   UNL d   1     -48.975  11.795  21.983  0.00  0.00     0.008 A 
BRANCH  13  16
ATOM     16  N   UNL d   1     -50.764  12.937  21.431  0.00  0.00    -0.114 N 
ATOM     17  O   UNL d   1     -51.064  12.506  20.795  0.00  0.00    -0.532 OA
ATOM     18  O   UNL d   1     -51.064  13.681  21.610  0.00  0.00    -0.532 OA
ENDBRANCH  13  16
ENDBRANCH   8  10
ENDBRANCH   6   7
ENDBRANCH   2   6
BRANCH   4  19
ATOM     19  C   UNL d   1     -46.169  13.620  22.772  0.00  0.00     0.019 A 
ATOM     20  C   UNL d   1     -46.438  13.720  22.003  0.00  0.00     0.002 A 
ATOM     21  C   UNL d   1     -46.782  14.441  21.801  0.00  0.00     0.000 A 
ATOM     22  C   UNL d   1     -46.850  15.056  22.383  0.00  0.00     0.000 A 
ATOM     23  C   UNL d   1     -46.577  14.941  23.144  0.00  0.00     0.000 A 
ATOM     24  C   UNL d   1     -46.237  14.232  23.352  0.00  0.00     0.002 A 
ENDBRANCH   4  19
BRANCH   3  25
ATOM     25  C   UNL d   1     -44.629  10.810  23.433  0.00  0.00     0.083 A 
ATOM     26  C   UNL d   1     -44.936  10.044  23.613  0.00  0.00     0.019 A 
ATOM     27  C   UNL d   1     -44.433   9.394  23.698  0.00  0.00     0.002 A 
ATOM     28  C   UNL d   1     -43.627   9.508  23.604  0.00  0.00     0.000 A 
ATOM     29  C   UNL d   1     -43.331  10.275  23.424  0.00  0.00     0.002 A 
ATOM     30  C   UNL d   1     -43.830  10.924  23.339  0.00  0.00     0.019 A 
ENDBRANCH   3  25
TORSDOF 6
ENDMDL
MODEL 2
REMARK VINA RESULT:      -3.4      8.090      9.250
REMARK  6 active torsions:
REMARK  status: ('A' for Active; 'I' for Inactive)
REMARK    1  A    between atoms: C_10  and  C_2 
REMARK    2  A    between atoms: C_14  and  N_3 
REMARK    3  A    between atoms: C_15  and  C_4 
REMARK    4  A    between atoms: N_5  and  C_9 
REMARK       I    between atoms: C_7  and  N_8 
REMARK    5  A    between atoms: C_13  and  C_7 
REMARK    6  A    between atoms: N_8  and  C_10 
ROOT
ATOM      1  N   UNL d   1     -38.269  12.991  19.639  0.00  0.00    -0.165 NA
ATOM      2  C   UNL d   1     -38.793  14.251  19.195  0.00  0.00     0.071 A 
ATOM      3  N   UNL d   1     -38.701  13.915  20.594  0.00  0.00    -0.228 N 
ATOM      4  C   UNL d   1     -38.475  13.524  19.031  0.00  0.00     0.105 A 
ATOM      5  C   UNL d   1     -38.907  14.447  19.986  0.00  0.00     0.105 A 
ENDROOT
BRANCH   2   6
ATOM      6  C   UNL d   1     -39.002  14.791  18.578  0.00  0.00     0.168 C 
BRANCH   6   7
ATOM      7  N   UNL d   1     -39.725  15.190  18.583  0.00  0.00    -0.362 NA
ATOM      8  C   UNL d   1     -40.443  15.588  18.592  0.00  0.00     0.328 C 
ATOM      9  O   UNL d   1     -40.730  15.922  19.290  0.00  0.00    -0.251 OA
BRANCH   8  10
ATOM     10  C   UNL d   1     -40.880  15.653  17.897  0.00  0.00     0.070 A 
ATOM     11  C   UNL d   1     -40.495  15.817  17.183  0.00  0.00     0.008 A 
ATOM     12  C   UNL d   1     -40.932  15.883  16.480  0.00  0.00     0.024 A 
ATOM     13  C   UNL d   1     -41.746  15.786  16.496  0.00  0.00     0.127 A 
ATOM     14  C   UNL d   1     -42.137  15.622  17.205  0.00  0.00     0.024 A 
ATOM     15  C   UNL d   1     -41.693  15.556  17.913  0.00  0.00     0.008 A 
BRANCH  13  16
ATOM     16  N   UNL d   1     -42.184  15.851  15.797  0.00  0.00    -0.114 N 
ATOM     17  O   UNL d   1     -41.787  15.874  15.075  0.00  0.00    -0.532 OA
ATOM     18  O   UNL d   1     -43.005  15.894  15.823  0.00  0.00    -0.532 OA
ENDBRANCH  13  16
ENDBRANCH   8  10
ENDBRANCH   6   7
ENDBRANCH   2   6
BRANCH   4  19
ATOM     19  C   UNL d   1     -38.358  13.320  18.232  0.00  0.00     0.019 A 
ATOM     20  C   UNL d   1     -38.458  12.532  18.021  0.00  0.00     0.002 A 
ATOM     21  C   UNL d   1     -38.344  12.323  17.232  0.00  0.00     0.000 A 
ATOM     22  C   UNL d   1     -38.128  12.915  16.663  0.00  0.00     0.000 A 
ATOM     23  C   UNL d   1     -38.031  13.694  16.889  0.00  0.00     0.000 A 
ATOM     24  C   UNL d   1     -38.142  13.909  17.665  0.00  0.00     0.002 A 
ENDBRANCH   4  19
BRANCH   3  25
ATOM     25  C   UNL d   1     -38.736  13.924  21.425  0.00  0.00     0.083 A 
ATOM     26  C   UNL d   1     -39.120  13.300  21.846  0.00  0.00     0.019 A 
ATOM     27  C   UNL d   1     -39.157  13.304  22.671  0.00  0.00     0.002 A 
ATOM     28  C   UNL d   1     -38.813  13.928  23.076  0.00  0.00     0.000 A 
ATOM     29  C   UNL d   1     -38.432  14.545  22.647  0.00  0.00     0.002 A 
ATOM     30  C   UNL d   1     -38.394  14.543  21.825  0.00  0.00     0.019 A 
ENDBRANCH   3  25
TORSDOF 6
ENDMDL
MODEL 3
REMARK VINA RESULT:      -3.3      7.860      9.448
REMARK  6 active torsions:
REMARK  status: ('A' for Active; 'I' for Inactive)
REMARK    1  A    between atoms: C_10  and  C_2 
REMARK    2  A    between atoms: C_14  and  N_3 
REMARK    3  A    between atoms: C_15  and  C_4 
REMARK    4  A    between atoms: N_5  and  C_9 
REMARK       I    between atoms: C_7  and  N_8 
REMARK    5  A    between atoms: C_13  and  C_7 
REMARK    6  A    between atoms: N_8  and  C_10 
ROOT
ATOM      1  N   UNL d   1     -39.001  12.988  16.765  0.00  0.00    -0.165 NA
ATOM      2  C   UNL d   1     -38.459  13.670  17.905  0.00  0.00     0.071 A 
ATOM      3  N   UNL d   1     -38.425  12.233  17.790  0.00  0.00    -0.228 N 
ATOM      4  C   UNL d   1     -38.831  13.688  17.185  0.00  0.00     0.105 A 
ATOM      5  C   UNL d   1     -38.255  12.933  18.210  0.00  0.00     0.105 A 
ENDROOT
BRANCH   2   6
ATOM      6  C   UNL d   1     -38.286  14.380  18.331  0.00  0.00     0.168 C 
BRANCH   6   7
ATOM      7  N   UNL d   1     -38.427  14.439  19.144  0.00  0.00    -0.362 NA
ATOM      8  C   UNL d   1     -38.562  14.497  19.951  0.00  0.00     0.328 C 
ATOM      9  O   UNL d   1     -37.940  14.423  20.489  0.00  0.00    -0.251 OA
BRANCH   8  10
ATOM     10  C   UNL d   1     -39.328  14.630  20.226  0.00  0.00     0.070 A 
ATOM     11  C   UNL d   1     -39.618  15.403  20.275  0.00  0.00     0.008 A 
ATOM     12  C   UNL d   1     -40.389  15.541  20.552  0.00  0.00     0.024 A 
ATOM     13  C   UNL d   1     -40.861  14.910  20.775  0.00  0.00     0.127 A 
ATOM     14  C   UNL d   1     -40.578  14.134  20.728  0.00  0.00     0.024 A 
ATOM     15  C   UNL d   1     -39.798  13.998  20.449  0.00  0.00     0.008 A 
BRANCH  13  16
ATOM     16  N   UNL d   1     -41.629  15.043  21.051  0.00  0.00    -0.114 N 
ATOM     17  O   UNL d   1     -41.862  15.814  21.230  0.00  0.00    -0.532 OA
ATOM     18  O   UNL d   1     -42.153  14.417  21.146  0.00  0.00    -0.532 OA
ENDBRANCH  13  16
ENDBRANCH   8  10
ENDBRANCH   6   7
ENDBRANCH   2   6
BRANCH   4  19
ATOM     19  C   UNL d   1     -39.040  14.431  16.872  0.00  0.00     0.019 A 
ATOM     20  C   UNL d   1     -39.826  14.661  16.930  0.00  0.00     0.002 A 
ATOM     21  C   UNL d   1     -40.041  15.395  16.622  0.00  0.00     0.000 A 
ATOM     22  C   UNL d   1     -39.455  15.890  16.259  0.00  0.00     0.000 A 
ATOM     23  C   UNL d   1     -38.677  15.647  16.209  0.00  0.00     0.000 A 
ATOM     24  C   UNL d   1     -38.456  14.924  16.510  0.00  0.00     0.002 A 
ENDBRANCH   4  19
BRANCH   3  25
ATOM     25  C   UNL d   1     -38.305  11.420  17.921  0.00  0.00     0.083 A 
ATOM     26  C   UNL d   1     -38.438  10.861  17.301  0.00  0.00     0.019 A 
ATOM     27  C   UNL d   1     -38.321  10.053  17.426  0.00  0.00     0.002 A 
ATOM     28  C   UNL d   1     -38.071   9.803  18.166  0.00  0.00     0.000 A 
ATOM     29  C   UNL d   1     -37.942  10.369  18.776  0.00  0.00     0.002 A 
ATOM     30  C   UNL d   1     -38.058  11.174  18.654  0.00  0.00     0.019 A 
ENDBRANCH   3  25
TORSDOF 6
ENDMDL
MODEL 4
REMARK VINA RESULT:      -3.2      6.412      8.006
REMARK  6 active torsions:
REMARK  status: ('A' for Active; 'I' for Inactive)
REMARK    1  A    between atoms: C_10  and  C_2 
REMARK    2  A    between atoms: C_14  and  N_3 
REMARK    3  A    between atoms: C_15  and  C_4 
REMARK    4  A    between atoms: N_5  and  C_9 
REMARK       I    between atoms: C_7  and  N_8 
REMARK    5  A    between atoms: C_13  and  C_7 
REMARK    6  A    between atoms: N_8  and  C_10 
ROOT
ATOM      1  N   UNL d   1     -37.940  14.342  20.125  0.00  0.00    -0.165 NA
ATOM      2  C   UNL d   1     -39.371  14.421  20.092  0.00  0.00     0.071 A 
ATOM      3  N   UNL d   1     -38.623  14.661  21.301  0.00  0.00    -0.228 N 
ATOM      4  C   UNL d   1     -38.665  14.290  19.718  0.00  0.00     0.105 A 
ATOM      5  C   UNL d   1     -39.349  14.608  20.894  0.00  0.00     0.105 A 
ENDROOT
BRANCH   2   6
ATOM      6  C   UNL d   1     -40.108  14.368  19.679  0.00  0.00     0.168 C 
BRANCH   6   7
ATOM      7  N   UNL d   1     -40.818  14.597  20.034  0.00  0.00    -0.362 NA
ATOM      8  C   UNL d   1     -41.522  14.828  20.386  0.00  0.00     0.328 C 
ATOM      9  O   UNL d   1     -41.727  15.626  20.433  0.00  0.00    -0.251 OA
BRANCH   8  10
ATOM     10  C   UNL d   1     -42.029  14.256  20.696  0.00  0.00     0.070 A 
ATOM     11  C   UNL d   1     -42.152  13.550  20.284  0.00  0.00     0.008 A 
ATOM     12  C   UNL d   1     -42.662  12.971  20.592  0.00  0.00     0.024 A 
ATOM     13  C   UNL d   1     -43.042  13.102  21.306  0.00  0.00     0.127 A 
ATOM     14  C   UNL d   1     -42.923  13.806  21.724  0.00  0.00     0.024 A 
ATOM     15  C   UNL d   1     -42.408  14.388  21.409  0.00  0.00     0.008 A 
BRANCH  13  16
ATOM     16  N   UNL d   1     -43.550  12.528  21.617  0.00  0.00    -0.114 N 
ATOM     17  O   UNL d   1     -44.359  12.687  21.655  0.00  0.00    -0.532 OA
ATOM     18  O   UNL d   1     -43.253  11.809  21.883  0.00  0.00    -0.532 OA
ENDBRANCH  13  16
ENDBRANCH   8  10
ENDBRANCH   6   7
ENDBRANCH   2   6
BRANCH   4  19
ATOM     19  C   UNL d   1     -38.682  14.100  18.907  0.00  0.00     0.019 A 
ATOM     20  C   UNL d   1     -38.849  13.322  18.701  0.00  0.00     0.002 A 
ATOM     21  C   UNL d   1     -38.867  13.127  17.901  0.00  0.00     0.000 A 
ATOM     22  C   UNL d   1     -38.717  13.723  17.315  0.00  0.00     0.000 A 
ATOM     23  C   UNL d   1     -38.554  14.492  17.536  0.00  0.00     0.000 A 
ATOM     24  C   UNL d   1     -38.533  14.694  18.323  0.00  0.00     0.002 A 
ENDBRANCH   4  19
BRANCH   3  25
ATOM     25  C   UNL d   1     -38.394  14.831  22.083  0.00  0.00     0.083 A 
ATOM     26  C   UNL d   1     -38.365  14.219  22.665  0.00  0.00     0.019 A 
ATOM     27  C   UNL d   1     -38.138  14.383  23.442  0.00  0.00     0.002 A 
ATOM     28  C   UNL d   1     -37.942  15.154  23.639  0.00  0.00     0.000 A 
ATOM     29  C   UNL d   1     -37.975  15.756  23.051  0.00  0.00     0.002 A 
ATOM     30  C   UNL d   1     -38.200  15.595  22.276  0.00  0.00     0.019 A 
ENDBRANCH   3  25
TORSDOF 6
ENDMDL
