MODEL 1
REMARK VINA RESULT:       3.6      0.000      0.000
REMARK  6 active torsions:
REMARK  status: ('A' for Active; 'I' for Inactive)
REMARK    1  A    between atoms: S_13  and  C_3 
REMARK    2  A    between atoms: C_21  and  C_4 
REMARK       I    between atoms: N_7  and  C_10 
REMARK    3  A    between atoms: C_10  and  C_20 
REMARK    4  A    between atoms: C_20  and  S_13 
REMARK    5  A    between atoms: O_24  and  C_16 
REMARK    6  A    between atoms: O_25  and  C_17 
ROOT
ATOM      1  N   UNL d   1     -41.635-122.583 -51.963  0.00  0.00    -0.272 N 
ATOM      2  C   UNL d   1     -41.618-122.345 -51.147  0.00  0.00     0.271 C 
ATOM      3  C   UNL d   1     -41.585-122.247 -53.342  0.00  0.00     0.020 A 
ATOM      4  C   UNL d   1     -41.567-122.015 -52.558  0.00  0.00     0.083 A 
ATOM      5  C   UNL d   1     -41.667-123.026 -53.535  0.00  0.00     0.005 A 
ATOM      6  C   UNL d   1     -41.516-121.677 -53.945  0.00  0.00     0.028 A 
ATOM      7  C   UNL d   1     -41.533-121.906 -54.738  0.00  0.00     0.116 A 
ATOM      8  C   UNL d   1     -41.616-122.686 -54.931  0.00  0.00     0.116 A 
ATOM      9  C   UNL d   1     -41.685-123.262 -54.338  0.00  0.00     0.026 A 
ATOM     10  C   UNL d   1     -41.718-123.362 -52.156  0.00  0.00     0.083 A 
ATOM     11  O   UNL d   1     -41.532-121.545 -50.958  0.00  0.00    -0.266 OA
ATOM     12  C   UNL d   1     -41.736-123.600 -52.950  0.00  0.00     0.019 A 
ENDROOT
BRANCH   2  13
ATOM     13  C   UNL d   1     -41.685-122.914 -50.553  0.00  0.00     0.099 C 
BRANCH  13  14
ATOM     14  S   UNL d   1     -42.140-122.753 -49.890  0.00  0.00    -0.043 SA
BRANCH  14  15
ATOM     15  C   UNL d   1     -42.917-123.057 -49.832  0.00  0.00     0.202 A 
ATOM     16  N   UNL d   1     -43.267-123.305 -49.150  0.00  0.00    -0.263 N 
ATOM     17  C   UNL d   1     -44.022-123.558 -49.344  0.00  0.00     0.202 A 
ATOM     18  C   UNL d   1     -43.170-123.407 -48.337  0.00  0.00     0.074 A 
ATOM     19  N   UNL d   1     -44.132-123.462 -50.146  0.00  0.00    -0.121 NA
ATOM     20  S   UNL d   1     -44.397-123.817 -48.653  0.00  0.00    -0.046 SA
ATOM     21  N   UNL d   1     -43.440-123.150 -50.445  0.00  0.00    -0.121 NA
ATOM     22  C   UNL d   1     -43.866-123.723 -48.026  0.00  0.00     0.056 A 
BRANCH  18  23
ATOM     23  C   UNL d   1     -42.493-123.223 -47.915  0.00  0.00     0.017 A 
ATOM     24  C   UNL d   1     -41.906-123.807 -47.805  0.00  0.00     0.002 A 
ATOM     25  C   UNL d   1     -41.239-123.619 -47.386  0.00  0.00     0.000 A 
ATOM     26  C   UNL d   1     -41.123-122.872 -47.068  0.00  0.00     0.000 A 
ATOM     27  C   UNL d   1     -41.717-122.297 -47.184  0.00  0.00     0.000 A 
ATOM     28  C   UNL d   1     -42.386-122.481 -47.602  0.00  0.00     0.002 A 
ENDBRANCH  18  23
ENDBRANCH  14  15
ENDBRANCH  13  14
ENDBRANCH   2  13
BRANCH   7  29
ATOM     29  O   UNL d   1     -41.464-121.328 -55.322  0.00  0.00    -0.326 OA
ATOM     30  C   UNL d   1     -42.152-121.078 -55.743  0.00  0.00     0.181 C 
ENDBRANCH   7  29
BRANCH   8  31
ATOM     31  O   UNL d   1     -41.634-122.926 -55.718  0.00  0.00    -0.326 OA
ATOM     32  C   UNL d   1     -41.603-123.744 -55.891  0.00  0.00     0.181 C 
ENDBRANCH   8  31
TORSDOF 6
ENDMDL
