MODEL 1
REMARK VINA RESULT:      -5.8      0.000      0.000
REMARK  1 active torsions:
REMARK  status: ('A' for Active; 'I' for Inactive)
REMARK    1  A    between atoms: C_11  and  C_4 
ROOT
ATOM      1  O   UNL d   1      57.083  -0.886  31.391  0.00  0.00    -0.304 OA
ATOM      2  C   UNL d   1      56.541   0.093  32.128  0.00  0.00     0.025 A 
ATOM      3  C   UNL d   1      57.035   0.438  31.556  0.00  0.00     0.030 A 
ATOM      4  C   UNL d   1      57.369  -0.165  31.102  0.00  0.00     0.142 A 
ATOM      5  C   UNL d   1      56.578  -0.725  32.019  0.00  0.00     0.100 A 
ATOM      6  C   UNL d   1      56.079   0.417  32.716  0.00  0.00     0.009 A 
ATOM      7  C   UNL d   1      56.141  -1.222  32.509  0.00  0.00     0.025 A 
ATOM      8  C   UNL d   1      55.636  -0.075  33.216  0.00  0.00     0.035 A 
ATOM      9  C   UNL d   1      55.668  -0.897  33.110  0.00  0.00     0.009 A 
ATOM     10 BR   UNL d   1      55.167   0.244  33.811  0.00  0.00    -0.049 Br
ENDROOT
BRANCH   4  11
ATOM     11  C   UNL d   1      57.892  -0.068  30.473  0.00  0.00     0.259 C 
ATOM     12  O   UNL d   1      57.624   0.224  29.759  0.00  0.00    -0.281 OA
ENDBRANCH   4  11
TORSDOF 1
ENDMDL
MODEL 2
REMARK VINA RESULT:      -5.5      1.974      3.008
REMARK  1 active torsions:
REMARK  status: ('A' for Active; 'I' for Inactive)
REMARK    1  A    between atoms: C_11  and  C_4 
ROOT
ATOM      1  O   UNL d   1      55.307  -0.543  33.636  0.00  0.00    -0.304 OA
ATOM      2  C   UNL d   1      56.092   0.144  32.794  0.00  0.00     0.025 A 
ATOM      3  C   UNL d   1      55.726   0.682  33.311  0.00  0.00     0.030 A 
ATOM      4  C   UNL d   1      55.243   0.259  33.829  0.00  0.00     0.142 A 
ATOM      5  C   UNL d   1      55.828  -0.610  33.002  0.00  0.00     0.100 A 
ATOM      6  C   UNL d   1      56.617   0.249  32.180  0.00  0.00     0.009 A 
ATOM      7  C   UNL d   1      56.097  -1.266  32.585  0.00  0.00     0.025 A 
ATOM      8  C   UNL d   1      56.894  -0.405  31.753  0.00  0.00     0.035 A 
ATOM      9  C   UNL d   1      56.632  -1.165  31.958  0.00  0.00     0.009 A 
ATOM     10 BR   UNL d   1      57.424  -0.308  31.131  0.00  0.00    -0.049 Br
ENDROOT
BRANCH   4  11
ATOM     11  C   UNL d   1      54.779   0.577  34.431  0.00  0.00     0.259 C 
ATOM     12  O   UNL d   1      55.094   0.682  35.178  0.00  0.00    -0.281 OA
ENDBRANCH   4  11
TORSDOF 1
ENDMDL
MODEL 3
REMARK VINA RESULT:      -4.8      0.789      1.236
REMARK  1 active torsions:
REMARK  status: ('A' for Active; 'I' for Inactive)
REMARK    1  A    between atoms: C_11  and  C_4 
ROOT
ATOM      1  O   UNL d   1      57.353   0.657  31.093  0.00  0.00    -0.304 OA
ATOM      2  C   UNL d   1      56.960  -0.513  31.615  0.00  0.00     0.025 A 
ATOM      3  C   UNL d   1      57.478  -0.668  30.985  0.00  0.00     0.030 A 
ATOM      4  C   UNL d   1      57.720   0.052  30.663  0.00  0.00     0.142 A 
ATOM      5  C   UNL d   1      56.888   0.307  31.674  0.00  0.00     0.100 A 
ATOM      6  C   UNL d   1      56.558  -1.006  32.124  0.00  0.00     0.009 A 
ATOM      7  C   UNL d   1      56.405   0.634  32.255  0.00  0.00     0.025 A 
ATOM      8  C   UNL d   1      56.069  -0.687  32.713  0.00  0.00     0.035 A 
ATOM      9  C   UNL d   1      55.993   0.136  32.777  0.00  0.00     0.009 A 
ATOM     10 BR   UNL d   1      55.660  -1.179  33.232  0.00  0.00    -0.049 Br
ENDROOT
BRANCH   4  11
ATOM     11  C   UNL d   1      58.235   0.153  30.028  0.00  0.00     0.259 C 
ATOM     12  O   UNL d   1      57.939   0.253  29.273  0.00  0.00    -0.281 OA
ENDBRANCH   4  11
TORSDOF 1
ENDMDL
MODEL 4
REMARK VINA RESULT:      -4.4      1.740      2.782
REMARK  1 active torsions:
REMARK  status: ('A' for Active; 'I' for Inactive)
REMARK    1  A    between atoms: C_11  and  C_4 
ROOT
ATOM      1  O   UNL d   1      56.213  -0.988  32.393  0.00  0.00    -0.304 OA
ATOM      2  C   UNL d   1      56.759   0.137  31.911  0.00  0.00     0.025 A 
ATOM      3  C   UNL d   1      56.249   0.339  32.534  0.00  0.00     0.030 A 
ATOM      4  C   UNL d   1      55.913  -0.354  32.831  0.00  0.00     0.142 A 
ATOM      5  C   UNL d   1      56.731  -0.684  31.830  0.00  0.00     0.100 A 
ATOM      6  C   UNL d   1      57.230   0.589  31.424  0.00  0.00     0.009 A 
ATOM      7  C   UNL d   1      57.184  -1.054  31.250  0.00  0.00     0.025 A 
ATOM      8  C   UNL d   1      57.690   0.228  30.836  0.00  0.00     0.035 A 
ATOM      9  C   UNL d   1      57.666  -0.597  30.751  0.00  0.00     0.009 A 
ATOM     10 BR   UNL d   1      58.168   0.678  30.340  0.00  0.00    -0.049 Br
ENDROOT
BRANCH   4  11
ATOM     11  C   UNL d   1      55.374  -0.406  33.453  0.00  0.00     0.259 C 
ATOM     12  O   UNL d   1      54.799   0.166  33.544  0.00  0.00    -0.281 OA
ENDBRANCH   4  11
TORSDOF 1
ENDMDL
MODEL 5
REMARK VINA RESULT:      -3.2      9.616      9.988
REMARK  1 active torsions:
REMARK  status: ('A' for Active; 'I' for Inactive)
REMARK    1  A    between atoms: C_11  and  C_4 
ROOT
ATOM      1  O   UNL d   1      59.115  -8.860  35.067  0.00  0.00    -0.304 OA
ATOM      2  C   UNL d   1      60.302  -8.834  34.444  0.00  0.00     0.025 A 
ATOM      3  C   UNL d   1      60.376  -8.431  35.166  0.00  0.00     0.030 A 
ATOM      4  C   UNL d   1      59.645  -8.447  35.550  0.00  0.00     0.142 A 
ATOM      5  C   UNL d   1      59.520  -9.095  34.391  0.00  0.00     0.100 A 
ATOM      6  C   UNL d   1      60.836  -8.988  33.848  0.00  0.00     0.009 A 
ATOM      7  C   UNL d   1      59.275  -9.518  33.728  0.00  0.00     0.025 A 
ATOM      8  C   UNL d   1      60.599  -9.413  33.176  0.00  0.00     0.035 A 
ATOM      9  C   UNL d   1      59.815  -9.678  33.118  0.00  0.00     0.009 A 
ATOM     10 BR   UNL d   1      61.133  -9.573  32.570  0.00  0.00    -0.049 Br
ENDROOT
BRANCH   4  11
ATOM     11  C   UNL d   1      59.473  -8.112  36.283  0.00  0.00     0.259 C 
ATOM     12  O   UNL d   1      59.193  -7.346  36.327  0.00  0.00    -0.281 OA
ENDBRANCH   4  11
TORSDOF 1
ENDMDL
