MODEL 1
REMARK VINA RESULT:      63.0      0.000      0.000
REMARK  11 active torsions:
REMARK  status: ('A' for Active; 'I' for Inactive)
REMARK    1  A    between atoms: C_2  and  N_1 
REMARK    2  A    between atoms: C_4  and  C_2 
REMARK    3  A    between atoms: C_5  and  C_2 
REMARK    4  A    between atoms: C_3  and  N_6 
REMARK    5  A    between atoms: N_15  and  C_3 
REMARK    6  A    between atoms: N_6  and  C_4 
REMARK    7  A    between atoms: C_16  and  N_7 
REMARK    8  A    between atoms: C_20  and  N_15 
REMARK    9  A    between atoms: C_19  and  C_16 
REMARK   10  A    between atoms: C_23  and  C_20 
REMARK   11  A    between atoms: C_22  and  C_23 
ROOT
ATOM      1  C   UNL d   1      13.966  15.060  -3.765  0.00  0.00     0.088 C 
ENDROOT
BRANCH   1   2
ATOM      2  N   UNL d   1      13.925  14.316  -3.411  0.00  0.00    -0.300 N 
ATOM      3  C   UNL d   1      13.858  13.641  -3.883  0.00  0.00     0.100 A 
ATOM      4  C   UNL d   1      13.817  12.897  -3.529  0.00  0.00     0.100 A 
ATOM      5  N   UNL d   1      13.842  12.823  -2.709  0.00  0.00    -0.300 N 
ATOM      6  C   UNL d   1      13.908  13.497  -2.241  0.00  0.00     0.100 A 
ATOM      7  C   UNL d   1      13.949  14.241  -2.595  0.00  0.00     0.100 A 
BRANCH   5   8
ATOM      8  C   UNL d   1      13.800  12.078  -2.359  0.00  0.00     0.080 C 
BRANCH   8   9
ATOM      9  C   UNL d   1      14.042  11.979  -1.571  0.00  0.00     0.018 A 
ATOM     10  C   UNL d   1      13.490  11.887  -0.982  0.00  0.00     0.002 A 
ATOM     11  C   UNL d   1      13.727  11.789  -0.197  0.00  0.00     0.000 A 
ATOM     12  C   UNL d   1      14.528  11.786  -0.024  0.00  0.00     0.000 A 
ATOM     13  C   UNL d   1      15.098  11.879  -0.620  0.00  0.00     0.000 A 
ATOM     14  C   UNL d   1      14.840  11.976  -1.400  0.00  0.00     0.002 A 
ENDBRANCH   8   9
ENDBRANCH   5   8
ENDBRANCH   1   2
BRANCH   1  15
ATOM     15  C   UNL d   1      13.609  15.198  -4.490  0.00  0.00     0.100 C 
ATOM     16  C   UNL d   1      13.701  14.657  -5.094  0.00  0.00     0.022 C 
BRANCH  15  17
ATOM     17  N   UNL d   1      13.167  15.874  -4.597  0.00  0.00    -0.216 NA
BRANCH  17  18
ATOM     18  C   UNL d   1      13.148  16.245  -5.337  0.00  0.00     0.221 C 
ATOM     19  S   UNL d   1      12.772  15.867  -5.965  0.00  0.00    -0.037 SA
BRANCH  18  20
ATOM     20  N   UNL d   1      13.500  16.973  -5.437  0.00  0.00    -0.216 NA
BRANCH  20  21
ATOM     21  C   UNL d   1      13.147  17.551  -5.899  0.00  0.00     0.102 C 
BRANCH  21  22
ATOM     22  C   UNL d   1      13.623  18.022  -6.388  0.00  0.00     0.021 C 
BRANCH  22  23
ATOM     23  C   UNL d   1      13.695  18.818  -6.225  0.00  0.00     0.002 A 
ATOM     24  C   UNL d   1      13.055  19.321  -6.366  0.00  0.00     0.000 A 
ATOM     25  C   UNL d   1      13.125  20.127  -6.202  0.00  0.00     0.000 A 
ATOM     26  C   UNL d   1      13.823  20.427  -5.902  0.00  0.00     0.000 A 
ATOM     27  C   UNL d   1      14.464  19.916  -5.762  0.00  0.00     0.000 A 
ATOM     28  C   UNL d   1      14.392  19.121  -5.925  0.00  0.00     0.000 A 
ENDBRANCH  22  23
ENDBRANCH  21  22
ENDBRANCH  20  21
ENDBRANCH  18  20
ENDBRANCH  17  18
ENDBRANCH  15  17
ENDBRANCH   1  15
BRANCH   1  29
ATOM     29  C   UNL d   1      14.371  15.670  -3.384  0.00  0.00     0.047 A 
ATOM     30  S   UNL d   1      15.034  16.071  -3.673  0.00  0.00    -0.085 SA
ATOM     31  C   UNL d   1      15.254  16.631  -3.117  0.00  0.00     0.035 A 
ATOM     32  C   UNL d   1      14.730  16.583  -2.481  0.00  0.00     0.007 A 
ATOM     33  C   UNL d   1      14.183  15.987  -2.648  0.00  0.00     0.009 A 
ENDBRANCH   1  29
TORSDOF 11
ENDMDL
