MODEL 1
REMARK VINA RESULT:       6.4      0.000      0.000
REMARK  9 active torsions:
REMARK  status: ('A' for Active; 'I' for Inactive)
REMARK    1  A    between atoms: C_6  and  N_1 
REMARK    2  A    between atoms: S_11  and  C_2 
REMARK    3  A    between atoms: C_14  and  C_3 
REMARK       I    between atoms: C_7  and  N_12 
REMARK    4  A    between atoms: C_8  and  C_7 
REMARK    5  A    between atoms: C_9  and  N_10 
REMARK       I    between atoms: N_10  and  C_13 
REMARK    6  A    between atoms: C_24  and  S_11 
REMARK    7  A    between atoms: N_12  and  C_14 
REMARK    8  A    between atoms: C_13  and  C_24 
REMARK    9  A    between atoms: O_28  and  C_19 
ROOT
ATOM      1  N   UNL d   1      32.901  18.822 -22.981  0.00  0.00    -0.266 N 
ATOM      2  C   UNL d   1      33.121  19.059 -22.218  0.00  0.00     0.201 A 
ATOM      3  C   UNL d   1      32.883  17.990 -22.999  0.00  0.00     0.190 A 
ATOM      4  N   UNL d   1      33.241  18.371 -21.758  0.00  0.00    -0.121 NA
ATOM      5  N   UNL d   1      33.094  17.713 -22.239  0.00  0.00    -0.126 NA
ENDROOT
BRANCH   2   6
ATOM      6  S   UNL d   1      33.207  19.828 -21.958  0.00  0.00    -0.043 SA
BRANCH   6   7
ATOM      7  C   UNL d   1      33.221  20.001 -21.148  0.00  0.00     0.101 C 
BRANCH   7   8
ATOM      8  C   UNL d   1      33.151  20.771 -20.887  0.00  0.00     0.286 C 
ATOM      9  N   UNL d   1      33.181  20.940 -20.082  0.00  0.00    -0.208 NA
ATOM     10  O   UNL d   1      33.049  21.388 -21.433  0.00  0.00    -0.265 OA
BRANCH   9  11
ATOM     11  C   UNL d   1      33.110  21.720 -19.819  0.00  0.00     0.085 A 
ATOM     12  C   UNL d   1      33.139  21.893 -19.021  0.00  0.00     0.018 A 
ATOM     13  C   UNL d   1      33.068  22.673 -18.757  0.00  0.00     0.002 A 
ATOM     14  C   UNL d   1      33.240  21.290 -18.470  0.00  0.00     0.002 C 
ATOM     15  C   UNL d   1      32.967  23.279 -19.311  0.00  0.00     0.000 A 
ATOM     16  C   UNL d   1      32.936  23.105 -20.129  0.00  0.00     0.002 A 
ATOM     17  C   UNL d   1      33.009  22.320 -20.372  0.00  0.00     0.019 A 
ATOM     18  C   UNL d   1      32.837  23.699 -20.666  0.00  0.00     0.000 C 
ENDBRANCH   9  11
ENDBRANCH   7   8
ENDBRANCH   6   7
ENDBRANCH   2   6
BRANCH   1  19
ATOM     19  C   UNL d   1      32.732  19.316 -23.606  0.00  0.00     0.090 A 
ATOM     20  C   UNL d   1      32.050  19.780 -23.581  0.00  0.00     0.110 A 
ATOM     21  C   UNL d   1      31.876  20.281 -24.211  0.00  0.00     0.026 A 
ATOM     22  C   UNL d   1      32.384  20.318 -24.866  0.00  0.00     0.002 A 
ATOM     23  C   UNL d   1      33.068  19.844 -24.879  0.00  0.00     0.002 A 
ATOM     24  C   UNL d   1      33.239  19.345 -24.247  0.00  0.00     0.020 A 
BRANCH  20  25
ATOM     25  O   UNL d   1      31.544  19.749 -22.937  0.00  0.00    -0.327 OA
ATOM     26  C   UNL d   1      30.976  20.330 -22.821  0.00  0.00     0.181 C 
ENDBRANCH  20  25
ENDBRANCH   1  19
BRANCH   3  27
ATOM     27  C   UNL d   1      32.691  17.520 -23.650  0.00  0.00     0.141 C 
BRANCH  27  28
ATOM     28  N   UNL d   1      31.946  17.168 -23.699  0.00  0.00    -0.202 NA
ATOM     29  C   UNL d   1      31.864  16.440 -24.086  0.00  0.00     0.302 C 
ATOM     30  O   UNL d   1      32.529  16.076 -24.419  0.00  0.00    -0.263 OA
BRANCH  29  31
ATOM     31  C   UNL d   1      31.122  16.076 -24.142  0.00  0.00     0.158 A 
ATOM     32  O   UNL d   1      30.763  15.846 -24.842  0.00  0.00    -0.300 OA
ATOM     33  C   UNL d   1      30.034  15.507 -24.656  0.00  0.00     0.123 A 
ATOM     34  C   UNL d   1      29.954  15.535 -23.829  0.00  0.00     0.029 A 
ATOM     35  C   UNL d   1      30.630  15.888 -23.515  0.00  0.00     0.032 A 
ENDBRANCH  29  31
ENDBRANCH  27  28
ENDBRANCH   3  27
TORSDOF 9
ENDMDL
