MODEL 1
REMARK VINA RESULT:      -8.6      0.000      0.000
REMARK  2 active torsions:
REMARK  status: ('A' for Active; 'I' for Inactive)
REMARK    1  A    between atoms: N_7  and  C_3 
REMARK       I    between atoms: C_8  and  N_7 
REMARK    2  A    between atoms: C_9  and  C_8 
ROOT
ATOM      1  N   UNL d   1     -48.187  13.461  23.027  0.00  0.00    -0.190 NA
ATOM      2  C   UNL d   1     -48.533  13.742  22.334  0.00  0.00     0.281 C 
ATOM      3  O   UNL d   1     -48.132  13.677  21.616  0.00  0.00    -0.265 OA
ENDROOT
BRANCH   1   4
ATOM      4  C   UNL d   1     -47.436  13.114  23.003  0.00  0.00     0.159 A 
ATOM      5  N   UNL d   1     -47.312  12.373  23.337  0.00  0.00    -0.241 N 
ATOM      6  C   UNL d   1     -46.570  12.030  23.313  0.00  0.00     0.343 A 
ATOM      7  C   UNL d   1     -47.940  11.975  23.698  0.00  0.00     0.105 C 
ATOM      8  N   UNL d   1     -45.943  12.428  22.953  0.00  0.00    -0.224 N 
ATOM      9  O   UNL d   1     -46.446  11.284  23.649  0.00  0.00    -0.245 OA
ATOM     10  C   UNL d   1     -46.052  13.174  22.612  0.00  0.00     0.271 A 
ATOM     11  C   UNL d   1     -45.192  12.080  22.929  0.00  0.00     0.107 C 
ATOM     12  C   UNL d   1     -46.810  13.512  22.643  0.00  0.00     0.099 A 
ATOM     13  O   UNL d   1     -45.431  13.568  22.255  0.00  0.00    -0.266 OA
ENDBRANCH   1   4
BRANCH   2  14
ATOM     14  C   UNL d   1     -49.281  14.088  22.360  0.00  0.00     0.069 A 
ATOM     15  C   UNL d   1     -49.841  13.846  21.840  0.00  0.00     0.062 A 
ATOM     16  C   UNL d   1     -50.589  14.180  21.852  0.00  0.00     0.012 A 
ATOM     17 CL   UNL d   1     -49.666  13.253  21.282  0.00  0.00    -0.082 Cl
ATOM     18  C   UNL d   1     -50.766  14.768  22.403  0.00  0.00     0.008 A 
ATOM     19  C   UNL d   1     -50.192  15.007  22.927  0.00  0.00     0.035 A 
ATOM     20  C   UNL d   1     -49.440  14.675  22.918  0.00  0.00     0.012 A 
ATOM     21 BR   UNL d   1     -50.379  15.606  23.485  0.00  0.00    -0.049 Br
ENDBRANCH   2  14
TORSDOF 2
ENDMDL
MODEL 2
REMARK VINA RESULT:      -8.0      0.881      1.461
REMARK  2 active torsions:
REMARK  status: ('A' for Active; 'I' for Inactive)
REMARK    1  A    between atoms: N_7  and  C_3 
REMARK       I    between atoms: C_8  and  N_7 
REMARK    2  A    between atoms: C_9  and  C_8 
ROOT
ATOM      1  N   UNL d   1     -48.346  13.405  23.044  0.00  0.00    -0.190 NA
ATOM      2  C   UNL d   1     -49.123  13.199  22.862  0.00  0.00     0.281 C 
ATOM      3  O   UNL d   1     -49.343  12.404  22.834  0.00  0.00    -0.265 OA
ENDROOT
BRANCH   1   4
ATOM      4  C   UNL d   1     -47.787  12.816  23.200  0.00  0.00     0.159 A 
ATOM      5  N   UNL d   1     -46.984  12.993  23.185  0.00  0.00    -0.241 N 
ATOM      6  C   UNL d   1     -46.432  12.409  23.339  0.00  0.00     0.343 A 
ATOM      7  C   UNL d   1     -46.736  13.762  23.014  0.00  0.00     0.105 C 
ATOM      8  N   UNL d   1     -46.680  11.641  23.510  0.00  0.00    -0.224 N 
ATOM      9  O   UNL d   1     -45.624  12.588  23.324  0.00  0.00    -0.245 OA
ATOM     10  C   UNL d   1     -47.483  11.447  23.529  0.00  0.00     0.271 A 
ATOM     11  C   UNL d   1     -46.120  11.051  23.666  0.00  0.00     0.107 C 
ATOM     12  C   UNL d   1     -48.035  12.048  23.371  0.00  0.00     0.099 A 
ATOM     13  O   UNL d   1     -47.729  10.687  23.698  0.00  0.00    -0.266 OA
ENDBRANCH   1   4
BRANCH   2  14
ATOM     14  C   UNL d   1     -49.679  13.787  22.707  0.00  0.00     0.069 A 
ATOM     15  C   UNL d   1     -50.059  13.789  22.002  0.00  0.00     0.062 A 
ATOM     16  C   UNL d   1     -50.614  14.367  21.832  0.00  0.00     0.012 A 
ATOM     17 CL   UNL d   1     -49.892  13.203  21.434  0.00  0.00    -0.082 Cl
ATOM     18  C   UNL d   1     -50.783  14.949  22.392  0.00  0.00     0.008 A 
ATOM     19  C   UNL d   1     -50.393  14.940  23.105  0.00  0.00     0.035 A 
ATOM     20  C   UNL d   1     -49.835  14.362  23.279  0.00  0.00     0.012 A 
ATOM     21 BR   UNL d   1     -50.569  15.536  23.670  0.00  0.00    -0.049 Br
ENDBRANCH   2  14
TORSDOF 2
ENDMDL
MODEL 3
REMARK VINA RESULT:      -7.0      2.218      3.754
REMARK  2 active torsions:
REMARK  status: ('A' for Active; 'I' for Inactive)
REMARK    1  A    between atoms: N_7  and  C_3 
REMARK       I    between atoms: C_8  and  N_7 
REMARK    2  A    between atoms: C_9  and  C_8 
ROOT
ATOM      1  N   UNL d   1     -47.878  12.936  23.230  0.00  0.00    -0.190 NA
ATOM      2  C   UNL d   1     -47.634  13.407  22.598  0.00  0.00     0.281 C 
ATOM      3  O   UNL d   1     -48.185  13.675  22.046  0.00  0.00    -0.265 OA
ENDROOT
BRANCH   1   4
ATOM      4  C   UNL d   1     -48.676  12.733  23.309  0.00  0.00     0.159 A 
ATOM      5  N   UNL d   1     -48.891  11.955  23.464  0.00  0.00    -0.241 N 
ATOM      6  C   UNL d   1     -49.681  11.754  23.543  0.00  0.00     0.343 A 
ATOM      7  C   UNL d   1     -48.309  11.374  23.539  0.00  0.00     0.105 C 
ATOM      8  N   UNL d   1     -50.263  12.334  23.467  0.00  0.00    -0.224 N 
ATOM      9  O   UNL d   1     -49.896  10.970  23.698  0.00  0.00    -0.245 OA
ATOM     10  C   UNL d   1     -50.063  13.121  23.312  0.00  0.00     0.271 A 
ATOM     11  C   UNL d   1     -51.061  12.131  23.547  0.00  0.00     0.107 C 
ATOM     12  C   UNL d   1     -49.258  13.313  23.234  0.00  0.00     0.099 A 
ATOM     13  O   UNL d   1     -50.639  13.695  23.238  0.00  0.00    -0.266 OA
ENDBRANCH   1   4
BRANCH   2  14
ATOM     14  C   UNL d   1     -46.838  13.608  22.520  0.00  0.00     0.069 A 
ATOM     15  C   UNL d   1     -46.609  14.358  22.684  0.00  0.00     0.062 A 
ATOM     16  C   UNL d   1     -45.821  14.575  22.610  0.00  0.00     0.012 A 
ATOM     17 CL   UNL d   1     -47.168  14.924  22.929  0.00  0.00    -0.082 Cl
ATOM     18  C   UNL d   1     -45.264  14.017  22.367  0.00  0.00     0.008 A 
ATOM     19  C   UNL d   1     -45.506  13.259  22.203  0.00  0.00     0.035 A 
ATOM     20  C   UNL d   1     -46.295  13.037  22.275  0.00  0.00     0.012 A 
ATOM     21 BR   UNL d   1     -44.934  12.696  21.956  0.00  0.00    -0.049 Br
ENDBRANCH   2  14
TORSDOF 2
ENDMDL
MODEL 4
REMARK VINA RESULT:      -6.4      9.142      9.878
REMARK  2 active torsions:
REMARK  status: ('A' for Active; 'I' for Inactive)
REMARK    1  A    between atoms: N_7  and  C_3 
REMARK       I    between atoms: C_8  and  N_7 
REMARK    2  A    between atoms: C_9  and  C_8 
ROOT
ATOM      1  N   UNL d   1     -39.102  14.664  19.943  0.00  0.00    -0.190 NA
ATOM      2  C   UNL d   1     -39.585  14.588  20.606  0.00  0.00     0.281 C 
ATOM      3  O   UNL d   1     -40.406  14.604  20.524  0.00  0.00    -0.265 OA
ENDROOT
BRANCH   1   4
ATOM      4  C   UNL d   1     -39.441  14.757  19.193  0.00  0.00     0.159 A 
ATOM      5  N   UNL d   1     -39.119  15.291  18.658  0.00  0.00    -0.241 N 
ATOM      6  C   UNL d   1     -39.454  15.382  17.916  0.00  0.00     0.343 A 
ATOM      7  C   UNL d   1     -38.457  15.736  18.869  0.00  0.00     0.105 C 
ATOM      8  N   UNL d   1     -40.116  14.937  17.706  0.00  0.00    -0.224 N 
ATOM      9  O   UNL d   1     -39.130  15.920  17.378  0.00  0.00    -0.245 OA
ATOM     10  C   UNL d   1     -40.451  14.396  18.234  0.00  0.00     0.271 A 
ATOM     11  C   UNL d   1     -40.455  15.030  16.956  0.00  0.00     0.107 C 
ATOM     12  C   UNL d   1     -40.103  14.312  18.983  0.00  0.00     0.099 A 
ATOM     13  O   UNL d   1     -41.107  13.955  18.025  0.00  0.00    -0.266 OA
ENDBRANCH   1   4
BRANCH   2  14
ATOM     14  C   UNL d   1     -39.247  14.496  21.353  0.00  0.00     0.069 A 
ATOM     15  C   UNL d   1     -39.393  15.044  21.918  0.00  0.00     0.062 A 
ATOM     16  C   UNL d   1     -39.064  14.967  22.664  0.00  0.00     0.012 A 
ATOM     17 CL   UNL d   1     -39.882  15.698  21.751  0.00  0.00    -0.082 Cl
ATOM     18  C   UNL d   1     -38.580  14.321  22.833  0.00  0.00     0.008 A 
ATOM     19  C   UNL d   1     -38.436  13.769  22.254  0.00  0.00     0.035 A 
ATOM     20  C   UNL d   1     -38.765  13.843  21.504  0.00  0.00     0.012 A 
ATOM     21 BR   UNL d   1     -37.943  13.114  22.433  0.00  0.00    -0.049 Br
ENDBRANCH   2  14
TORSDOF 2
ENDMDL
