MODEL 1
REMARK VINA RESULT:      68.2      0.000      0.000
REMARK  10 active torsions:
REMARK  status: ('A' for Active; 'I' for Inactive)
REMARK    1  A    between atoms: C_14  and  N_1 
REMARK    2  A    between atoms: C_7  and  N_3 
REMARK    3  A    between atoms: C_9  and  C_7 
REMARK       I    between atoms: N_18  and  C_9 
REMARK    4  A    between atoms: C_11  and  C_24 
REMARK       I    between atoms: N_12  and  C_11 
REMARK    5  A    between atoms: C_21  and  N_12 
REMARK    6  A    between atoms: C_13  and  C_25 
REMARK    7  A    between atoms: C_23  and  C_14 
REMARK    8  A    between atoms: C_22  and  N_18 
REMARK    9  A    between atoms: C_25  and  C_22 
REMARK   10  A    between atoms: C_24  and  C_23 
ROOT
ATOM      1  N   UNL d   1     -54.793-100.030 -43.188  0.00  0.00    -0.226 N 
ATOM      2  C   UNL d   1     -54.838-100.739 -42.768  0.00  0.00     0.342 A 
ATOM      3  N   UNL d   1     -54.853-101.460 -43.177  0.00  0.00    -0.254 N 
ATOM      4  C   UNL d   1     -54.764-100.043 -44.017  0.00  0.00     0.270 A 
ATOM      5  C   UNL d   1     -54.780-100.761 -44.420  0.00  0.00     0.073 A 
ATOM      6  C   UNL d   1     -54.824-101.470 -44.000  0.00  0.00     0.073 A 
ATOM      7  O   UNL d   1     -54.867-100.731 -41.939  0.00  0.00    -0.245 OA
ATOM      8  O   UNL d   1     -54.719 -99.334 -44.437  0.00  0.00    -0.266 OA
ATOM      9  C   UNL d   1     -54.751-100.770 -45.243  0.00  0.00     0.006 A 
ATOM     10  C   UNL d   1     -54.840-102.187 -44.403  0.00  0.00     0.018 A 
ATOM     11  C   UNL d   1     -54.766-101.488 -45.646  0.00  0.00     0.000 A 
ATOM     12  C   UNL d   1     -54.811-102.197 -45.226  0.00  0.00     0.002 A 
ENDROOT
BRANCH   3  13
ATOM     13  C   UNL d   1     -54.898-102.169 -42.757  0.00  0.00     0.147 C 
BRANCH  13  14
ATOM     14  C   UNL d   1     -54.897-102.151 -41.931  0.00  0.00     0.297 C 
ATOM     15  O   UNL d   1     -55.073-101.455 -41.527  0.00  0.00    -0.264 OA
ATOM     16  N   UNL d   1     -54.716-102.838 -41.497  0.00  0.00    -0.205 NA
BRANCH  16  17
ATOM     17  C   UNL d   1     -54.712-102.828 -40.669  0.00  0.00     0.102 C 
BRANCH  17  18
ATOM     18  C   UNL d   1     -55.166-102.273 -40.262  0.00  0.00     0.021 C 
BRANCH  18  19
ATOM     19  C   UNL d   1     -55.392-102.412 -39.481  0.00  0.00     0.002 A 
ATOM     20  C   UNL d   1     -56.130-102.741 -39.314  0.00  0.00     0.000 A 
ATOM     21  C   UNL d   1     -56.354-102.879 -38.537  0.00  0.00     0.000 A 
ATOM     22  C   UNL d   1     -55.838-102.688 -37.920  0.00  0.00     0.000 A 
ATOM     23  C   UNL d   1     -55.100-102.359 -38.088  0.00  0.00     0.000 A 
ATOM     24  C   UNL d   1     -54.874-102.219 -38.869  0.00  0.00     0.000 A 
ENDBRANCH  18  19
ENDBRANCH  17  18
ENDBRANCH  16  17
ENDBRANCH  13  14
ENDBRANCH   3  13
BRANCH   1  25
ATOM     25  C   UNL d   1     -54.778 -99.309 -42.782  0.00  0.00     0.088 C 
BRANCH  25  26
ATOM     26  C   UNL d   1     -55.449 -98.831 -42.750  0.00  0.00     0.024 C 
BRANCH  26  27
ATOM     27  C   UNL d   1     -56.122 -99.077 -42.346  0.00  0.00     0.064 C 
BRANCH  27  28
ATOM     28  C   UNL d   1     -56.849 -99.123 -42.750  0.00  0.00     0.279 C 
ATOM     29  N   UNL d   1     -56.928 -98.773 -43.493  0.00  0.00    -0.208 NA
ATOM     30  O   UNL d   1     -57.491 -99.515 -42.414  0.00  0.00    -0.265 OA
BRANCH  29  31
ATOM     31  C   UNL d   1     -57.642 -98.810 -43.906  0.00  0.00     0.085 A 
ATOM     32  C   UNL d   1     -58.434 -98.764 -43.669  0.00  0.00     0.019 A 
ATOM     33  C   UNL d   1     -58.906 -98.838 -44.338  0.00  0.00     0.002 A 
ATOM     34  C   UNL d   1     -58.412 -98.929 -44.993  0.00  0.00     0.002 A 
ATOM     35  C   UNL d   1     -57.635 -98.912 -44.734  0.00  0.00     0.019 A 
ENDBRANCH  29  31
ENDBRANCH  27  28
ENDBRANCH  26  27
ENDBRANCH  25  26
ENDBRANCH   1  25
TORSDOF 10
ENDMDL
