MODEL 1
REMARK VINA RESULT:      65.4      0.000      0.000
REMARK  3 active torsions:
REMARK  status: ('A' for Active; 'I' for Inactive)
REMARK    1  A    between atoms: N_6  and  C_2 
REMARK    2  A    between atoms: C_8  and  C_5 
REMARK    3  A    between atoms: C_9  and  N_7 
ROOT
ATOM      1  N   UNL d   1     -49.685  27.028  34.251  0.00  0.00    -0.281 N 
ATOM      2  N   UNL d   1     -48.765  28.275  34.788  0.00  0.00    -0.301 N 
ATOM      3  C   UNL d   1     -49.717  27.245  35.047  0.00  0.00     0.101 A 
ATOM      4  C   UNL d   1     -49.191  27.438  33.724  0.00  0.00     0.101 A 
ATOM      5  C   UNL d   1     -48.738  28.056  34.002  0.00  0.00     0.100 A 
ATOM      6  C   UNL d   1     -49.258  27.864  35.310  0.00  0.00     0.100 A 
ENDROOT
BRANCH   1   7
ATOM      7  C   UNL d   1     -50.150  26.399  33.982  0.00  0.00     0.183 A 
ATOM      8  N   UNL d   1     -49.889  25.647  33.789  0.00  0.00    -0.183 NA
ATOM      9  C   UNL d   1     -50.541  25.199  33.547  0.00  0.00     0.287 A 
ATOM     10  C   UNL d   1     -51.208  25.687  33.594  0.00  0.00     0.090 A 
ATOM     11  O   UNL d   1     -50.527  24.419  33.306  0.00  0.00    -0.265 OA
ATOM     12  S   UNL d   1     -50.972  26.427  33.862  0.00  0.00    -0.045 SA
BRANCH  10  13
ATOM     13  C   UNL d   1     -51.977  25.461  33.403  0.00  0.00     0.011 C 
ATOM     14  C   UNL d   1     -52.171  24.663  33.306  0.00  0.00     0.001 C 
ATOM     15  C   UNL d   1     -52.562  26.036  33.306  0.00  0.00     0.001 C 
ENDBRANCH  10  13
ENDBRANCH   1   7
BRANCH   2  16
ATOM     16  C   UNL d   1     -48.301  28.904  35.061  0.00  0.00     0.064 A 
ATOM     17  C   UNL d   1     -47.812  28.794  35.716  0.00  0.00     0.018 A 
ATOM     18  C   UNL d   1     -47.349  29.425  35.987  0.00  0.00     0.002 A 
ATOM     19  C   UNL d   1     -47.376  30.154  35.607  0.00  0.00     0.000 A 
ATOM     20  C   UNL d   1     -47.870  30.256  34.949  0.00  0.00     0.002 A 
ATOM     21  C   UNL d   1     -46.914  30.782  35.878  0.00  0.00     0.000 C 
ATOM     22  C   UNL d   1     -48.334  29.627  34.675  0.00  0.00     0.018 A 
ENDBRANCH   2  16
TORSDOF 3
ENDMDL
MODEL 2
REMARK VINA RESULT:      67.4      1.740      5.198
REMARK  3 active torsions:
REMARK  status: ('A' for Active; 'I' for Inactive)
REMARK    1  A    between atoms: N_6  and  C_2 
REMARK    2  A    between atoms: C_8  and  C_5 
REMARK    3  A    between atoms: C_9  and  N_7 
ROOT
ATOM      1  N   UNL d   1     -49.460  27.908  34.271  0.00  0.00    -0.281 N 
ATOM      2  N   UNL d   1     -50.409  26.608  33.954  0.00  0.00    -0.301 N 
ATOM      3  C   UNL d   1     -49.864  27.864  33.553  0.00  0.00     0.101 A 
ATOM      4  C   UNL d   1     -49.532  27.298  34.831  0.00  0.00     0.101 A 
ATOM      5  C   UNL d   1     -50.006  26.658  34.663  0.00  0.00     0.100 A 
ATOM      6  C   UNL d   1     -50.334  27.218  33.399  0.00  0.00     0.100 A 
ENDROOT
BRANCH   1   7
ATOM      7  C   UNL d   1     -48.982  28.564  34.429  0.00  0.00     0.183 A 
ATOM      8  N   UNL d   1     -49.066  29.316  34.116  0.00  0.00    -0.183 NA
ATOM      9  C   UNL d   1     -48.468  29.796  34.426  0.00  0.00     0.287 A 
ATOM     10  C   UNL d   1     -48.014  29.327  34.935  0.00  0.00     0.090 A 
ATOM     11  O   UNL d   1     -48.349  30.587  34.259  0.00  0.00    -0.265 OA
ATOM     12  S   UNL d   1     -48.326  28.568  34.940  0.00  0.00    -0.045 SA
BRANCH  10  13
ATOM     13  C   UNL d   1     -47.358  29.587  35.362  0.00  0.00     0.011 C 
ATOM     14  C   UNL d   1     -47.428  30.202  35.910  0.00  0.00     0.001 C 
ATOM     15  C   UNL d   1     -46.623  29.231  35.242  0.00  0.00     0.001 C 
ENDBRANCH  10  13
ENDBRANCH   1   7
BRANCH   2  16
ATOM     16  C   UNL d   1     -50.889  25.953  33.792  0.00  0.00     0.064 A 
ATOM     17  C   UNL d   1     -51.699  25.998  33.937  0.00  0.00     0.018 A 
ATOM     18  C   UNL d   1     -52.176  25.341  33.774  0.00  0.00     0.002 A 
ATOM     19  C   UNL d   1     -51.846  24.651  33.471  0.00  0.00     0.000 A 
ATOM     20  C   UNL d   1     -51.030  24.616  33.328  0.00  0.00     0.002 A 
ATOM     21  C   UNL d   1     -52.323  23.997  33.309  0.00  0.00     0.000 C 
ATOM     22  C   UNL d   1     -50.550  25.270  33.490  0.00  0.00     0.018 A 
ENDBRANCH   2  16
TORSDOF 3
ENDMDL
MODEL 3
REMARK VINA RESULT:      67.9      2.006      5.210
REMARK  3 active torsions:
REMARK  status: ('A' for Active; 'I' for Inactive)
REMARK    1  A    between atoms: N_6  and  C_2 
REMARK    2  A    between atoms: C_8  and  C_5 
REMARK    3  A    between atoms: C_9  and  N_7 
ROOT
ATOM      1  N   UNL d   1     -48.800  28.647  34.717  0.00  0.00    -0.281 N 
ATOM      2  N   UNL d   1     -49.715  27.368  34.252  0.00  0.00    -0.301 N 
ATOM      3  C   UNL d   1     -49.198  28.672  33.994  0.00  0.00     0.101 A 
ATOM      4  C   UNL d   1     -48.862  27.978  35.207  0.00  0.00     0.101 A 
ATOM      5  C   UNL d   1     -49.319  27.349  34.966  0.00  0.00     0.100 A 
ATOM      6  C   UNL d   1     -49.651  28.035  33.766  0.00  0.00     0.100 A 
ENDROOT
BRANCH   1   7
ATOM      7  C   UNL d   1     -48.339  29.293  34.950  0.00  0.00     0.183 A 
ATOM      8  N   UNL d   1     -47.806  29.313  35.572  0.00  0.00    -0.183 NA
ATOM      9  C   UNL d   1     -47.471  30.068  35.604  0.00  0.00     0.287 A 
ATOM     10  C   UNL d   1     -47.805  30.513  34.990  0.00  0.00     0.090 A 
ATOM     11  O   UNL d   1     -46.912  30.326  36.141  0.00  0.00    -0.265 OA
ATOM     12  S   UNL d   1     -48.340  30.040  34.585  0.00  0.00    -0.045 SA
BRANCH  10  13
ATOM     13  C   UNL d   1     -47.626  31.300  34.821  0.00  0.00     0.011 C 
ATOM     14  C   UNL d   1     -48.063  31.721  34.260  0.00  0.00     0.001 C 
ATOM     15  C   UNL d   1     -47.003  31.672  35.215  0.00  0.00     0.001 C 
ENDBRANCH  10  13
ENDBRANCH   1   7
BRANCH   2  16
ATOM     16  C   UNL d   1     -50.178  26.723  34.015  0.00  0.00     0.064 A 
ATOM     17  C   UNL d   1     -49.841  26.131  33.550  0.00  0.00     0.018 A 
ATOM     18  C   UNL d   1     -50.306  25.488  33.315  0.00  0.00     0.002 A 
ATOM     19  C   UNL d   1     -51.095  25.438  33.542  0.00  0.00     0.000 A 
ATOM     20  C   UNL d   1     -51.425  26.038  34.010  0.00  0.00     0.002 A 
ATOM     21  C   UNL d   1     -51.558  24.797  33.307  0.00  0.00     0.000 C 
ATOM     22  C   UNL d   1     -50.964  26.684  34.247  0.00  0.00     0.018 A 
ENDBRANCH   2  16
TORSDOF 3
ENDMDL
