MODEL 1
REMARK VINA RESULT:      -2.8      0.000      0.000
REMARK  4 active torsions:
REMARK  status: ('A' for Active; 'I' for Inactive)
REMARK    1  A    between atoms: N_10  and  C_3 
REMARK    2  A    between atoms: C_11  and  C_5 
REMARK    3  A    between atoms: C_13  and  N_10 
REMARK    4  A    between atoms: C_19  and  C_13 
ROOT
ATOM      1  N   UNL d   1      31.262  17.677 -24.434  0.00  0.00    -0.195 N 
ATOM      2  C   UNL d   1      30.687  17.082 -24.281  0.00  0.00     0.167 A 
ATOM      3  C   UNL d   1      32.053  17.551 -24.214  0.00  0.00     0.167 A 
ATOM      4  N   UNL d   1      30.255  18.500 -25.017  0.00  0.00    -0.163 NA
ATOM      5  C   UNL d   1      29.915  17.204 -24.496  0.00  0.00     0.055 A 
ATOM      6  N   UNL d   1      30.923  16.380 -23.913  0.00  0.00    -0.227 NA
ATOM      7  C   UNL d   1      32.270  16.854 -23.851  0.00  0.00     0.054 A 
ATOM      8  C   UNL d   1      29.689  17.913 -24.866  0.00  0.00     0.104 A 
ATOM      9  C   UNL d   1      31.701  16.254 -23.695  0.00  0.00     0.086 A 
ATOM     10  C   UNL d   1      32.985  16.577 -23.578  0.00  0.00     0.005 A 
ATOM     11  C   UNL d   1      28.905  18.028 -25.080  0.00  0.00     0.023 C 
ATOM     12  C   UNL d   1      32.080  15.622 -23.329  0.00  0.00     0.019 A 
ATOM     13  C   UNL d   1      32.885  15.828 -23.257  0.00  0.00     0.002 A 
ENDROOT
BRANCH   5  14
ATOM     14  C   UNL d   1      29.352  16.620 -24.345  0.00  0.00     0.004 A 
ATOM     15  C   UNL d   1      28.943  16.612 -23.629  0.00  0.00     0.000 A 
ATOM     16  C   UNL d   1      28.382  16.034 -23.476  0.00  0.00     0.000 A 
ATOM     17  C   UNL d   1      28.225  15.453 -24.045  0.00  0.00     0.000 A 
ATOM     18  C   UNL d   1      28.624  15.453 -24.755  0.00  0.00     0.000 A 
ATOM     19  C   UNL d   1      29.193  16.042 -24.906  0.00  0.00     0.000 A 
ENDBRANCH   5  14
BRANCH   3  20
ATOM     20  N   UNL d   1      32.637  18.150 -24.367  0.00  0.00    -0.225 NA
BRANCH  20  21
ATOM     21  C   UNL d   1      33.238  18.674 -24.092  0.00  0.00     0.101 C 
BRANCH  21  22
ATOM     22  C   UNL d   1      33.198  19.499 -24.259  0.00  0.00     0.019 C 
ATOM     23  C   UNL d   1      33.240  19.772 -25.061  0.00  0.00     0.002 C 
ATOM     24  C   UNL d   1      33.114  20.055 -23.620  0.00  0.00     0.002 C 
ENDBRANCH  21  22
ENDBRANCH  20  21
ENDBRANCH   3  20
TORSDOF 4
ENDMDL
MODEL 2
REMARK VINA RESULT:      -0.5      2.585      4.170
REMARK  4 active torsions:
REMARK  status: ('A' for Active; 'I' for Inactive)
REMARK    1  A    between atoms: N_10  and  C_3 
REMARK    2  A    between atoms: C_11  and  C_5 
REMARK    3  A    between atoms: C_13  and  N_10 
REMARK    4  A    between atoms: C_19  and  C_13 
ROOT
ATOM      1  N   UNL d   1      32.930  20.503 -23.017  0.00  0.00    -0.195 N 
ATOM      2  C   UNL d   1      32.867  19.664 -22.981  0.00  0.00     0.167 A 
ATOM      3  C   UNL d   1      33.053  20.936 -22.319  0.00  0.00     0.167 A 
ATOM      4  N   UNL d   1      32.750  20.456 -24.430  0.00  0.00    -0.163 NA
ATOM      5  C   UNL d   1      32.748  19.240 -23.662  0.00  0.00     0.055 A 
ATOM      6  N   UNL d   1      32.928  19.287 -22.248  0.00  0.00    -0.227 NA
ATOM      7  C   UNL d   1      33.111  20.550 -21.603  0.00  0.00     0.054 A 
ATOM      8  C   UNL d   1      32.688  19.630 -24.395  0.00  0.00     0.104 A 
ATOM      9  C   UNL d   1      33.049  19.711 -21.560  0.00  0.00     0.086 A 
ATOM     10  C   UNL d   1      33.227  20.817 -20.843  0.00  0.00     0.005 A 
ATOM     11  C   UNL d   1      32.567  19.193 -25.079  0.00  0.00     0.023 C 
ATOM     12  C   UNL d   1      33.129  19.483 -20.773  0.00  0.00     0.019 A 
ATOM     13  C   UNL d   1      33.241  20.178 -20.327  0.00  0.00     0.002 A 
ENDROOT
BRANCH   5  14
ATOM     14  C   UNL d   1      32.686  18.418 -23.627  0.00  0.00     0.004 A 
ATOM     15  C   UNL d   1      32.064  18.066 -23.214  0.00  0.00     0.000 A 
ATOM     16  C   UNL d   1      31.999  17.250 -23.177  0.00  0.00     0.000 A 
ATOM     17  C   UNL d   1      32.562  16.775 -23.556  0.00  0.00     0.000 A 
ATOM     18  C   UNL d   1      33.178  17.114 -23.966  0.00  0.00     0.000 A 
ATOM     19  C   UNL d   1      33.241  17.944 -24.002  0.00  0.00     0.000 A 
ENDBRANCH   5  14
BRANCH   3  20
ATOM     20  N   UNL d   1      33.117  21.783 -22.351  0.00  0.00    -0.225 NA
BRANCH  20  21
ATOM     21  C   UNL d   1      33.228  22.492 -22.794  0.00  0.00     0.101 C 
BRANCH  21  22
ATOM     22  C   UNL d   1      32.877  23.216 -22.540  0.00  0.00     0.019 C 
ATOM     23  C   UNL d   1      33.040  23.516 -21.764  0.00  0.00     0.002 C 
ATOM     24  C   UNL d   1      32.360  23.641 -23.066  0.00  0.00     0.002 C 
ENDBRANCH  21  22
ENDBRANCH  20  21
ENDBRANCH   3  20
TORSDOF 4
ENDMDL
MODEL 3
REMARK VINA RESULT:      -0.2      3.233      5.876
REMARK  4 active torsions:
REMARK  status: ('A' for Active; 'I' for Inactive)
REMARK    1  A    between atoms: N_10  and  C_3 
REMARK    2  A    between atoms: C_11  and  C_5 
REMARK    3  A    between atoms: C_13  and  N_10 
REMARK    4  A    between atoms: C_19  and  C_13 
ROOT
ATOM      1  N   UNL d   1      32.910  21.157 -22.703  0.00  0.00    -0.195 N 
ATOM      2  C   UNL d   1      32.815  21.600 -21.993  0.00  0.00     0.167 A 
ATOM      3  C   UNL d   1      33.051  20.339 -22.660  0.00  0.00     0.167 A 
ATOM      4  N   UNL d   1      32.724  22.343 -23.470  0.00  0.00    -0.163 NA
ATOM      5  C   UNL d   1      32.677  22.398 -22.034  0.00  0.00     0.055 A 
ATOM      6  N   UNL d   1      32.864  21.211 -21.266  0.00  0.00    -0.227 NA
ATOM      7  C   UNL d   1      33.097  19.970 -21.935  0.00  0.00     0.054 A 
ATOM      8  C   UNL d   1      32.630  22.780 -22.771  0.00  0.00     0.104 A 
ATOM      9  C   UNL d   1      33.002  20.407 -21.222  0.00  0.00     0.086 A 
ATOM     10  C   UNL d   1      33.226  19.195 -21.721  0.00  0.00     0.005 A 
ATOM     11  C   UNL d   1      32.490  23.588 -22.803  0.00  0.00     0.023 C 
ATOM     12  C   UNL d   1      33.076  19.890 -20.586  0.00  0.00     0.019 A 
ATOM     13  C   UNL d   1      33.216  19.131 -20.902  0.00  0.00     0.002 A 
ENDROOT
BRANCH   5  14
ATOM     14  C   UNL d   1      32.584  22.833 -21.339  0.00  0.00     0.004 A 
ATOM     15  C   UNL d   1      33.235  23.195 -20.985  0.00  0.00     0.000 A 
ATOM     16  C   UNL d   1      33.146  23.628 -20.294  0.00  0.00     0.000 A 
ATOM     17  C   UNL d   1      32.397  23.702 -19.949  0.00  0.00     0.000 A 
ATOM     18  C   UNL d   1      31.749  23.348 -20.291  0.00  0.00     0.000 A 
ATOM     19  C   UNL d   1      31.843  22.909 -20.993  0.00  0.00     0.000 A 
ENDBRANCH   5  14
BRANCH   3  20
ATOM     20  N   UNL d   1      33.148  19.888 -23.374  0.00  0.00    -0.225 NA
BRANCH  20  21
ATOM     21  C   UNL d   1      33.131  19.838 -24.216  0.00  0.00     0.101 C 
BRANCH  21  22
ATOM     22  C   UNL d   1      32.628  19.280 -24.602  0.00  0.00     0.019 C 
ATOM     23  C   UNL d   1      32.773  18.449 -24.515  0.00  0.00     0.002 C 
ATOM     24  C   UNL d   1      31.978  19.556 -25.076  0.00  0.00     0.002 C 
ENDBRANCH  21  22
ENDBRANCH  20  21
ENDBRANCH   3  20
TORSDOF 4
ENDMDL
