MODEL 1
REMARK VINA RESULT:      -7.8      0.000      0.000
REMARK  4 active torsions:
REMARK  status: ('A' for Active; 'I' for Inactive)
REMARK    1  A    between atoms: C_11  and  N_2 
REMARK    2  A    between atoms: C_10  and  C_6 
REMARK    3  A    between atoms: C_16  and  C_9 
REMARK    4  A    between atoms: C_21  and  C_16 
ROOT
ATOM      1  C   UNL d   1     -48.571  14.403  22.757  0.00  0.00     0.143 A 
ATOM      2  N   UNL d   1     -47.397  13.747  22.883  0.00  0.00    -0.242 N 
ATOM      3  C   UNL d   1     -48.219  13.653  22.795  0.00  0.00     0.172 A 
ATOM      4  C   UNL d   1     -47.243  14.563  22.900  0.00  0.00     0.355 A 
ATOM      5  N   UNL d   1     -47.965  14.963  22.822  0.00  0.00    -0.187 NA
ATOM      6  C   UNL d   1     -49.378  14.477  22.670  0.00  0.00     0.163 A 
ATOM      7  N   UNL d   1     -48.691  12.970  22.744  0.00  0.00    -0.208 NA
ATOM      8  N   UNL d   1     -49.857  13.810  22.619  0.00  0.00    -0.220 NA
ATOM      9  C   UNL d   1     -49.513  13.056  22.656  0.00  0.00     0.164 A 
ATOM     10  O   UNL d   1     -46.494  14.909  22.980  0.00  0.00    -0.244 OA
ENDROOT
BRANCH   2  11
ATOM     11  C   UNL d   1     -46.844  13.146  22.943  0.00  0.00     0.070 A 
ATOM     12  C   UNL d   1     -46.342  12.972  22.304  0.00  0.00     0.018 A 
ATOM     13  C   UNL d   1     -45.786  12.373  22.355  0.00  0.00     0.002 A 
ATOM     14  C   UNL d   1     -45.737  11.946  23.057  0.00  0.00     0.000 A 
ATOM     15  C   UNL d   1     -46.228  12.110  23.693  0.00  0.00     0.002 A 
ATOM     16  C   UNL d   1     -45.175  11.335  23.118  0.00  0.00     0.000 C 
ATOM     17  C   UNL d   1     -46.782  12.711  23.633  0.00  0.00     0.018 A 
ENDBRANCH   2  11
BRANCH   6  18
ATOM     18  C   UNL d   1     -49.729  15.227  22.632  0.00  0.00     0.316 C 
ATOM     19  O   UNL d   1     -49.925  15.564  21.903  0.00  0.00    -0.262 OA
ATOM     20  N   UNL d   1     -49.883  15.641  23.340  0.00  0.00    -0.101 N 
ENDBRANCH   6  18
BRANCH   9  21
ATOM     21  C   UNL d   1     -49.991  12.385  22.605  0.00  0.00     0.039 C 
BRANCH  21  22
ATOM     22  C   UNL d   1     -50.333  12.061  23.287  0.00  0.00     0.003 C 
ATOM     23  C   UNL d   1     -49.931  11.469  23.697  0.00  0.00     0.000 C 
ATOM     24  C   UNL d   1     -51.062  12.333  23.542  0.00  0.00     0.000 C 
ENDBRANCH  21  22
ENDBRANCH   9  21
TORSDOF 4
ENDMDL
MODEL 2
REMARK VINA RESULT:      -7.7      1.124      3.473
REMARK  4 active torsions:
REMARK  status: ('A' for Active; 'I' for Inactive)
REMARK    1  A    between atoms: C_11  and  N_2 
REMARK    2  A    between atoms: C_10  and  C_6 
REMARK    3  A    between atoms: C_16  and  C_9 
REMARK    4  A    between atoms: C_21  and  C_16 
ROOT
ATOM      1  C   UNL d   1     -47.168  13.478  22.871  0.00  0.00     0.143 A 
ATOM      2  N   UNL d   1     -48.135  14.422  22.837  0.00  0.00    -0.242 N 
ATOM      3  C   UNL d   1     -47.977  13.617  22.984  0.00  0.00     0.172 A 
ATOM      4  C   UNL d   1     -47.413  14.779  22.631  0.00  0.00     0.355 A 
ATOM      5  N   UNL d   1     -46.822  14.198  22.653  0.00  0.00    -0.187 NA
ATOM      6  C   UNL d   1     -46.857  12.732  22.978  0.00  0.00     0.163 A 
ATOM      7  N   UNL d   1     -48.479  12.993  23.209  0.00  0.00    -0.208 NA
ATOM      8  N   UNL d   1     -47.342  12.105  23.201  0.00  0.00    -0.220 NA
ATOM      9  C   UNL d   1     -48.153  12.235  23.316  0.00  0.00     0.164 A 
ATOM     10  O   UNL d   1     -47.312  15.579  22.440  0.00  0.00    -0.244 OA
ENDROOT
BRANCH   2  11
ATOM     11  C   UNL d   1     -48.864  14.790  22.886  0.00  0.00     0.070 A 
ATOM     12  C   UNL d   1     -49.319  14.914  22.202  0.00  0.00     0.018 A 
ATOM     13  C   UNL d   1     -50.049  15.282  22.241  0.00  0.00     0.002 A 
ATOM     14  C   UNL d   1     -50.323  15.526  22.978  0.00  0.00     0.000 A 
ATOM     15  C   UNL d   1     -49.882  15.408  23.660  0.00  0.00     0.002 A 
ATOM     16  C   UNL d   1     -51.064  15.900  23.028  0.00  0.00     0.000 C 
ATOM     17  C   UNL d   1     -49.152  15.039  23.610  0.00  0.00     0.018 A 
ENDBRANCH   2  11
BRANCH   6  18
ATOM     18  C   UNL d   1     -46.049  12.594  22.865  0.00  0.00     0.316 C 
ATOM     19  O   UNL d   1     -45.554  12.435  23.509  0.00  0.00    -0.262 OA
ATOM     20  N   UNL d   1     -45.735  12.617  22.092  0.00  0.00    -0.101 N 
ENDBRANCH   6  18
BRANCH   9  21
ATOM     21  C   UNL d   1     -48.641  11.609  23.538  0.00  0.00     0.039 C 
BRANCH  21  22
ATOM     22  C   UNL d   1     -49.397  11.529  23.207  0.00  0.00     0.003 C 
ATOM     23  C   UNL d   1     -50.059  11.574  23.698  0.00  0.00     0.000 C 
ATOM     24  C   UNL d   1     -49.475  11.406  22.401  0.00  0.00     0.000 C 
ENDBRANCH  21  22
ENDBRANCH   9  21
TORSDOF 4
ENDMDL
MODEL 3
REMARK VINA RESULT:      -7.3      1.592      2.542
REMARK  4 active torsions:
REMARK  status: ('A' for Active; 'I' for Inactive)
REMARK    1  A    between atoms: C_11  and  N_2 
REMARK    2  A    between atoms: C_10  and  C_6 
REMARK    3  A    between atoms: C_16  and  C_9 
REMARK    4  A    between atoms: C_21  and  C_16 
ROOT
ATOM      1  C   UNL d   1     -49.299  12.402  22.813  0.00  0.00     0.143 A 
ATOM      2  N   UNL d   1     -47.952  12.458  22.724  0.00  0.00    -0.242 N 
ATOM      3  C   UNL d   1     -48.655  12.897  22.650  0.00  0.00     0.172 A 
ATOM      4  C   UNL d   1     -48.168  11.683  22.935  0.00  0.00     0.355 A 
ATOM      5  N   UNL d   1     -48.995  11.653  22.989  0.00  0.00    -0.187 NA
ATOM      6  C   UNL d   1     -50.061  12.689  22.781  0.00  0.00     0.163 A 
ATOM      7  N   UNL d   1     -48.784  13.695  22.451  0.00  0.00    -0.208 NA
ATOM      8  N   UNL d   1     -50.204  13.476  22.586  0.00  0.00    -0.220 NA
ATOM      9  C   UNL d   1     -49.565  13.979  22.421  0.00  0.00     0.164 A 
ATOM     10  O   UNL d   1     -47.641  11.057  23.067  0.00  0.00    -0.244 OA
ENDROOT
BRANCH   2  11
ATOM     11  C   UNL d   1     -47.190  12.737  22.610  0.00  0.00     0.070 A 
ATOM     12  C   UNL d   1     -46.859  12.754  21.849  0.00  0.00     0.018 A 
ATOM     13  C   UNL d   1     -46.098  13.031  21.725  0.00  0.00     0.002 A 
ATOM     14  C   UNL d   1     -45.670  13.294  22.377  0.00  0.00     0.000 A 
ATOM     15  C   UNL d   1     -45.988  13.281  23.133  0.00  0.00     0.002 A 
ATOM     16  C   UNL d   1     -44.896  13.578  22.261  0.00  0.00     0.000 C 
ATOM     17  C   UNL d   1     -46.750  13.002  23.247  0.00  0.00     0.018 A 
ENDBRANCH   2  11
BRANCH   6  18
ATOM     18  C   UNL d   1     -50.704  12.193  22.944  0.00  0.00     0.316 C 
ATOM     19  O   UNL d   1     -50.989  11.670  22.370  0.00  0.00    -0.262 OA
ATOM     20  N   UNL d   1     -51.063  12.226  23.696  0.00  0.00    -0.101 N 
ENDBRANCH   6  18
BRANCH   9  21
ATOM     21  C   UNL d   1     -49.705  14.768  22.226  0.00  0.00     0.039 C 
BRANCH  21  22
ATOM     22  C   UNL d   1     -49.459  15.376  22.734  0.00  0.00     0.003 C 
ATOM     23  C   UNL d   1     -49.957  15.616  23.346  0.00  0.00     0.000 C 
ATOM     24  C   UNL d   1     -48.727  15.726  22.620  0.00  0.00     0.000 C 
ENDBRANCH  21  22
ENDBRANCH   9  21
TORSDOF 4
ENDMDL
MODEL 4
REMARK VINA RESULT:      -7.1      1.894      4.374
REMARK  4 active torsions:
REMARK  status: ('A' for Active; 'I' for Inactive)
REMARK    1  A    between atoms: C_11  and  N_2 
REMARK    2  A    between atoms: C_10  and  C_6 
REMARK    3  A    between atoms: C_16  and  C_9 
REMARK    4  A    between atoms: C_21  and  C_16 
ROOT
ATOM      1  C   UNL d   1     -47.603  11.739  23.262  0.00  0.00     0.143 A 
ATOM      2  N   UNL d   1     -48.776  12.311  22.915  0.00  0.00    -0.242 N 
ATOM      3  C   UNL d   1     -47.981  12.461  23.108  0.00  0.00     0.172 A 
ATOM      4  C   UNL d   1     -48.887  11.488  22.950  0.00  0.00     0.355 A 
ATOM      5  N   UNL d   1     -48.165  11.140  23.164  0.00  0.00    -0.187 NA
ATOM      6  C   UNL d   1     -46.814  11.720  23.467  0.00  0.00     0.163 A 
ATOM      7  N   UNL d   1     -47.554  13.172  23.163  0.00  0.00    -0.208 NA
ATOM      8  N   UNL d   1     -46.380  12.417  23.525  0.00  0.00    -0.220 NA
ATOM      9  C   UNL d   1     -46.750  13.143  23.372  0.00  0.00     0.164 A 
ATOM     10  O   UNL d   1     -49.600  11.093  22.797  0.00  0.00    -0.244 OA
ENDROOT
BRANCH   2  11
ATOM     11  C   UNL d   1     -49.343  12.871  22.725  0.00  0.00     0.070 A 
ATOM     12  C   UNL d   1     -49.767  13.259  23.324  0.00  0.00     0.018 A 
ATOM     13  C   UNL d   1     -50.336  13.820  23.143  0.00  0.00     0.002 A 
ATOM     14  C   UNL d   1     -50.476  13.991  22.350  0.00  0.00     0.000 A 
ATOM     15  C   UNL d   1     -50.062  13.613  21.751  0.00  0.00     0.002 A 
ATOM     16  C   UNL d   1     -51.052  14.560  22.157  0.00  0.00     0.000 C 
ATOM     17  C   UNL d   1     -49.495  13.053  21.942  0.00  0.00     0.018 A 
ENDBRANCH   2  11
BRANCH   6  18
ATOM     18  C   UNL d   1     -46.437  10.999  23.621  0.00  0.00     0.316 C 
ATOM     19  O   UNL d   1     -46.877  10.302  23.698  0.00  0.00    -0.262 OA
ATOM     20  N   UNL d   1     -45.607  10.981  23.697  0.00  0.00    -0.101 N 
ENDBRANCH   6  18
BRANCH   9  21
ATOM     21  C   UNL d   1     -46.317  13.844  23.429  0.00  0.00     0.039 C 
BRANCH  21  22
ATOM     22  C   UNL d   1     -46.169  14.300  22.753  0.00  0.00     0.003 C 
ATOM     23  C   UNL d   1     -46.590  15.001  22.640  0.00  0.00     0.000 C 
ATOM     24  C   UNL d   1     -45.609  14.050  22.210  0.00  0.00     0.000 C 
ENDBRANCH  21  22
ENDBRANCH   9  21
TORSDOF 4
ENDMDL
MODEL 5
REMARK VINA RESULT:      -5.6      9.298     10.472
REMARK  4 active torsions:
REMARK  status: ('A' for Active; 'I' for Inactive)
REMARK    1  A    between atoms: C_11  and  N_2 
REMARK    2  A    between atoms: C_10  and  C_6 
REMARK    3  A    between atoms: C_16  and  C_9 
REMARK    4  A    between atoms: C_21  and  C_16 
ROOT
ATOM      1  C   UNL d   1     -38.777  14.070  17.967  0.00  0.00     0.143 A 
ATOM      2  N   UNL d   1     -38.908  14.389  19.273  0.00  0.00    -0.242 N 
ATOM      3  C   UNL d   1     -39.120  14.606  18.498  0.00  0.00     0.172 A 
ATOM      4  C   UNL d   1     -38.428  13.713  19.216  0.00  0.00     0.355 A 
ATOM      5  N   UNL d   1     -38.350  13.520  18.413  0.00  0.00    -0.187 NA
ATOM      6  C   UNL d   1     -38.894  14.151  17.164  0.00  0.00     0.163 A 
ATOM      7  N   UNL d   1     -39.589  15.231  18.212  0.00  0.00    -0.208 NA
ATOM      8  N   UNL d   1     -39.355  14.765  16.868  0.00  0.00    -0.220 NA
ATOM      9  C   UNL d   1     -39.703  15.305  17.392  0.00  0.00     0.164 A 
ATOM     10  O   UNL d   1     -38.091  13.308  19.856  0.00  0.00    -0.244 OA
ENDROOT
BRANCH   2  11
ATOM     11  C   UNL d   1     -39.130  14.771  19.962  0.00  0.00     0.070 A 
ATOM     12  C   UNL d   1     -39.796  14.516  20.389  0.00  0.00     0.018 A 
ATOM     13  C   UNL d   1     -40.025  14.892  21.078  0.00  0.00     0.002 A 
ATOM     14  C   UNL d   1     -39.579  15.532  21.340  0.00  0.00     0.000 A 
ATOM     15  C   UNL d   1     -38.920  15.792  20.926  0.00  0.00     0.002 A 
ATOM     16  C   UNL d   1     -39.804  15.921  22.040  0.00  0.00     0.000 C 
ATOM     17  C   UNL d   1     -38.697  15.409  20.236  0.00  0.00     0.018 A 
ENDBRANCH   2  11
BRANCH   6  18
ATOM     18  C   UNL d   1     -38.550  13.616  16.634  0.00  0.00     0.316 C 
ATOM     19  O   UNL d   1     -38.790  12.824  16.619  0.00  0.00    -0.262 OA
ATOM     20  N   UNL d   1     -37.956  13.882  16.112  0.00  0.00    -0.101 N 
ENDBRANCH   6  18
BRANCH   9  21
ATOM     21  C   UNL d   1     -40.165  15.922  17.098  0.00  0.00     0.039 C 
BRANCH  21  22
ATOM     22  C   UNL d   1     -40.978  15.813  16.975  0.00  0.00     0.003 C 
ATOM     23  C   UNL d   1     -41.246  15.598  16.225  0.00  0.00     0.000 C 
ATOM     24  C   UNL d   1     -41.500  15.922  17.596  0.00  0.00     0.000 C 
ENDBRANCH  21  22
ENDBRANCH   9  21
TORSDOF 4
ENDMDL
MODEL 6
REMARK VINA RESULT:      -5.3      1.217      3.706
REMARK  4 active torsions:
REMARK  status: ('A' for Active; 'I' for Inactive)
REMARK    1  A    between atoms: C_11  and  N_2 
REMARK    2  A    between atoms: C_10  and  C_6 
REMARK    3  A    between atoms: C_16  and  C_9 
REMARK    4  A    between atoms: C_21  and  C_16 
ROOT
ATOM      1  C   UNL d   1     -46.768  13.507  22.493  0.00  0.00     0.143 A 
ATOM      2  N   UNL d   1     -48.107  13.343  22.572  0.00  0.00    -0.242 N 
ATOM      3  C   UNL d   1     -47.370  13.011  22.772  0.00  0.00     0.172 A 
ATOM      4  C   UNL d   1     -47.954  14.051  22.164  0.00  0.00     0.355 A 
ATOM      5  N   UNL d   1     -47.132  14.149  22.118  0.00  0.00    -0.187 NA
ATOM      6  C   UNL d   1     -45.985  13.316  22.613  0.00  0.00     0.163 A 
ATOM      7  N   UNL d   1     -47.177  12.311  23.178  0.00  0.00    -0.208 NA
ATOM      8  N   UNL d   1     -45.779  12.627  23.013  0.00  0.00    -0.220 NA
ATOM      9  C   UNL d   1     -46.375  12.124  23.296  0.00  0.00     0.164 A 
ATOM     10  O   UNL d   1     -48.530  14.564  21.861  0.00  0.00    -0.244 OA
ENDROOT
BRANCH   2  11
ATOM     11  C   UNL d   1     -48.843  13.029  22.744  0.00  0.00     0.070 A 
ATOM     12  C   UNL d   1     -49.216  12.514  22.209  0.00  0.00     0.018 A 
ATOM     13  C   UNL d   1     -49.952  12.196  22.372  0.00  0.00     0.002 A 
ATOM     14  C   UNL d   1     -50.315  12.400  23.082  0.00  0.00     0.000 A 
ATOM     15  C   UNL d   1     -49.956  12.908  23.617  0.00  0.00     0.002 A 
ATOM     16  C   UNL d   1     -51.064  12.081  23.257  0.00  0.00     0.000 C 
ATOM     17  C   UNL d   1     -49.219  13.222  23.445  0.00  0.00     0.018 A 
ENDBRANCH   2  11
BRANCH   6  18
ATOM     18  C   UNL d   1     -45.384  13.812  22.334  0.00  0.00     0.316 C 
ATOM     19  O   UNL d   1     -45.309  14.586  22.619  0.00  0.00    -0.262 OA
ATOM     20  N   UNL d   1     -44.852  13.525  21.759  0.00  0.00    -0.101 N 
ENDBRANCH   6  18
BRANCH   9  21
ATOM     21  C   UNL d   1     -46.172  11.433  23.698  0.00  0.00     0.039 C 
BRANCH  21  22
ATOM     22  C   UNL d   1     -45.948  10.754  23.277  0.00  0.00     0.003 C 
ATOM     23  C   UNL d   1     -45.147  10.567  23.211  0.00  0.00     0.000 C 
ATOM     24  C   UNL d   1     -46.523  10.282  22.934  0.00  0.00     0.000 C 
ENDBRANCH  21  22
ENDBRANCH   9  21
TORSDOF 4
ENDMDL
MODEL 7
REMARK VINA RESULT:      -4.9      8.628      9.970
REMARK  4 active torsions:
REMARK  status: ('A' for Active; 'I' for Inactive)
REMARK    1  A    between atoms: C_11  and  N_2 
REMARK    2  A    between atoms: C_10  and  C_6 
REMARK    3  A    between atoms: C_16  and  C_9 
REMARK    4  A    between atoms: C_21  and  C_16 
ROOT
ATOM      1  C   UNL d   1     -40.440  15.399  18.286  0.00  0.00     0.143 A 
ATOM      2  N   UNL d   1     -40.122  15.363  19.599  0.00  0.00    -0.242 N 
ATOM      3  C   UNL d   1     -39.850  15.194  18.830  0.00  0.00     0.172 A 
ATOM      4  C   UNL d   1     -40.889  15.676  19.523  0.00  0.00     0.355 A 
ATOM      5  N   UNL d   1     -41.081  15.696  18.717  0.00  0.00    -0.187 NA
ATOM      6  C   UNL d   1     -40.321  15.290  17.486  0.00  0.00     0.163 A 
ATOM      7  N   UNL d   1     -39.129  14.876  18.562  0.00  0.00    -0.208 NA
ATOM      8  N   UNL d   1     -39.613  14.977  17.207  0.00  0.00    -0.220 NA
ATOM      9  C   UNL d   1     -39.017  14.769  17.745  0.00  0.00     0.164 A 
ATOM     10  O   UNL d   1     -41.371  15.921  20.151  0.00  0.00    -0.244 OA
ENDROOT
BRANCH   2  11
ATOM     11  C   UNL d   1     -39.712  15.245  20.297  0.00  0.00     0.070 A 
ATOM     12  C   UNL d   1     -39.216  15.839  20.599  0.00  0.00     0.018 A 
ATOM     13  C   UNL d   1     -38.801  15.729  21.296  0.00  0.00     0.002 A 
ATOM     14  C   UNL d   1     -38.888  15.012  21.691  0.00  0.00     0.000 A 
ATOM     15  C   UNL d   1     -39.375  14.419  21.401  0.00  0.00     0.002 A 
ATOM     16  C   UNL d   1     -38.471  14.891  22.401  0.00  0.00     0.000 C 
ATOM     17  C   UNL d   1     -39.786  14.538  20.703  0.00  0.00     0.018 A 
ENDBRANCH   2  11
BRANCH   6  18
ATOM     18  C   UNL d   1     -40.911  15.495  16.943  0.00  0.00     0.316 C 
ATOM     19  O   UNL d   1     -40.718  15.875  16.234  0.00  0.00    -0.262 OA
ATOM     20  N   UNL d   1     -41.707  15.314  17.118  0.00  0.00    -0.101 N 
ENDBRANCH   6  18
BRANCH   9  21
ATOM     21  C   UNL d   1     -38.307  14.455  17.469  0.00  0.00     0.039 C 
BRANCH  21  22
ATOM     22  C   UNL d   1     -38.260  13.658  17.244  0.00  0.00     0.003 C 
ATOM     23  C   UNL d   1     -38.191  13.467  16.445  0.00  0.00     0.000 C 
ATOM     24  C   UNL d   1     -38.284  13.074  17.818  0.00  0.00     0.000 C 
ENDBRANCH  21  22
ENDBRANCH   9  21
TORSDOF 4
ENDMDL
