MODEL 1
REMARK VINA RESULT:      -7.9      0.000      0.000
REMARK  5 active torsions:
REMARK  status: ('A' for Active; 'I' for Inactive)
REMARK    1  A    between atoms: N_2  and  C_1 
REMARK       I    between atoms: C_7  and  N_2 
REMARK    2  A    between atoms: C_17  and  N_3 
REMARK    3  A    between atoms: C_14  and  C_7 
REMARK       I    between atoms: C_10  and  N_11 
REMARK    4  A    between atoms: N_11  and  C_12 
REMARK    5  A    between atoms: C_16  and  C_17 
ROOT
ATOM      1  C   UNL d   1      52.934  31.913  53.569  0.00  0.00     0.182 A 
ATOM      2  N   UNL d   1      53.258  32.666  53.626  0.00  0.00    -0.285 N 
ATOM      3  S   UNL d   1      52.229  31.972  53.146  0.00  0.00    -0.048 SA
ATOM      4  C   UNL d   1      52.117  32.767  52.941  0.00  0.00     0.050 A 
ATOM      5  C   UNL d   1      52.755  33.198  53.239  0.00  0.00     0.072 A 
ATOM      6  C   UNL d   1      51.519  33.150  52.523  0.00  0.00     0.027 A 
ATOM      7  C   UNL d   1      52.797  34.013  53.119  0.00  0.00     0.020 A 
ATOM      8  C   UNL d   1      51.559  33.965  52.403  0.00  0.00     0.085 A 
ATOM      9  C   UNL d   1      52.197  34.396  52.701  0.00  0.00     0.021 A 
ENDROOT
BRANCH   1  10
ATOM     10  N   UNL d   1      53.264  31.225  53.883  0.00  0.00    -0.184 NA
ATOM     11  C   UNL d   1      52.901  30.498  53.738  0.00  0.00     0.281 C 
ATOM     12  O   UNL d   1      52.215  30.467  53.283  0.00  0.00    -0.265 OA
BRANCH  11  13
ATOM     13  C   UNL d   1      53.224  29.805  54.049  0.00  0.00     0.058 A 
ATOM     14  C   UNL d   1      52.976  29.514  54.791  0.00  0.00     0.005 A 
ATOM     15  C   UNL d   1      53.299  28.820  55.101  0.00  0.00     0.000 A 
ATOM     16  C   UNL d   1      53.876  28.406  54.674  0.00  0.00     0.000 A 
ATOM     17  C   UNL d   1      54.121  28.694  53.942  0.00  0.00     0.000 A 
ATOM     18  C   UNL d   1      53.798  29.388  53.631  0.00  0.00     0.005 A 
ENDBRANCH  11  13
ENDBRANCH   1  10
BRANCH   2  19
ATOM     19  C   UNL d   1      53.965  32.868  54.005  0.00  0.00     0.082 C 
BRANCH  19  20
ATOM     20  C   UNL d   1      53.968  33.080  54.801  0.00  0.00     0.019 C 
ATOM     21  C   UNL d   1      54.673  33.288  55.171  0.00  0.00     0.002 C 
ENDBRANCH  19  20
ENDBRANCH   2  19
BRANCH   8  22
ATOM     22  N   UNL d   1      50.952  34.357  51.979  0.00  0.00    -0.208 NA
ATOM     23  C   UNL d   1      50.261  34.567  52.361  0.00  0.00     0.279 C 
ATOM     24  O   UNL d   1      49.666  34.953  51.941  0.00  0.00    -0.265 OA
ATOM     25  C   UNL d   1      50.150  34.398  53.162  0.00  0.00     0.068 C 
ENDBRANCH   8  22
TORSDOF 5
ENDMDL
MODEL 2
REMARK VINA RESULT:      -7.7      1.220      4.850
REMARK  5 active torsions:
REMARK  status: ('A' for Active; 'I' for Inactive)
REMARK    1  A    between atoms: N_2  and  C_1 
REMARK       I    between atoms: C_7  and  N_2 
REMARK    2  A    between atoms: C_17  and  N_3 
REMARK    3  A    between atoms: C_14  and  C_7 
REMARK       I    between atoms: C_10  and  N_11 
REMARK    4  A    between atoms: N_11  and  C_12 
REMARK    5  A    between atoms: C_16  and  C_17 
ROOT
ATOM      1  C   UNL d   1      51.748  33.717  53.157  0.00  0.00     0.182 A 
ATOM      2  N   UNL d   1      52.358  33.823  53.697  0.00  0.00    -0.285 N 
ATOM      3  S   UNL d   1      51.842  32.974  52.811  0.00  0.00    -0.048 SA
ATOM      4  C   UNL d   1      52.515  32.620  53.141  0.00  0.00     0.050 A 
ATOM      5  C   UNL d   1      52.835  33.147  53.691  0.00  0.00     0.072 A 
ATOM      6  C   UNL d   1      52.874  31.890  53.010  0.00  0.00     0.027 A 
ATOM      7  C   UNL d   1      53.515  32.944  54.111  0.00  0.00     0.020 A 
ATOM      8  C   UNL d   1      53.554  31.686  53.430  0.00  0.00     0.085 A 
ATOM      9  C   UNL d   1      53.874  32.213  53.980  0.00  0.00     0.021 A 
ENDROOT
BRANCH   1  10
ATOM     10  N   UNL d   1      51.150  34.263  52.995  0.00  0.00    -0.184 NA
ATOM     11  C   UNL d   1      50.381  33.995  52.866  0.00  0.00     0.281 C 
ATOM     12  O   UNL d   1      50.216  33.189  52.898  0.00  0.00    -0.265 OA
BRANCH  11  13
ATOM     13  C   UNL d   1      49.777  34.535  52.703  0.00  0.00     0.058 A 
ATOM     14  C   UNL d   1      49.458  35.012  53.309  0.00  0.00     0.005 A 
ATOM     15  C   UNL d   1      48.854  35.552  53.147  0.00  0.00     0.000 A 
ATOM     16  C   UNL d   1      48.560  35.623  52.376  0.00  0.00     0.000 A 
ATOM     17  C   UNL d   1      48.875  35.151  51.778  0.00  0.00     0.000 A 
ATOM     18  C   UNL d   1      49.479  34.612  51.940  0.00  0.00     0.005 A 
ENDBRANCH  11  13
ENDBRANCH   1  10
BRANCH   2  19
ATOM     19  C   UNL d   1      52.481  34.489  54.171  0.00  0.00     0.082 C 
BRANCH  19  20
ATOM     20  C   UNL d   1      52.986  35.092  53.923  0.00  0.00     0.019 C 
ATOM     21  C   UNL d   1      53.119  35.744  54.407  0.00  0.00     0.002 C 
ENDBRANCH  19  20
ENDBRANCH   2  19
BRANCH   8  22
ATOM     22  N   UNL d   1      53.921  30.945  53.300  0.00  0.00    -0.208 NA
ATOM     23  C   UNL d   1      53.656  30.285  53.702  0.00  0.00     0.279 C 
ATOM     24  O   UNL d   1      54.019  29.556  53.572  0.00  0.00    -0.265 OA
ATOM     25  C   UNL d   1      53.029  30.337  54.237  0.00  0.00     0.068 C 
ENDBRANCH   8  22
TORSDOF 5
ENDMDL
MODEL 3
REMARK VINA RESULT:      -7.2      1.843      4.866
REMARK  5 active torsions:
REMARK  status: ('A' for Active; 'I' for Inactive)
REMARK    1  A    between atoms: N_2  and  C_1 
REMARK       I    between atoms: C_7  and  N_2 
REMARK    2  A    between atoms: C_17  and  N_3 
REMARK    3  A    between atoms: C_14  and  C_7 
REMARK       I    between atoms: C_10  and  N_11 
REMARK    4  A    between atoms: N_11  and  C_12 
REMARK    5  A    between atoms: C_16  and  C_17 
ROOT
ATOM      1  C   UNL d   1      52.074  33.297  53.264  0.00  0.00     0.182 A 
ATOM      2  N   UNL d   1      52.591  32.660  53.219  0.00  0.00    -0.285 N 
ATOM      3  S   UNL d   1      52.348  33.806  53.852  0.00  0.00    -0.048 SA
ATOM      4  C   UNL d   1      53.040  33.481  54.172  0.00  0.00     0.050 A 
ATOM      5  C   UNL d   1      53.191  32.770  53.780  0.00  0.00     0.072 A 
ATOM      6  C   UNL d   1      53.548  33.740  54.767  0.00  0.00     0.027 A 
ATOM      7  C   UNL d   1      53.850  32.318  53.982  0.00  0.00     0.020 A 
ATOM      8  C   UNL d   1      54.207  33.289  54.970  0.00  0.00     0.085 A 
ATOM      9  C   UNL d   1      54.358  32.578  54.578  0.00  0.00     0.021 A 
ENDROOT
BRANCH   1  10
ATOM     10  N   UNL d   1      51.400  33.401  52.798  0.00  0.00    -0.184 NA
ATOM     11  C   UNL d   1      51.092  34.159  52.694  0.00  0.00     0.281 C 
ATOM     12  O   UNL d   1      51.457  34.803  53.055  0.00  0.00    -0.265 OA
BRANCH  11  13
ATOM     13  C   UNL d   1      50.418  34.271  52.230  0.00  0.00     0.058 A 
ATOM     14  C   UNL d   1      50.439  34.131  51.407  0.00  0.00     0.005 A 
ATOM     15  C   UNL d   1      49.766  34.243  50.943  0.00  0.00     0.000 A 
ATOM     16  C   UNL d   1      49.060  34.498  51.293  0.00  0.00     0.000 A 
ATOM     17  C   UNL d   1      49.039  34.636  52.106  0.00  0.00     0.000 A 
ATOM     18  C   UNL d   1      49.713  34.524  52.571  0.00  0.00     0.005 A 
ENDBRANCH  11  13
ENDBRANCH   1  10
BRANCH   2  19
ATOM     19  C   UNL d   1      52.531  32.016  52.705  0.00  0.00     0.082 C 
BRANCH  19  20
ATOM     20  C   UNL d   1      52.364  31.262  52.996  0.00  0.00     0.019 C 
ATOM     21  C   UNL d   1      52.531  30.598  52.540  0.00  0.00     0.002 C 
ENDBRANCH  19  20
ENDBRANCH   2  19
BRANCH   8  22
ATOM     22  N   UNL d   1      54.725  33.550  55.574  0.00  0.00    -0.208 NA
ATOM     23  C   UNL d   1      55.431  33.910  55.376  0.00  0.00     0.279 C 
ATOM     24  O   UNL d   1      55.938  34.166  55.972  0.00  0.00    -0.265 OA
ATOM     25  C   UNL d   1      55.643  34.021  54.585  0.00  0.00     0.068 C 
ENDBRANCH   8  22
TORSDOF 5
ENDMDL
MODEL 4
REMARK VINA RESULT:      -6.1      1.975      3.326
REMARK  5 active torsions:
REMARK  status: ('A' for Active; 'I' for Inactive)
REMARK    1  A    between atoms: N_2  and  C_1 
REMARK       I    between atoms: C_7  and  N_2 
REMARK    2  A    between atoms: C_17  and  N_3 
REMARK    3  A    between atoms: C_14  and  C_7 
REMARK       I    between atoms: C_10  and  N_11 
REMARK    4  A    between atoms: N_11  and  C_12 
REMARK    5  A    between atoms: C_16  and  C_17 
ROOT
ATOM      1  C   UNL d   1      52.285  33.665  53.546  0.00  0.00     0.182 A 
ATOM      2  N   UNL d   1      51.939  33.196  52.967  0.00  0.00    -0.285 N 
ATOM      3  S   UNL d   1      51.782  34.301  53.692  0.00  0.00    -0.048 SA
ATOM      4  C   UNL d   1      51.119  34.224  53.200  0.00  0.00     0.050 A 
ATOM      5  C   UNL d   1      51.216  33.538  52.751  0.00  0.00     0.072 A 
ATOM      6  C   UNL d   1      50.445  34.688  53.106  0.00  0.00     0.027 A 
ATOM      7  C   UNL d   1      50.639  33.315  52.206  0.00  0.00     0.020 A 
ATOM      8  C   UNL d   1      49.867  34.466  52.561  0.00  0.00     0.085 A 
ATOM      9  C   UNL d   1      49.964  33.780  52.111  0.00  0.00     0.021 A 
ENDROOT
BRANCH   1  10
ATOM     10  N   UNL d   1      53.012  33.518  53.911  0.00  0.00    -0.184 NA
ATOM     11  C   UNL d   1      53.394  34.128  54.313  0.00  0.00     0.281 C 
ATOM     12  O   UNL d   1      53.051  34.876  54.346  0.00  0.00    -0.265 OA
BRANCH  11  13
ATOM     13  C   UNL d   1      54.121  33.989  54.681  0.00  0.00     0.058 A 
ATOM     14  C   UNL d   1      54.837  34.120  54.272  0.00  0.00     0.005 A 
ATOM     15  C   UNL d   1      55.563  33.981  54.640  0.00  0.00     0.000 A 
ATOM     16  C   UNL d   1      55.585  33.709  55.422  0.00  0.00     0.000 A 
ATOM     17  C   UNL d   1      54.877  33.580  55.825  0.00  0.00     0.000 A 
ATOM     18  C   UNL d   1      54.151  33.719  55.457  0.00  0.00     0.005 A 
ENDBRANCH  11  13
ENDBRANCH   1  10
BRANCH   2  19
ATOM     19  C   UNL d   1      52.251  32.499  52.650  0.00  0.00     0.082 C 
BRANCH  19  20
ATOM     20  C   UNL d   1      52.152  31.780  53.041  0.00  0.00     0.019 C 
ATOM     21  C   UNL d   1      52.559  31.111  52.786  0.00  0.00     0.002 C 
ENDBRANCH  19  20
ENDBRANCH   2  19
BRANCH   8  22
ATOM     22  N   UNL d   1      49.180  34.935  52.463  0.00  0.00    -0.208 NA
ATOM     23  C   UNL d   1      48.818  34.975  51.732  0.00  0.00     0.279 C 
ATOM     24  O   UNL d   1      48.142  35.438  51.638  0.00  0.00    -0.265 OA
ATOM     25  C   UNL d   1      49.118  34.558  51.085  0.00  0.00     0.068 C 
ENDBRANCH   8  22
TORSDOF 5
ENDMDL
MODEL 5
REMARK VINA RESULT:      -5.8      1.698      4.884
REMARK  5 active torsions:
REMARK  status: ('A' for Active; 'I' for Inactive)
REMARK    1  A    between atoms: N_2  and  C_1 
REMARK       I    between atoms: C_7  and  N_2 
REMARK    2  A    between atoms: C_17  and  N_3 
REMARK    3  A    between atoms: C_14  and  C_7 
REMARK       I    between atoms: C_10  and  N_11 
REMARK    4  A    between atoms: N_11  and  C_12 
REMARK    5  A    between atoms: C_16  and  C_17 
ROOT
ATOM      1  C   UNL d   1      53.021  32.767  53.640  0.00  0.00     0.182 A 
ATOM      2  N   UNL d   1      52.521  32.322  53.163  0.00  0.00    -0.285 N 
ATOM      3  S   UNL d   1      53.543  32.250  54.013  0.00  0.00    -0.048 SA
ATOM      4  C   UNL d   1      53.365  31.480  53.765  0.00  0.00     0.050 A 
ATOM      5  C   UNL d   1      52.731  31.524  53.238  0.00  0.00     0.072 A 
ATOM      6  C   UNL d   1      53.697  30.749  53.951  0.00  0.00     0.027 A 
ATOM      7  C   UNL d   1      52.428  30.838  52.895  0.00  0.00     0.020 A 
ATOM      8  C   UNL d   1      53.395  30.062  53.609  0.00  0.00     0.085 A 
ATOM      9  C   UNL d   1      52.761  30.106  53.082  0.00  0.00     0.021 A 
ENDROOT
BRANCH   1  10
ATOM     10  N   UNL d   1      52.996  33.588  53.724  0.00  0.00    -0.184 NA
ATOM     11  C   UNL d   1      53.354  33.939  54.379  0.00  0.00     0.281 C 
ATOM     12  O   UNL d   1      53.732  33.470  54.941  0.00  0.00    -0.265 OA
BRANCH  11  13
ATOM     13  C   UNL d   1      53.335  34.760  54.471  0.00  0.00     0.058 A 
ATOM     14  C   UNL d   1      52.985  35.105  55.146  0.00  0.00     0.005 A 
ATOM     15  C   UNL d   1      52.965  35.925  55.238  0.00  0.00     0.000 A 
ATOM     16  C   UNL d   1      53.295  36.414  54.656  0.00  0.00     0.000 A 
ATOM     17  C   UNL d   1      53.640  36.073  53.990  0.00  0.00     0.000 A 
ATOM     18  C   UNL d   1      53.660  35.253  53.898  0.00  0.00     0.005 A 
ENDBRANCH  11  13
ENDBRANCH   1  10
BRANCH   2  19
ATOM     19  C   UNL d   1      51.911  32.612  52.687  0.00  0.00     0.082 C 
BRANCH  19  20
ATOM     20  C   UNL d   1      51.162  32.750  53.004  0.00  0.00     0.019 C 
ATOM     21  C   UNL d   1      50.614  33.201  52.587  0.00  0.00     0.002 C 
ENDBRANCH  19  20
ENDBRANCH   2  19
BRANCH   8  22
ATOM     22  N   UNL d   1      53.731  29.318  53.797  0.00  0.00    -0.208 NA
ATOM     23  C   UNL d   1      53.454  28.898  54.441  0.00  0.00     0.279 C 
ATOM     24  O   UNL d   1      53.786  28.166  54.623  0.00  0.00    -0.265 OA
ATOM     25  C   UNL d   1      52.845  29.198  54.912  0.00  0.00     0.068 C 
ENDBRANCH   8  22
TORSDOF 5
ENDMDL
