MODEL 1
REMARK VINA RESULT:      -5.4      0.000      0.000
REMARK  3 active torsions:
REMARK  status: ('A' for Active; 'I' for Inactive)
REMARK    1  A    between atoms: N_11  and  C_4 
REMARK    2  A    between atoms: C_18  and  N_15 
REMARK    3  A    between atoms: C_22  and  C_18 
ROOT
ATOM      1  N   UNL d   1      59.064  -0.936  29.675  0.00  0.00    -0.195 N 
ATOM      2  C   UNL d   1      59.719  -1.187  29.272  0.00  0.00     0.168 A 
ATOM      3  C   UNL d   1      59.801  -1.954  29.066  0.00  0.00     0.073 A 
ATOM      4  C   UNL d   1      58.998  -0.167  29.874  0.00  0.00     0.153 A 
ATOM      5  N   UNL d   1      58.569  -2.218  29.667  0.00  0.00    -0.143 NA
ATOM      6  C   UNL d   1      59.224  -2.469  29.264  0.00  0.00     0.185 A 
ATOM      7  N   UNL d   1      60.292  -0.662  29.078  0.00  0.00    -0.227 NA
ATOM      8  C   UNL d   1      60.451  -2.202  28.666  0.00  0.00     0.007 A 
ATOM      9  N   UNL d   1      59.294  -3.249  29.061  0.00  0.00    -0.225 NA
ATOM     10  C   UNL d   1      59.563   0.357  29.684  0.00  0.00     0.057 A 
ATOM     11  C   UNL d   1      60.533  -2.968  28.459  0.00  0.00     0.019 A 
ATOM     12  C   UNL d   1      60.218   0.106  29.281  0.00  0.00     0.086 A 
ATOM     13  C   UNL d   1      59.950  -3.499  28.657  0.00  0.00     0.083 A 
ATOM     14  C   UNL d   1      61.025  -1.673  28.472  0.00  0.00     0.000 C 
ATOM     15  C   UNL d   1      60.813   0.655  29.080  0.00  0.00     0.021 C 
ATOM     16  C   UNL d   1      60.025  -4.263  28.455  0.00  0.00     0.021 C 
ENDROOT
BRANCH   4  17
ATOM     17  N   UNL d   1      58.318   0.084  30.290  0.00  0.00    -0.286 N 
ATOM     18  C   UNL d   1      58.553   0.005  31.076  0.00  0.00     0.101 A 
ATOM     19  C   UNL d   1      58.013   0.207  31.686  0.00  0.00     0.100 A 
ATOM     20  N   UNL d   1      57.246   0.485  31.508  0.00  0.00    -0.300 N 
ATOM     21  C   UNL d   1      57.017   0.561  30.705  0.00  0.00     0.100 A 
ATOM     22  C   UNL d   1      57.551   0.361  30.092  0.00  0.00     0.101 A 
BRANCH  20  23
ATOM     23  C   UNL d   1      56.719   0.682  32.115  0.00  0.00     0.080 C 
BRANCH  23  24
ATOM     24  C   UNL d   1      56.280   0.084  32.503  0.00  0.00     0.018 A 
ATOM     25  C   UNL d   1      55.620   0.292  32.952  0.00  0.00     0.002 A 
ATOM     26  C   UNL d   1      55.173  -0.293  33.344  0.00  0.00     0.000 A 
ATOM     27  C   UNL d   1      55.396  -1.096  33.280  0.00  0.00     0.000 A 
ATOM     28  C   UNL d   1      56.066  -1.304  32.824  0.00  0.00     0.000 A 
ATOM     29  C   UNL d   1      56.503  -0.710  32.438  0.00  0.00     0.002 A 
ENDBRANCH  23  24
ENDBRANCH  20  23
ENDBRANCH   4  17
TORSDOF 3
ENDMDL
