MODEL 1
REMARK VINA RESULT:      52.3      0.000      0.000
REMARK  4 active torsions:
REMARK  status: ('A' for Active; 'I' for Inactive)
REMARK    1  A    between atoms: C_2  and  S_1 
REMARK    2  A    between atoms: N_3  and  S_1 
REMARK    3  A    between atoms: C_6  and  N_3 
REMARK    4  A    between atoms: C_4  and  C_6 
REMARK       I    between atoms: N_5  and  C_4 
ROOT
ATOM      1  S   UNL d   1      60.516  49.336  50.751  0.00  0.00     0.287 S 
ATOM      2  O   UNL d   1      61.059  49.076  50.169  0.00  0.00    -0.198 OA
ATOM      3  O   UNL d   1      59.977  49.594  51.345  0.00  0.00    -0.198 OA
ENDROOT
BRANCH   1   4
ATOM      4  C   UNL d   1      61.059  49.091  51.362  0.00  0.00     0.126 A 
ATOM      5  C   UNL d   1      60.900  49.275  52.155  0.00  0.00     0.071 A 
ATOM      6 CL   UNL d   1      60.205  49.705  52.373  0.00  0.00    -0.082 Cl
ATOM      7  C   UNL d   1      61.432  49.035  52.750  0.00  0.00     0.012 A 
ATOM      8  C   UNL d   1      62.108  48.616  52.537  0.00  0.00     0.002 A 
ATOM      9  C   UNL d   1      62.261  48.435  51.740  0.00  0.00     0.012 A 
ATOM     10  C   UNL d   1      61.738  48.671  51.153  0.00  0.00     0.071 A 
ATOM     11 CL   UNL d   1      61.888  48.491  50.360  0.00  0.00    -0.082 Cl
ENDBRANCH   1   4
BRANCH   1  12
ATOM     12  N   UNL d   1      59.981  49.577  50.151  0.00  0.00    -0.152 NA
BRANCH  12  13
ATOM     13  C   UNL d   1      59.195  49.292  50.158  0.00  0.00     0.173 C 
BRANCH  13  14
ATOM     14  C   UNL d   1      58.696  49.450  49.509  0.00  0.00     0.285 C 
ATOM     15  N   UNL d   1      57.874  49.477  49.599  0.00  0.00    -0.271 N 
ATOM     16  C   UNL d   1      57.593  49.339  50.361  0.00  0.00     0.083 A 
ATOM     17  C   UNL d   1      57.451  49.637  48.922  0.00  0.00     0.083 A 
ATOM     18  C   UNL d   1      56.813  49.330  50.619  0.00  0.00     0.019 A 
ATOM     19  C   UNL d   1      56.127  49.455  50.185  0.00  0.00     0.002 A 
ATOM     20  C   UNL d   1      56.044  49.618  49.401  0.00  0.00     0.002 A 
ATOM     21  C   UNL d   1      56.633  49.701  48.831  0.00  0.00     0.019 A 
ATOM     22  O   UNL d   1      58.978  49.551  48.931  0.00  0.00    -0.265 OA
ENDBRANCH  13  14
ENDBRANCH  12  13
ENDBRANCH   1  12
TORSDOF 4
ENDMDL
MODEL 2
REMARK VINA RESULT:      53.0      1.453      4.393
REMARK  4 active torsions:
REMARK  status: ('A' for Active; 'I' for Inactive)
REMARK    1  A    between atoms: C_2  and  S_1 
REMARK    2  A    between atoms: N_3  and  S_1 
REMARK    3  A    between atoms: C_6  and  N_3 
REMARK    4  A    between atoms: C_4  and  C_6 
REMARK       I    between atoms: N_5  and  C_4 
ROOT
ATOM      1  S   UNL d   1      58.521  49.674  50.482  0.00  0.00     0.287 S 
ATOM      2  O   UNL d   1      58.631  49.692  49.651  0.00  0.00    -0.198 OA
ATOM      3  O   UNL d   1      58.399  49.655  51.315  0.00  0.00    -0.198 OA
ENDROOT
BRANCH   1   4
ATOM      4  C   UNL d   1      57.677  49.645  50.366  0.00  0.00     0.126 A 
ATOM      5  C   UNL d   1      57.366  49.605  49.598  0.00  0.00     0.071 A 
ATOM      6 CL   UNL d   1      57.873  49.593  48.921  0.00  0.00    -0.082 Cl
ATOM      7  C   UNL d   1      56.540  49.576  49.487  0.00  0.00     0.012 A 
ATOM      8  C   UNL d   1      56.047  49.588  50.147  0.00  0.00     0.002 A 
ATOM      9  C   UNL d   1      56.367  49.628  50.913  0.00  0.00     0.012 A 
ATOM     10  C   UNL d   1      57.179  49.656  51.024  0.00  0.00     0.071 A 
ATOM     11 CL   UNL d   1      57.499  49.695  51.785  0.00  0.00    -0.082 Cl
ENDBRANCH   1   4
BRANCH   1  12
ATOM     12  N   UNL d   1      59.352  49.703  50.597  0.00  0.00    -0.152 NA
BRANCH  12  13
ATOM     13  C   UNL d   1      59.771  48.999  50.766  0.00  0.00     0.173 C 
BRANCH  13  14
ATOM     14  C   UNL d   1      60.554  49.046  51.049  0.00  0.00     0.285 C 
ATOM     15  N   UNL d   1      60.711  49.197  51.847  0.00  0.00    -0.271 N 
ATOM     16  C   UNL d   1      60.050  49.294  52.329  0.00  0.00     0.083 A 
ATOM     17  C   UNL d   1      61.499  49.229  52.051  0.00  0.00     0.083 A 
ATOM     18  C   UNL d   1      60.030  49.448  53.136  0.00  0.00     0.019 A 
ATOM     19  C   UNL d   1      60.658  49.542  53.656  0.00  0.00     0.002 A 
ATOM     20  C   UNL d   1      61.450  49.508  53.510  0.00  0.00     0.002 A 
ATOM     21  C   UNL d   1      61.831  49.368  52.794  0.00  0.00     0.019 A 
ATOM     22  O   UNL d   1      61.035  48.960  50.618  0.00  0.00    -0.265 OA
ENDBRANCH  13  14
ENDBRANCH  12  13
ENDBRANCH   1  12
TORSDOF 4
ENDMDL
