MODEL 1
REMARK VINA RESULT:      21.3      0.000      0.000
REMARK  6 active torsions:
REMARK  status: ('A' for Active; 'I' for Inactive)
REMARK    1  A    between atoms: C_2  and  C_1 
REMARK       I    between atoms: N_3  and  C_2 
REMARK    2  A    between atoms: C_24  and  N_3 
REMARK    3  A    between atoms: C_4  and  C_10 
REMARK    4  A    between atoms: C_9  and  C_4 
REMARK    5  A    between atoms: C_8  and  C_9 
REMARK    6  A    between atoms: C_10  and  C_15 
ROOT
ATOM      1  C   UNL d   1      45.705 -16.037  43.912  0.00  0.00     0.039 A 
ATOM      2  C   UNL d   1      44.762 -14.778  44.437  0.00  0.00     0.084 A 
ATOM      3  C   UNL d   1      45.450 -15.427  43.359  0.00  0.00     0.005 A 
ATOM      4  C   UNL d   1      45.479 -15.989  44.690  0.00  0.00     0.005 A 
ATOM      5  C   UNL d   1      44.992 -14.820  43.628  0.00  0.00     0.019 A 
ATOM      6  C   UNL d   1      45.020 -15.379  44.954  0.00  0.00     0.019 A 
ENDROOT
BRANCH   2   7
ATOM      7  N   UNL d   1      44.304 -14.172  44.707  0.00  0.00    -0.212 NA
ATOM      8  C   UNL d   1      44.528 -13.400  44.616  0.00  0.00     0.259 C 
ATOM      9  O   UNL d   1      44.064 -12.766  44.890  0.00  0.00    -0.270 OA
BRANCH   8  10
ATOM     10  C   UNL d   1      45.242 -13.222  44.239  0.00  0.00     0.092 A 
ATOM     11  C   UNL d   1      46.065 -13.255  44.241  0.00  0.00     0.017 A 
ATOM     12  C   UNL d   1      46.449 -12.939  43.632  0.00  0.00     0.023 A 
ATOM     13  C   UNL d   1      46.481 -13.323  44.336  0.00  0.00    -0.027 A 
ATOM     14  C   UNL d   1      46.035 -12.583  43.010  0.00  0.00     0.009 A 
ATOM     15  C   UNL d   1      45.657 -13.289  44.332  0.00  0.00    -0.012 A 
ATOM     16  C   UNL d   1      45.248 -13.612  44.954  0.00  0.00    -0.018 A 
ATOM     17  C   UNL d   1      45.268 -12.929  43.699  0.00  0.00    -0.027 A 
ATOM     18  C   UNL d   1      45.282 -12.565  43.031  0.00  0.00     0.023 A 
ATOM     19  C   UNL d   1      44.853 -12.862  43.606  0.00  0.00     0.017 A 
ENDBRANCH   8  10
ENDBRANCH   2   7
BRANCH   1  20
ATOM     20  C   UNL d   1      46.177 -16.658  43.628  0.00  0.00     0.196 C 
ATOM     21  O   UNL d   1      46.629 -16.527  42.976  0.00  0.00    -0.287 OA
BRANCH  20  22
ATOM     22  C   UNL d   1      46.176 -17.388  44.009  0.00  0.00     0.044 C 
BRANCH  22  23
ATOM     23  C   UNL d   1      46.644 -18.009  43.721  0.00  0.00     0.028 C 
BRANCH  23  24
ATOM     24  C   UNL d   1      46.465 -18.788  43.928  0.00  0.00     0.100 A 
ATOM     25  O   UNL d   1      46.481 -19.123  44.668  0.00  0.00    -0.305 OA
ATOM     26  C   UNL d   1      46.267 -19.897  44.621  0.00  0.00     0.123 A 
ATOM     27  C   UNL d   1      46.108 -20.068  43.830  0.00  0.00     0.029 A 
ATOM     28  C   UNL d   1      46.230 -19.371  43.384  0.00  0.00     0.027 A 
ENDBRANCH  23  24
ENDBRANCH  22  23
ENDBRANCH  20  22
ENDBRANCH   1  20
TORSDOF 6
ENDMDL
