MODEL 1
REMARK VINA RESULT:     102.2      0.000      0.000
REMARK  3 active torsions:
REMARK  status: ('A' for Active; 'I' for Inactive)
REMARK    1  A    between atoms: C_8  and  N_1 
REMARK    2  A    between atoms: C_2  and  C_7 
REMARK    3  A    between atoms: C_7  and  C_9 
ROOT
ATOM      1  N   UNL d   1     -56.686 -99.592 -44.105  0.00  0.00    -0.242 N 
ATOM      2  C   UNL d   1     -56.887 -99.681 -43.301  0.00  0.00     0.267 A 
ATOM      3  C   UNL d   1     -55.900 -99.835 -44.194  0.00  0.00     0.267 A 
ATOM      4  C   UNL d   1     -55.613-100.072 -43.454  0.00  0.00     0.062 A 
ATOM      5  C   UNL d   1     -56.222 -99.977 -42.903  0.00  0.00     0.066 A 
ATOM      6  O   UNL d   1     -57.616 -99.504 -42.968  0.00  0.00    -0.267 OA
ATOM      7  O   UNL d   1     -55.476 -99.837 -44.905  0.00  0.00    -0.267 OA
ENDROOT
BRANCH   4   8
ATOM      8  C   UNL d   1     -54.855-100.354 -43.297  0.00  0.00     0.018 C 
BRANCH   8   9
ATOM      9  C   UNL d   1     -54.825-100.866 -42.657  0.00  0.00     0.045 A 
ATOM     10  N   UNL d   1     -54.833-101.686 -42.691  0.00  0.00    -0.308 N 
ATOM     11  C   UNL d   1     -54.795-101.981 -41.928  0.00  0.00     0.060 A 
ATOM     12  C   UNL d   1     -54.873-102.138 -43.383  0.00  0.00     0.099 C 
ATOM     13  C   UNL d   1     -54.785-102.746 -41.634  0.00  0.00     0.017 A 
ATOM     14  C   UNL d   1     -54.763-101.342 -41.413  0.00  0.00    -0.002 A 
ATOM     15  C   UNL d   1     -54.744-102.876 -40.816  0.00  0.00     0.002 A 
ATOM     16  C   UNL d   1     -54.712-102.227 -40.303  0.00  0.00    -0.000 A 
ATOM     17  C   UNL d   1     -54.722-101.466 -40.598  0.00  0.00    -0.003 A 
ATOM     18  C   UNL d   1     -54.782-100.649 -41.864  0.00  0.00     0.054 A 
ATOM     19  C   UNL d   1     -54.738-100.568 -41.040  0.00  0.00     0.010 C 
ATOM     20  C   UNL d   1     -54.758 -99.893 -41.522  0.00  0.00     0.010 C 
ENDBRANCH   8   9
ENDBRANCH   4   8
BRANCH   1  21
ATOM     21  C   UNL d   1     -57.174 -99.316 -44.700  0.00  0.00     0.070 A 
ATOM     22  C   UNL d   1     -57.978 -99.175 -44.553  0.00  0.00     0.016 A 
ATOM     23  C   UNL d   1     -58.463 -98.896 -45.159  0.00  0.00     0.001 A 
ATOM     24  C   UNL d   1     -58.289 -99.311 -43.811  0.00  0.00     0.001 A 
ATOM     25  C   UNL d   1     -59.259 -98.756 -45.013  0.00  0.00     0.000 A 
ATOM     26  C   UNL d   1     -58.153 -98.758 -45.906  0.00  0.00     0.000 A 
ATOM     27  C   UNL d   1     -59.575 -98.892 -44.270  0.00  0.00     0.000 A 
ATOM     28  C   UNL d   1     -59.085 -99.172 -43.666  0.00  0.00     0.000 A 
ATOM     29  C   UNL d   1     -57.349 -98.899 -46.054  0.00  0.00     0.002 A 
ATOM     30  C   UNL d   1     -56.860 -99.177 -45.453  0.00  0.00     0.018 A 
ENDBRANCH   1  21
TORSDOF 3
ENDMDL
