MODEL 1
REMARK VINA RESULT:     102.1      0.000      0.000
REMARK  7 active torsions:
REMARK  status: ('A' for Active; 'I' for Inactive)
REMARK    1  A    between atoms: C_11  and  C_1 
REMARK    2  A    between atoms: C_12  and  C_3 
REMARK    3  A    between atoms: C_10  and  C_5 
REMARK    4  A    between atoms: O_21  and  C_11 
REMARK    5  A    between atoms: O_22  and  C_12 
REMARK    6  A    between atoms: O_23  and  C_14 
REMARK    7  A    between atoms: O_24  and  C_17 
ROOT
ATOM      1  C   UNL d   1      60.887  48.573  51.464  0.00  0.00     0.075 A 
ATOM      2  C   UNL d   1      59.703  49.410  50.689  0.00  0.00     0.121 A 
ATOM      3  C   UNL d   1      60.541  49.238  51.818  0.00  0.00     0.099 A 
ATOM      4  C   UNL d   1      60.043  48.747  50.329  0.00  0.00     0.058 A 
ATOM      5  C   UNL d   1      60.639  48.329  50.724  0.00  0.00     0.014 A 
ATOM      6  S   UNL d   1      59.951  49.653  51.429  0.00  0.00    -0.062 SA
ATOM      7  N   UNL d   1      59.135  49.706  50.171  0.00  0.00    -0.195 NA
ATOM      8  C   UNL d   1      59.120  49.237  49.500  0.00  0.00     0.311 A 
ATOM      9  S   UNL d   1      59.683  48.640  49.595  0.00  0.00    -0.024 SA
ATOM     10  O   UNL d   1      58.633  49.335  48.841  0.00  0.00    -0.258 OA
ENDROOT
BRANCH   5  11
ATOM     11  C   UNL d   1      60.977  47.670  50.365  0.00  0.00     0.003 A 
ATOM     12  C   UNL d   1      60.808  46.921  50.644  0.00  0.00     0.026 A 
ATOM     13  C   UNL d   1      61.149  46.263  50.280  0.00  0.00     0.116 A 
ATOM     14  C   UNL d   1      61.658  46.364  49.637  0.00  0.00     0.116 A 
ATOM     15  C   UNL d   1      61.824  47.123  49.360  0.00  0.00     0.026 A 
ATOM     16  C   UNL d   1      61.486  47.774  49.720  0.00  0.00     0.002 A 
BRANCH  13  17
ATOM     17  O   UNL d   1      60.981  45.505  50.560  0.00  0.00    -0.326 OA
ATOM     18  C   UNL d   1      60.540  44.983  50.095  0.00  0.00     0.181 C 
ENDBRANCH  13  17
BRANCH  14  19
ATOM     19  O   UNL d   1      61.999  45.705  49.273  0.00  0.00    -0.326 OA
ATOM     20  C   UNL d   1      62.819  45.652  49.201  0.00  0.00     0.181 C 
ENDBRANCH  14  19
ENDBRANCH   5  11
BRANCH   1  21
ATOM     21  C   UNL d   1      61.479  48.158  51.857  0.00  0.00     0.296 C 
ATOM     22  O   UNL d   1      62.233  48.099  51.525  0.00  0.00    -0.259 OA
BRANCH  21  23
ATOM     23  O   UNL d   1      61.320  47.800  52.583  0.00  0.00    -0.296 OA
ATOM     24  C   UNL d   1      61.937  47.484  53.024  0.00  0.00     0.185 C 
ENDBRANCH  21  23
ENDBRANCH   1  21
BRANCH   3  25
ATOM     25  C   UNL d   1      60.790  49.482  52.558  0.00  0.00     0.302 C 
ATOM     26  O   UNL d   1      60.261  49.510  53.190  0.00  0.00    -0.259 OA
BRANCH  25  27
ATOM     27  O   UNL d   1      61.576  49.702  52.677  0.00  0.00    -0.295 OA
ATOM     28  C   UNL d   1      61.890  49.705  53.441  0.00  0.00     0.185 C 
ENDBRANCH  25  27
ENDBRANCH   3  25
TORSDOF 7
ENDMDL
