MODEL 1
REMARK VINA RESULT:      -8.2      0.000      0.000
REMARK  6 active torsions:
REMARK  status: ('A' for Active; 'I' for Inactive)
REMARK    1  A    between atoms: C_6  and  C_1 
REMARK    2  A    between atoms: N_8  and  C_5 
REMARK    3  A    between atoms: O_13  and  C_6 
REMARK       I    between atoms: C_7  and  N_8 
REMARK    4  A    between atoms: O_12  and  C_7 
REMARK    5  A    between atoms: C_16  and  O_12 
REMARK    6  A    between atoms: C_17  and  O_13 
ROOT
ATOM      1  C   UNL d   1      52.822  34.177  53.792  0.00  0.00     0.083 A 
ATOM      2  N   UNL d   1      53.823  34.383  54.793  0.00  0.00    -0.244 NA
ATOM      3  C   UNL d   1      53.267  34.684  54.244  0.00  0.00     0.087 A 
ATOM      4  C   UNL d   1      52.916  33.348  53.872  0.00  0.00     0.028 A 
ATOM      5  C   UNL d   1      53.461  33.045  54.410  0.00  0.00     0.104 A 
ATOM      6  C   UNL d   1      53.913  33.560  54.869  0.00  0.00     0.099 A 
ATOM      7  C   UNL d   1      53.177  35.506  54.167  0.00  0.00     0.021 C 
ATOM      8  C   UNL d   1      54.471  33.255  55.421  0.00  0.00     0.022 C 
ENDROOT
BRANCH   5   9
ATOM      9  N   UNL d   1      53.554  32.217  54.490  0.00  0.00    -0.184 NA
ATOM     10  C   UNL d   1      53.670  31.751  53.816  0.00  0.00     0.392 C 
ATOM     11  O   UNL d   1      53.695  32.094  53.058  0.00  0.00    -0.236 OA
BRANCH  10  12
ATOM     12  O   UNL d   1      53.763  30.927  53.889  0.00  0.00    -0.256 OA
BRANCH  12  13
ATOM     13  C   UNL d   1      53.342  30.411  53.406  0.00  0.00     0.128 C 
ATOM     14  C   UNL d   1      53.268  29.619  53.605  0.00  0.00     0.029 C 
ENDBRANCH  12  13
ENDBRANCH  10  12
ENDBRANCH   5   9
BRANCH   1  15
ATOM     15  C   UNL d   1      52.276  34.471  53.252  0.00  0.00     0.302 C 
ATOM     16  O   UNL d   1      52.528  34.913  52.602  0.00  0.00    -0.259 OA
BRANCH  15  17
ATOM     17  O   UNL d   1      51.475  34.320  53.367  0.00  0.00    -0.271 OA
BRANCH  17  18
ATOM     18  C   UNL d   1      50.959  34.378  52.728  0.00  0.00     0.126 C 
ATOM     19  C   UNL d   1      50.151  34.286  52.854  0.00  0.00     0.029 C 
ENDBRANCH  17  18
ENDBRANCH  15  17
ENDBRANCH   1  15
TORSDOF 6
ENDMDL
MODEL 2
REMARK VINA RESULT:      -8.1      0.841      3.376
REMARK  6 active torsions:
REMARK  status: ('A' for Active; 'I' for Inactive)
REMARK    1  A    between atoms: C_6  and  C_1 
REMARK    2  A    between atoms: N_8  and  C_5 
REMARK    3  A    between atoms: O_13  and  C_6 
REMARK       I    between atoms: C_7  and  N_8 
REMARK    4  A    between atoms: O_12  and  C_7 
REMARK    5  A    between atoms: C_16  and  O_12 
REMARK    6  A    between atoms: C_17  and  O_13 
ROOT
ATOM      1  C   UNL d   1      53.836  33.254  53.987  0.00  0.00     0.083 A 
ATOM      2  N   UNL d   1      53.801  34.397  54.846  0.00  0.00    -0.244 NA
ATOM      3  C   UNL d   1      54.116  33.650  54.639  0.00  0.00     0.087 A 
ATOM      4  C   UNL d   1      53.230  33.591  53.517  0.00  0.00     0.028 A 
ATOM      5  C   UNL d   1      52.915  34.327  53.716  0.00  0.00     0.104 A 
ATOM      6  C   UNL d   1      53.200  34.728  54.378  0.00  0.00     0.099 A 
ATOM      7  C   UNL d   1      54.717  33.318  55.107  0.00  0.00     0.021 C 
ATOM      8  C   UNL d   1      52.881  35.480  54.585  0.00  0.00     0.022 C 
ENDROOT
BRANCH   5   9
ATOM      9  N   UNL d   1      52.309  34.663  53.247  0.00  0.00    -0.184 NA
ATOM     10  C   UNL d   1      51.575  34.284  53.193  0.00  0.00     0.392 C 
ATOM     11  O   UNL d   1      51.430  33.573  53.599  0.00  0.00    -0.236 OA
BRANCH  10  12
ATOM     12  O   UNL d   1      50.969  34.615  52.727  0.00  0.00    -0.256 OA
BRANCH  12  13
ATOM     13  C   UNL d   1      50.237  34.245  52.666  0.00  0.00     0.128 C 
ATOM     14  C   UNL d   1      49.636  34.579  52.218  0.00  0.00     0.029 C 
ENDBRANCH  12  13
ENDBRANCH  10  12
ENDBRANCH   5   9
BRANCH   1  15
ATOM     15  C   UNL d   1      54.145  32.520  53.781  0.00  0.00     0.302 C 
ATOM     16  O   UNL d   1      54.886  32.464  53.425  0.00  0.00    -0.259 OA
BRANCH  15  17
ATOM     17  O   UNL d   1      53.705  31.841  53.936  0.00  0.00    -0.271 OA
BRANCH  17  18
ATOM     18  C   UNL d   1      53.884  31.146  53.533  0.00  0.00     0.126 C 
ATOM     19  C   UNL d   1      53.389  30.494  53.617  0.00  0.00     0.029 C 
ENDBRANCH  17  18
ENDBRANCH  15  17
ENDBRANCH   1  15
TORSDOF 6
ENDMDL
MODEL 3
REMARK VINA RESULT:      -7.4      1.410      2.592
REMARK  6 active torsions:
REMARK  status: ('A' for Active; 'I' for Inactive)
REMARK    1  A    between atoms: C_6  and  C_1 
REMARK    2  A    between atoms: N_8  and  C_5 
REMARK    3  A    between atoms: O_13  and  C_6 
REMARK       I    between atoms: C_7  and  N_8 
REMARK    4  A    between atoms: O_12  and  C_7 
REMARK    5  A    between atoms: C_16  and  O_12 
REMARK    6  A    between atoms: C_17  and  O_13 
ROOT
ATOM      1  C   UNL d   1      53.038  34.254  54.227  0.00  0.00     0.083 A 
ATOM      2  N   UNL d   1      52.190  34.768  53.196  0.00  0.00    -0.244 NA
ATOM      3  C   UNL d   1      52.729  34.889  53.826  0.00  0.00     0.087 A 
ATOM      4  C   UNL d   1      52.821  33.474  54.015  0.00  0.00     0.028 A 
ATOM      5  C   UNL d   1      52.292  33.348  53.396  0.00  0.00     0.104 A 
ATOM      6  C   UNL d   1      51.977  33.992  52.988  0.00  0.00     0.099 A 
ATOM      7  C   UNL d   1      52.942  35.665  54.034  0.00  0.00     0.021 C 
ATOM      8  C   UNL d   1      51.436  33.868  52.355  0.00  0.00     0.022 C 
ENDROOT
BRANCH   5   9
ATOM      9  N   UNL d   1      52.075  32.567  53.184  0.00  0.00    -0.184 NA
ATOM     10  C   UNL d   1      52.658  32.032  52.942  0.00  0.00     0.392 C 
ATOM     11  O   UNL d   1      53.458  32.257  52.907  0.00  0.00    -0.236 OA
BRANCH  10  12
ATOM     12  O   UNL d   1      52.447  31.255  52.730  0.00  0.00    -0.256 OA
BRANCH  12  13
ATOM     13  C   UNL d   1      52.934  30.620  52.922  0.00  0.00     0.128 C 
ATOM     14  C   UNL d   1      52.632  29.858  52.957  0.00  0.00     0.029 C 
ENDBRANCH  12  13
ENDBRANCH  10  12
ENDBRANCH   5   9
BRANCH   1  15
ATOM     15  C   UNL d   1      53.568  34.372  54.846  0.00  0.00     0.302 C 
ATOM     16  O   UNL d   1      53.300  34.641  55.578  0.00  0.00    -0.259 OA
BRANCH  15  17
ATOM     17  O   UNL d   1      54.367  34.218  54.727  0.00  0.00    -0.271 OA
BRANCH  17  18
ATOM     18  C   UNL d   1      54.838  34.015  55.370  0.00  0.00     0.126 C 
ATOM     19  C   UNL d   1      55.621  33.796  55.242  0.00  0.00     0.029 C 
ENDBRANCH  17  18
ENDBRANCH  15  17
ENDBRANCH   1  15
TORSDOF 6
ENDMDL
MODEL 4
REMARK VINA RESULT:      -6.6      1.774      4.174
REMARK  6 active torsions:
REMARK  status: ('A' for Active; 'I' for Inactive)
REMARK    1  A    between atoms: C_6  and  C_1 
REMARK    2  A    between atoms: N_8  and  C_5 
REMARK    3  A    between atoms: O_13  and  C_6 
REMARK       I    between atoms: C_7  and  N_8 
REMARK    4  A    between atoms: O_12  and  C_7 
REMARK    5  A    between atoms: C_16  and  O_12 
REMARK    6  A    between atoms: C_17  and  O_13 
ROOT
ATOM      1  C   UNL d   1      53.262  30.685  53.498  0.00  0.00     0.083 A 
ATOM      2  N   UNL d   1      52.492  31.498  52.607  0.00  0.00    -0.244 NA
ATOM      3  C   UNL d   1      52.776  30.749  52.850  0.00  0.00     0.087 A 
ATOM      4  C   UNL d   1      53.483  31.369  53.928  0.00  0.00     0.028 A 
ATOM      5  C   UNL d   1      53.207  32.110  53.695  0.00  0.00     0.104 A 
ATOM      6  C   UNL d   1      52.713  32.174  53.037  0.00  0.00     0.099 A 
ATOM      7  C   UNL d   1      52.555  30.072  52.421  0.00  0.00     0.021 C 
ATOM      8  C   UNL d   1      52.429  32.929  52.794  0.00  0.00     0.022 C 
ENDROOT
BRANCH   5   9
ATOM      9  N   UNL d   1      53.428  32.793  54.125  0.00  0.00    -0.184 NA
ATOM     10  C   UNL d   1      54.225  33.013  54.163  0.00  0.00     0.392 C 
ATOM     11  O   UNL d   1      54.811  32.564  53.780  0.00  0.00    -0.236 OA
BRANCH  10  12
ATOM     12  O   UNL d   1      54.450  33.692  54.590  0.00  0.00    -0.256 OA
BRANCH  12  13
ATOM     13  C   UNL d   1      55.143  33.700  55.033  0.00  0.00     0.128 C 
ATOM     14  C   UNL d   1      55.298  34.313  55.554  0.00  0.00     0.029 C 
ENDBRANCH  12  13
ENDBRANCH  10  12
ENDBRANCH   5   9
BRANCH   1  15
ATOM     15  C   UNL d   1      53.542  29.950  53.738  0.00  0.00     0.302 C 
ATOM     16  O   UNL d   1      54.145  29.576  53.318  0.00  0.00    -0.259 OA
BRANCH  15  17
ATOM     17  O   UNL d   1      53.213  29.591  54.402  0.00  0.00    -0.271 OA
BRANCH  17  18
ATOM     18  C   UNL d   1      53.538  28.889  54.683  0.00  0.00     0.126 C 
ATOM     19  C   UNL d   1      53.287  28.591  55.407  0.00  0.00     0.029 C 
ENDBRANCH  17  18
ENDBRANCH  15  17
ENDBRANCH   1  15
TORSDOF 6
ENDMDL
MODEL 5
REMARK VINA RESULT:      -6.3      1.873      2.965
REMARK  6 active torsions:
REMARK  status: ('A' for Active; 'I' for Inactive)
REMARK    1  A    between atoms: C_6  and  C_1 
REMARK    2  A    between atoms: N_8  and  C_5 
REMARK    3  A    between atoms: O_13  and  C_6 
REMARK       I    between atoms: C_7  and  N_8 
REMARK    4  A    between atoms: O_12  and  C_7 
REMARK    5  A    between atoms: C_16  and  O_12 
REMARK    6  A    between atoms: C_17  and  O_13 
ROOT
ATOM      1  C   UNL d   1      53.829  32.533  53.522  0.00  0.00     0.083 A 
ATOM      2  N   UNL d   1      52.548  32.452  52.890  0.00  0.00    -0.244 NA
ATOM      3  C   UNL d   1      53.187  32.903  53.189  0.00  0.00     0.087 A 
ATOM      4  C   UNL d   1      53.857  31.698  53.570  0.00  0.00     0.028 A 
ATOM      5  C   UNL d   1      53.231  31.247  53.277  0.00  0.00     0.104 A 
ATOM      6  C   UNL d   1      52.579  31.623  52.939  0.00  0.00     0.099 A 
ATOM      7  C   UNL d   1      53.156  33.732  53.140  0.00  0.00     0.021 C 
ATOM      8  C   UNL d   1      51.938  31.166  52.640  0.00  0.00     0.022 C 
ENDROOT
BRANCH   5   9
ATOM      9  N   UNL d   1      53.259  30.412  53.325  0.00  0.00    -0.184 NA
ATOM     10  C   UNL d   1      53.289  30.045  54.066  0.00  0.00     0.392 C 
ATOM     11  O   UNL d   1      53.291  30.494  54.767  0.00  0.00    -0.236 OA
BRANCH  10  12
ATOM     12  O   UNL d   1      53.317  29.214  54.119  0.00  0.00    -0.256 OA
BRANCH  12  13
ATOM     13  C   UNL d   1      53.332  28.839  54.851  0.00  0.00     0.128 C 
ATOM     14  C   UNL d   1      53.622  28.076  54.924  0.00  0.00     0.029 C 
ENDBRANCH  12  13
ENDBRANCH  10  12
ENDBRANCH   5   9
BRANCH   1  15
ATOM     15  C   UNL d   1      54.458  32.975  53.816  0.00  0.00     0.302 C 
ATOM     16  O   UNL d   1      55.124  33.113  53.350  0.00  0.00    -0.259 OA
BRANCH  15  17
ATOM     17  O   UNL d   1      54.414  33.279  54.579  0.00  0.00    -0.271 OA
BRANCH  17  18
ATOM     18  C   UNL d   1      55.093  33.583  54.931  0.00  0.00     0.126 C 
ATOM     19  C   UNL d   1      55.073  33.797  55.725  0.00  0.00     0.029 C 
ENDBRANCH  17  18
ENDBRANCH  15  17
ENDBRANCH   1  15
TORSDOF 6
ENDMDL
MODEL 6
REMARK VINA RESULT:      -6.1      1.551      3.769
REMARK  6 active torsions:
REMARK  status: ('A' for Active; 'I' for Inactive)
REMARK    1  A    between atoms: C_6  and  C_1 
REMARK    2  A    between atoms: N_8  and  C_5 
REMARK    3  A    between atoms: O_13  and  C_6 
REMARK       I    between atoms: C_7  and  N_8 
REMARK    4  A    between atoms: O_12  and  C_7 
REMARK    5  A    between atoms: C_16  and  O_12 
REMARK    6  A    between atoms: C_17  and  O_13 
ROOT
ATOM      1  C   UNL d   1      53.585  32.483  53.618  0.00  0.00     0.083 A 
ATOM      2  N   UNL d   1      52.846  31.334  53.194  0.00  0.00    -0.244 NA
ATOM      3  C   UNL d   1      53.571  31.704  53.389  0.00  0.00     0.087 A 
ATOM      4  C   UNL d   1      52.874  32.923  53.661  0.00  0.00     0.028 A 
ATOM      5  C   UNL d   1      52.156  32.565  53.471  0.00  0.00     0.104 A 
ATOM      6  C   UNL d   1      52.142  31.774  53.238  0.00  0.00     0.099 A 
ATOM      7  C   UNL d   1      54.275  31.265  53.345  0.00  0.00     0.021 C 
ATOM      8  C   UNL d   1      51.410  31.404  53.042  0.00  0.00     0.022 C 
ENDROOT
BRANCH   5   9
ATOM      9  N   UNL d   1      51.445  33.005  53.514  0.00  0.00    -0.184 NA
ATOM     10  C   UNL d   1      51.341  33.664  53.024  0.00  0.00     0.392 C 
ATOM     11  O   UNL d   1      51.933  33.897  52.489  0.00  0.00    -0.236 OA
BRANCH  10  12
ATOM     12  O   UNL d   1      50.635  34.105  53.063  0.00  0.00    -0.256 OA
BRANCH  12  13
ATOM     13  C   UNL d   1      50.321  34.456  52.389  0.00  0.00     0.128 C 
ATOM     14  C   UNL d   1      49.571  34.787  52.402  0.00  0.00     0.029 C 
ENDBRANCH  12  13
ENDBRANCH  10  12
ENDBRANCH   5   9
BRANCH   1  15
ATOM     15  C   UNL d   1      54.297  32.848  53.810  0.00  0.00     0.302 C 
ATOM     16  O   UNL d   1      54.875  32.963  53.233  0.00  0.00    -0.259 OA
BRANCH  15  17
ATOM     17  O   UNL d   1      54.426  33.096  54.584  0.00  0.00    -0.271 OA
BRANCH  17  18
ATOM     18  C   UNL d   1      55.043  33.617  54.741  0.00  0.00     0.126 C 
ATOM     19  C   UNL d   1      55.170  33.869  55.514  0.00  0.00     0.029 C 
ENDBRANCH  17  18
ENDBRANCH  15  17
ENDBRANCH   1  15
TORSDOF 6
ENDMDL
