MODEL 1
REMARK VINA RESULT:      44.6      0.000      0.000
REMARK  6 active torsions:
REMARK  status: ('A' for Active; 'I' for Inactive)
REMARK       I    between atoms: N_2  and  C_1 
REMARK    1  A    between atoms: C_14  and  C_1 
REMARK    2  A    between atoms: C_6  and  N_2 
REMARK    3  A    between atoms: C_4  and  O_13 
REMARK    4  A    between atoms: O_13  and  C_18 
REMARK    5  A    between atoms: C_19  and  C_14 
REMARK    6  A    between atoms: C_18  and  C_19 
ROOT
ATOM      1  C   UNL d   1     -49.538  26.977  33.723  0.00  0.00     0.078 C 
ENDROOT
BRANCH   1   2
ATOM      2  C   UNL d   1     -49.495  26.187  33.497  0.00  0.00     0.328 C 
ATOM      3  N   UNL d   1     -50.187  25.723  33.459  0.00  0.00    -0.365 NA
ATOM      4  O   UNL d   1     -48.768  25.851  33.306  0.00  0.00    -0.251 OA
BRANCH   3   5
ATOM      5  C   UNL d   1     -50.866  25.267  33.421  0.00  0.00     0.135 A 
ATOM      6  C   UNL d   1     -51.611  25.640  33.343  0.00  0.00     0.033 A 
ATOM      7  C   UNL d   1     -52.292  25.170  33.306  0.00  0.00     0.009 A 
ATOM      8  C   UNL d   1     -52.240  24.347  33.345  0.00  0.00     0.035 A 
ATOM      9  C   UNL d   1     -51.505  23.979  33.422  0.00  0.00     0.009 A 
ATOM     10 BR   UNL d   1     -52.930  23.897  33.306  0.00  0.00    -0.049 Br
ATOM     11  C   UNL d   1     -50.814  24.444  33.460  0.00  0.00     0.033 A 
ENDBRANCH   3   5
ENDBRANCH   1   2
BRANCH   1  12
ATOM     12  C   UNL d   1     -48.858  27.401  33.884  0.00  0.00     0.033 C 
BRANCH  12  13
ATOM     13  C   UNL d   1     -48.864  28.025  34.413  0.00  0.00     0.123 C 
BRANCH  13  14
ATOM     14  O   UNL d   1     -48.358  28.035  35.056  0.00  0.00    -0.305 OA
BRANCH  14  15
ATOM     15  C   UNL d   1     -48.010  28.740  35.300  0.00  0.00     0.100 A 
ATOM     16  C   UNL d   1     -48.135  29.025  36.074  0.00  0.00     0.023 A 
ATOM     17  C   UNL d   1     -48.608  28.599  36.592  0.00  0.00     0.002 C 
ATOM     18  C   UNL d   1     -47.785  29.731  36.316  0.00  0.00     0.002 A 
ATOM     19  C   UNL d   1     -47.309  30.160  35.795  0.00  0.00     0.000 A 
ATOM     20  C   UNL d   1     -47.177  29.888  35.025  0.00  0.00     0.002 A 
ATOM     21  C   UNL d   1     -47.532  29.170  34.777  0.00  0.00     0.025 A 
ENDBRANCH  14  15
ENDBRANCH  13  14
ENDBRANCH  12  13
ENDBRANCH   1  12
TORSDOF 6
ENDMDL
MODEL 2
REMARK VINA RESULT:      45.2      2.378      5.720
REMARK  6 active torsions:
REMARK  status: ('A' for Active; 'I' for Inactive)
REMARK       I    between atoms: N_2  and  C_1 
REMARK    1  A    between atoms: C_14  and  C_1 
REMARK    2  A    between atoms: C_6  and  N_2 
REMARK    3  A    between atoms: C_4  and  O_13 
REMARK    4  A    between atoms: O_13  and  C_18 
REMARK    5  A    between atoms: C_19  and  C_14 
REMARK    6  A    between atoms: C_18  and  C_19 
ROOT
ATOM      1  C   UNL d   1     -49.141  27.523  34.212  0.00  0.00     0.078 C 
ENDROOT
BRANCH   1   2
ATOM      2  C   UNL d   1     -48.682  27.668  34.879  0.00  0.00     0.328 C 
ATOM      3  N   UNL d   1     -48.383  28.433  35.025  0.00  0.00    -0.365 NA
ATOM      4  O   UNL d   1     -48.514  27.058  35.407  0.00  0.00    -0.251 OA
BRANCH   3   5
ATOM      5  C   UNL d   1     -48.089  29.184  35.169  0.00  0.00     0.135 A 
ATOM      6  C   UNL d   1     -48.085  29.751  34.553  0.00  0.00     0.033 A 
ATOM      7  C   UNL d   1     -47.786  30.508  34.709  0.00  0.00     0.009 A 
ATOM      8  C   UNL d   1     -47.496  30.701  35.456  0.00  0.00     0.035 A 
ATOM      9  C   UNL d   1     -47.500  30.142  36.063  0.00  0.00     0.009 A 
ATOM     10 BR   UNL d   1     -47.203  31.461  35.591  0.00  0.00    -0.049 Br
ATOM     11  C   UNL d   1     -47.799  29.378  35.917  0.00  0.00     0.033 A 
ENDBRANCH   3   5
ENDBRANCH   1   2
BRANCH   1  12
ATOM     12  C   UNL d   1     -49.622  26.864  34.174  0.00  0.00     0.033 C 
BRANCH  12  13
ATOM     13  C   UNL d   1     -50.085  26.715  33.516  0.00  0.00     0.123 C 
BRANCH  13  14
ATOM     14  O   UNL d   1     -50.286  25.949  33.308  0.00  0.00    -0.305 OA
BRANCH  14  15
ATOM     15  C   UNL d   1     -51.074  25.712  33.308  0.00  0.00     0.100 A 
ATOM     16  C   UNL d   1     -51.269  24.901  33.308  0.00  0.00     0.023 A 
ATOM     17  C   UNL d   1     -50.671  24.339  33.309  0.00  0.00     0.002 C 
ATOM     18  C   UNL d   1     -52.060  24.666  33.307  0.00  0.00     0.002 A 
ATOM     19  C   UNL d   1     -52.662  25.231  33.306  0.00  0.00     0.000 A 
ATOM     20  C   UNL d   1     -52.482  26.038  33.306  0.00  0.00     0.002 A 
ATOM     21  C   UNL d   1     -51.678  26.279  33.307  0.00  0.00     0.025 A 
ENDBRANCH  14  15
ENDBRANCH  13  14
ENDBRANCH  12  13
ENDBRANCH   1  12
TORSDOF 6
ENDMDL
MODEL 3
REMARK VINA RESULT:      46.6      2.881      5.864
REMARK  6 active torsions:
REMARK  status: ('A' for Active; 'I' for Inactive)
REMARK       I    between atoms: N_2  and  C_1 
REMARK    1  A    between atoms: C_14  and  C_1 
REMARK    2  A    between atoms: C_6  and  N_2 
REMARK    3  A    between atoms: C_4  and  O_13 
REMARK    4  A    between atoms: O_13  and  C_18 
REMARK    5  A    between atoms: C_19  and  C_14 
REMARK    6  A    between atoms: C_18  and  C_19 
ROOT
ATOM      1  C   UNL d   1     -48.189  28.530  34.649  0.00  0.00     0.078 C 
ENDROOT
BRANCH   1   2
ATOM      2  C   UNL d   1     -48.184  29.153  35.186  0.00  0.00     0.328 C 
ATOM      3  N   UNL d   1     -48.022  29.930  34.927  0.00  0.00    -0.365 NA
ATOM      4  O   UNL d   1     -48.338  29.013  35.984  0.00  0.00    -0.251 OA
BRANCH   3   5
ATOM      5  C   UNL d   1     -47.864  30.692  34.674  0.00  0.00     0.135 A 
ATOM      6  C   UNL d   1     -48.389  31.067  34.140  0.00  0.00     0.033 A 
ATOM      7  C   UNL d   1     -48.221  31.838  33.889  0.00  0.00     0.009 A 
ATOM      8  C   UNL d   1     -47.549  32.233  34.160  0.00  0.00     0.035 A 
ATOM      9  C   UNL d   1     -47.032  31.863  34.686  0.00  0.00     0.009 A 
ATOM     10 BR   UNL d   1     -47.399  33.001  33.899  0.00  0.00    -0.049 Br
ATOM     11  C   UNL d   1     -47.192  31.086  34.944  0.00  0.00     0.033 A 
ENDBRANCH   3   5
ENDBRANCH   1   2
BRANCH   1  12
ATOM     12  C   UNL d   1     -48.846  28.051  34.575  0.00  0.00     0.033 C 
BRANCH  12  13
ATOM     13  C   UNL d   1     -48.941  27.560  33.927  0.00  0.00     0.123 C 
BRANCH  13  14
ATOM     14  O   UNL d   1     -49.652  27.530  33.523  0.00  0.00    -0.305 OA
BRANCH  14  15
ATOM     15  C   UNL d   1     -50.066  26.821  33.461  0.00  0.00     0.100 A 
ATOM     16  C   UNL d   1     -50.898  26.823  33.407  0.00  0.00     0.023 A 
ATOM     17  C   UNL d   1     -51.304  27.537  33.415  0.00  0.00     0.002 C 
ATOM     18  C   UNL d   1     -51.310  26.111  33.345  0.00  0.00     0.002 A 
ATOM     19  C   UNL d   1     -50.902  25.394  33.337  0.00  0.00     0.000 A 
ATOM     20  C   UNL d   1     -50.077  25.378  33.390  0.00  0.00     0.002 A 
ATOM     21  C   UNL d   1     -49.656  26.101  33.453  0.00  0.00     0.025 A 
ENDBRANCH  14  15
ENDBRANCH  13  14
ENDBRANCH  12  13
ENDBRANCH   1  12
TORSDOF 6
ENDMDL
