MODEL 1
REMARK VINA RESULT:      -5.1      0.000      0.000
REMARK  5 active torsions:
REMARK  status: ('A' for Active; 'I' for Inactive)
REMARK    1  A    between atoms: N_9  and  S_1 
REMARK    2  A    between atoms: C_11  and  S_1 
REMARK    3  A    between atoms: C_5  and  C_10 
REMARK    4  A    between atoms: C_12  and  N_9 
REMARK    5  A    between atoms: C_10  and  C_12 
ROOT
ATOM      1  C   UNL d   1     -41.254-122.164 -52.235  0.00  0.00     0.041 C 
ENDROOT
BRANCH   1   2
ATOM      2  C   UNL d   1     -41.456-122.528 -51.521  0.00  0.00     0.090 A 
ATOM      3  N   UNL d   1     -42.033-122.256 -50.993  0.00  0.00    -0.238 NA
ATOM      4  C   UNL d   1     -42.052-122.784 -50.356  0.00  0.00     0.111 A 
ATOM      5  C   UNL d   1     -42.550-122.732 -49.691  0.00  0.00     0.028 C 
ATOM      6  S   UNL d   1     -41.494-123.376 -50.488  0.00  0.00    -0.066 SA
ATOM      7  C   UNL d   1     -41.123-123.216 -51.214  0.00  0.00     0.056 A 
ENDBRANCH   1   2
BRANCH   1   8
ATOM      8  C   UNL d   1     -41.638-122.365 -52.930  0.00  0.00     0.114 C 
BRANCH   8   9
ATOM      9  N   UNL d   1     -41.532-121.893 -53.615  0.00  0.00    -0.157 NA
BRANCH   9  10
ATOM     10  S   UNL d   1     -41.863-122.139 -54.330  0.00  0.00     0.286 S 
ATOM     11  O   UNL d   1     -42.606-121.872 -54.071  0.00  0.00    -0.198 OA
ATOM     12  O   UNL d   1     -41.123-122.406 -54.591  0.00  0.00    -0.198 OA
BRANCH  10  13
ATOM     13  C   UNL d   1     -42.201-122.381 -55.039  0.00  0.00     0.117 C 
ATOM     14  C   UNL d   1     -42.241-121.861 -55.668  0.00  0.00     0.014 C 
ENDBRANCH  10  13
ENDBRANCH   9  10
ENDBRANCH   8   9
ENDBRANCH   1   8
TORSDOF 5
ENDMDL
MODEL 2
REMARK VINA RESULT:      -4.8      1.587      3.870
REMARK  5 active torsions:
REMARK  status: ('A' for Active; 'I' for Inactive)
REMARK    1  A    between atoms: N_9  and  S_1 
REMARK    2  A    between atoms: C_11  and  S_1 
REMARK    3  A    between atoms: C_5  and  C_10 
REMARK    4  A    between atoms: C_12  and  N_9 
REMARK    5  A    between atoms: C_10  and  C_12 
ROOT
ATOM      1  C   UNL d   1     -41.165-122.298 -52.452  0.00  0.00     0.041 C 
ENDROOT
BRANCH   1   2
ATOM      2  C   UNL d   1     -41.345-122.467 -53.241  0.00  0.00     0.090 A 
ATOM      3  N   UNL d   1     -41.783-121.979 -53.746  0.00  0.00    -0.238 NA
ATOM      4  C   UNL d   1     -41.829-122.360 -54.478  0.00  0.00     0.111 A 
ATOM      5  C   UNL d   1     -42.218-122.074 -55.157  0.00  0.00     0.028 C 
ATOM      6  S   UNL d   1     -41.424-123.076 -54.428  0.00  0.00    -0.066 SA
ATOM      7  C   UNL d   1     -41.123-123.142 -53.657  0.00  0.00     0.056 A 
ENDBRANCH   1   2
BRANCH   1   8
ATOM      8  C   UNL d   1     -41.576-122.659 -51.843  0.00  0.00     0.114 C 
BRANCH   8   9
ATOM      9  N   UNL d   1     -41.548-122.332 -51.071  0.00  0.00    -0.157 NA
BRANCH   9  10
ATOM     10  S   UNL d   1     -41.899-122.742 -50.447  0.00  0.00     0.286 S 
ATOM     11  O   UNL d   1     -41.186-123.149 -50.320  0.00  0.00    -0.198 OA
ATOM     12  O   UNL d   1     -42.612-122.337 -50.570  0.00  0.00    -0.198 OA
BRANCH  10  13
ATOM     13  C   UNL d   1     -42.242-123.154 -49.823  0.00  0.00     0.117 C 
ATOM     14  C   UNL d   1     -42.636-122.746 -49.235  0.00  0.00     0.014 C 
ENDBRANCH  10  13
ENDBRANCH   9  10
ENDBRANCH   8   9
ENDBRANCH   1   8
TORSDOF 5
ENDMDL
MODEL 3
REMARK VINA RESULT:      -3.2      1.978      2.886
REMARK  5 active torsions:
REMARK  status: ('A' for Active; 'I' for Inactive)
REMARK    1  A    between atoms: N_9  and  S_1 
REMARK    2  A    between atoms: C_11  and  S_1 
REMARK    3  A    between atoms: C_5  and  C_10 
REMARK    4  A    between atoms: C_12  and  N_9 
REMARK    5  A    between atoms: C_10  and  C_12 
ROOT
ATOM      1  C   UNL d   1     -42.360-123.324 -49.630  0.00  0.00     0.041 C 
ENDROOT
BRANCH   1   2
ATOM      2  C   UNL d   1     -42.100-123.355 -48.847  0.00  0.00     0.090 A 
ATOM      3  N   UNL d   1     -42.445-122.950 -48.212  0.00  0.00    -0.238 NA
ATOM      4  C   UNL d   1     -42.010-123.139 -47.534  0.00  0.00     0.111 A 
ATOM      5  C   UNL d   1     -42.157-122.858 -46.764  0.00  0.00     0.028 C 
ATOM      6  S   UNL d   1     -41.403-123.655 -47.746  0.00  0.00    -0.066 SA
ATOM      7  C   UNL d   1     -41.459-123.789 -48.563  0.00  0.00     0.056 A 
ENDBRANCH   1   2
BRANCH   1   8
ATOM      8  C   UNL d   1     -41.836-123.158 -50.238  0.00  0.00     0.114 C 
BRANCH   8   9
ATOM      9  N   UNL d   1     -42.105-123.167 -51.033  0.00  0.00    -0.157 NA
BRANCH   9  10
ATOM     10  S   UNL d   1     -41.612-122.881 -51.629  0.00  0.00     0.286 S 
ATOM     11  O   UNL d   1     -41.873-122.109 -51.467  0.00  0.00    -0.198 OA
ATOM     12  O   UNL d   1     -41.349-123.650 -51.793  0.00  0.00    -0.198 OA
BRANCH  10  13
ATOM     13  C   UNL d   1     -41.123-122.588 -52.222  0.00  0.00     0.117 C 
ATOM     14  C   UNL d   1     -41.424-122.458 -52.970  0.00  0.00     0.014 C 
ENDBRANCH  10  13
ENDBRANCH   9  10
ENDBRANCH   8   9
ENDBRANCH   1   8
TORSDOF 5
ENDMDL
