MODEL 1
REMARK VINA RESULT:      46.2      0.000      0.000
REMARK  6 active torsions:
REMARK  status: ('A' for Active; 'I' for Inactive)
REMARK    1  A    between atoms: C_8  and  C_1 
REMARK    2  A    between atoms: C_6  and  O_10 
REMARK    3  A    between atoms: C_7  and  C_6 
REMARK    4  A    between atoms: C_18  and  C_8 
REMARK    5  A    between atoms: O_10  and  C_12 
REMARK    6  A    between atoms: O_20  and  C_13 
ROOT
ATOM      1  C   UNL d   1      14.561  13.477  -0.693  0.00  0.00     0.139 A 
ATOM      2  C   UNL d   1      14.221  12.502  -1.542  0.00  0.00     0.064 A 
ATOM      3  C   UNL d   1      14.666  12.674  -0.866  0.00  0.00     0.220 A 
ATOM      4  C   UNL d   1      13.841  13.193  -1.789  0.00  0.00     0.105 A 
ATOM      5  O   UNL d   1      14.052  13.797  -1.263  0.00  0.00    -0.304 OA
ATOM      6  C   UNL d   1      13.359  13.175  -2.453  0.00  0.00     0.050 A 
ATOM      7  C   UNL d   1      14.116  11.799  -1.962  0.00  0.00     0.007 A 
ATOM      8  C   UNL d   1      13.258  12.477  -2.866  0.00  0.00     0.105 A 
ATOM      9  O   UNL d   1      15.133  12.145  -0.437  0.00  0.00    -0.284 OA
ATOM     10  C   UNL d   1      13.630  11.789  -2.629  0.00  0.00     0.025 A 
ENDROOT
BRANCH   8  11
ATOM     11  O   UNL d   1      12.773  12.466  -3.533  0.00  0.00    -0.273 OA
BRANCH  11  12
ATOM     12  C   UNL d   1      13.098  12.507  -4.294  0.00  0.00     0.302 C 
ATOM     13  O   UNL d   1      13.356  11.813  -4.661  0.00  0.00    -0.259 OA
BRANCH  12  14
ATOM     14  C   UNL d   1      13.169  13.223  -4.689  0.00  0.00     0.086 A 
ATOM     15  C   UNL d   1      13.649  13.272  -5.371  0.00  0.00     0.099 A 
ATOM     16  C   UNL d   1      13.720  13.988  -5.765  0.00  0.00     0.024 A 
ATOM     17  C   UNL d   1      13.327  14.657  -5.498  0.00  0.00     0.002 A 
ATOM     18  C   UNL d   1      12.845  14.607  -4.812  0.00  0.00     0.000 A 
ATOM     19  C   UNL d   1      12.771  13.891  -4.415  0.00  0.00     0.007 A 
BRANCH  15  20
ATOM     20  O   UNL d   1      14.042  12.595  -5.634  0.00  0.00    -0.328 OA
ATOM     21  C   UNL d   1      14.495  12.637  -6.325  0.00  0.00     0.181 C 
ENDBRANCH  15  20
ENDBRANCH  12  14
ENDBRANCH  11  12
ENDBRANCH   8  11
BRANCH   1  22
ATOM     22  C   UNL d   1      14.903  13.889  -0.064  0.00  0.00     0.028 C 
BRANCH  22  23
ATOM     23  C   UNL d   1      15.229  14.640  -0.185  0.00  0.00     0.005 A 
ATOM     24  C   UNL d   1      16.045  14.727  -0.208  0.00  0.00     0.021 A 
ATOM     25  C   UNL d   1      16.376  15.471  -0.327  0.00  0.00     0.099 A 
ATOM     26  N   UNL d   1      15.886  16.135  -0.425  0.00  0.00    -0.242 NA
ATOM     27  C   UNL d   1      15.062  16.042  -0.400  0.00  0.00     0.099 A 
ATOM     28  C   UNL d   1      14.737  15.292  -0.280  0.00  0.00     0.021 A 
ENDBRANCH  22  23
ENDBRANCH   1  22
TORSDOF 6
ENDMDL
