MODEL 1
REMARK VINA RESULT:      -6.3      0.000      0.000
REMARK  3 active torsions:
REMARK  status: ('A' for Active; 'I' for Inactive)
REMARK    1  A    between atoms: N_2  and  C_12 
REMARK    2  A    between atoms: N_10  and  C_6 
REMARK       I    between atoms: C_11  and  N_10 
REMARK    3  A    between atoms: C_12  and  C_11 
ROOT
ATOM      1  C   UNL d   1     -42.002-121.498 -53.876  0.00  0.00     0.283 A 
ATOM      2  N   UNL d   1     -42.168-121.460 -54.704  0.00  0.00    -0.169 NA
ATOM      3  C   UNL d   1     -41.680-122.286 -53.765  0.00  0.00     0.080 A 
ATOM      4  C   UNL d   1     -41.961-122.160 -55.036  0.00  0.00     0.282 A 
ATOM      5  C   UNL d   1     -41.411-122.662 -53.085  0.00  0.00     0.089 A 
ATOM      6  C   UNL d   1     -41.672-122.657 -54.500  0.00  0.00     0.064 A 
ATOM      7  O   UNL d   1     -42.107-120.927 -53.255  0.00  0.00    -0.265 OA
ATOM      8  O   UNL d   1     -42.051-122.319 -55.860  0.00  0.00    -0.265 OA
ATOM      9  C   UNL d   1     -41.123-123.444 -53.147  0.00  0.00     0.019 A 
ATOM     10  C   UNL d   1     -41.383-123.435 -54.548  0.00  0.00     0.005 A 
ATOM     11  C   UNL d   1     -41.123-123.797 -53.886  0.00  0.00     0.002 A 
ENDROOT
BRANCH   5  12
ATOM     12  N   UNL d   1     -41.419-122.264 -52.295  0.00  0.00    -0.207 NA
ATOM     13  C   UNL d   1     -41.644-122.732 -51.647  0.00  0.00     0.297 C 
ATOM     14  O   UNL d   1     -41.848-123.509 -51.715  0.00  0.00    -0.264 OA
BRANCH  13  15
ATOM     15  C   UNL d   1     -41.649-122.355 -50.914  0.00  0.00     0.148 C 
BRANCH  15  16
ATOM     16  N   UNL d   1     -42.176-122.627 -50.348  0.00  0.00    -0.236 N 
ATOM     17  C   UNL d   1     -42.995-122.482 -50.256  0.00  0.00     0.267 A 
ATOM     18  C   UNL d   1     -43.240-122.909 -49.575  0.00  0.00     0.066 A 
ATOM     19  O   UNL d   1     -43.480-122.000 -50.750  0.00  0.00    -0.267 OA
ATOM     20  C   UNL d   1     -42.586-123.296 -49.274  0.00  0.00     0.066 A 
ATOM     21  C   UNL d   1     -41.918-123.120 -49.758  0.00  0.00     0.267 A 
ATOM     22  O   UNL d   1     -41.124-123.381 -49.680  0.00  0.00    -0.267 OA
ENDBRANCH  15  16
ENDBRANCH  13  15
ENDBRANCH   5  12
TORSDOF 3
ENDMDL
MODEL 2
REMARK VINA RESULT:      -4.9      1.002      4.148
REMARK  3 active torsions:
REMARK  status: ('A' for Active; 'I' for Inactive)
REMARK    1  A    between atoms: N_2  and  C_12 
REMARK    2  A    between atoms: N_10  and  C_6 
REMARK       I    between atoms: C_11  and  N_10 
REMARK    3  A    between atoms: C_12  and  C_11 
ROOT
ATOM      1  C   UNL d   1     -42.915-122.117 -50.640  0.00  0.00     0.283 A 
ATOM      2  N   UNL d   1     -43.266-122.350 -49.907  0.00  0.00    -0.169 NA
ATOM      3  C   UNL d   1     -42.261-122.664 -50.739  0.00  0.00     0.080 A 
ATOM      4  C   UNL d   1     -42.852-122.972 -49.614  0.00  0.00     0.282 A 
ATOM      5  C   UNL d   1     -41.705-122.727 -51.341  0.00  0.00     0.089 A 
ATOM      6  C   UNL d   1     -42.259-123.170 -50.089  0.00  0.00     0.064 A 
ATOM      7  O   UNL d   1     -43.117-121.499 -51.188  0.00  0.00    -0.265 OA
ATOM      8  O   UNL d   1     -43.049-123.349 -48.885  0.00  0.00    -0.265 OA
ATOM      9  C   UNL d   1     -41.123-123.323 -51.288  0.00  0.00     0.019 A 
ATOM     10  C   UNL d   1     -41.674-123.759 -50.048  0.00  0.00     0.005 A 
ATOM     11  C   UNL d   1     -41.136-123.817 -50.635  0.00  0.00     0.002 A 
ENDROOT
BRANCH   5  12
ATOM     12  N   UNL d   1     -41.707-122.184 -52.040  0.00  0.00    -0.207 NA
ATOM     13  C   UNL d   1     -41.482-122.516 -52.767  0.00  0.00     0.297 C 
ATOM     14  O   UNL d   1     -41.271-123.289 -52.851  0.00  0.00    -0.264 OA
BRANCH  13  15
ATOM     15  C   UNL d   1     -41.486-122.004 -53.414  0.00  0.00     0.148 C 
BRANCH  15  16
ATOM     16  N   UNL d   1     -41.806-122.279 -54.116  0.00  0.00    -0.236 N 
ATOM     17  C   UNL d   1     -41.660-122.985 -54.540  0.00  0.00     0.267 A 
ATOM     18  C   UNL d   1     -42.151-122.964 -55.221  0.00  0.00     0.066 A 
ATOM     19  O   UNL d   1     -41.123-123.599 -54.324  0.00  0.00    -0.267 OA
ATOM     20  C   UNL d   1     -42.576-122.266 -55.201  0.00  0.00     0.066 A 
ATOM     21  C   UNL d   1     -42.361-121.835 -54.508  0.00  0.00     0.267 A 
ATOM     22  O   UNL d   1     -42.640-121.091 -54.240  0.00  0.00    -0.267 OA
ENDBRANCH  15  16
ENDBRANCH  13  15
ENDBRANCH   5  12
TORSDOF 3
ENDMDL
