MODEL 1
REMARK VINA RESULT:      61.4      0.000      0.000
REMARK  4 active torsions:
REMARK  status: ('A' for Active; 'I' for Inactive)
REMARK    1  A    between atoms: C_8  and  C_6 
REMARK    2  A    between atoms: C_9  and  C_8 
REMARK       I    between atoms: N_11  and  C_9 
REMARK       I    between atoms: C_10  and  N_12 
REMARK    3  A    between atoms: C_17  and  N_11 
REMARK    4  A    between atoms: N_12  and  C_18 
ROOT
ATOM      1  N   UNL d   1      14.997  16.116  -0.567  0.00  0.00    -0.207 NA
ATOM      2  N   UNL d   1      14.758  15.230  -1.971  0.00  0.00    -0.240 NA
ATOM      3  C   UNL d   1      14.826  15.331  -0.695  0.00  0.00     0.297 A 
ATOM      4  C   UNL d   1      15.108  16.729  -1.109  0.00  0.00     0.086 A 
ATOM      5  C   UNL d   1      14.902  15.963  -2.309  0.00  0.00     0.083 A 
ATOM      6  C   UNL d   1      14.745  15.034  -1.172  0.00  0.00     0.144 A 
ATOM      7  C   UNL d   1      15.069  16.686  -1.941  0.00  0.00     0.035 A 
ATOM      8  O   UNL d   1      14.752  14.870  -0.018  0.00  0.00    -0.264 OA
ATOM      9  C   UNL d   1      15.198  17.369  -2.387  0.00  0.00     0.003 A 
ATOM     10  C   UNL d   1      14.863  15.921  -3.133  0.00  0.00     0.019 A 
ATOM     11  C   UNL d   1      15.275  17.448  -0.738  0.00  0.00     0.019 A 
ATOM     12  C   UNL d   1      14.993  16.611  -3.592  0.00  0.00     0.002 A 
ATOM     13  C   UNL d   1      15.403  18.127  -1.191  0.00  0.00     0.002 A 
ATOM     14  C   UNL d   1      15.364  18.087  -2.015  0.00  0.00     0.000 A 
ATOM     15  C   UNL d   1      15.159  17.328  -3.221  0.00  0.00     0.000 A 
ENDROOT
BRANCH   6  16
ATOM     16  C   UNL d   1      14.581  14.238  -1.035  0.00  0.00     0.086 C 
BRANCH  16  17
ATOM     17  C   UNL d   1      15.169  13.753  -0.699  0.00  0.00     0.281 C 
ATOM     18  N   UNL d   1      15.257  12.973  -0.962  0.00  0.00    -0.208 NA
ATOM     19  O   UNL d   1      15.663  14.045  -0.107  0.00  0.00    -0.265 OA
BRANCH  18  20
ATOM     20  C   UNL d   1      14.765  12.675  -1.555  0.00  0.00     0.085 A 
ATOM     21  C   UNL d   1      15.087  12.460  -2.280  0.00  0.00     0.021 A 
ATOM     22  C   UNL d   1      14.602  12.163  -2.875  0.00  0.00     0.021 A 
ATOM     23  C   UNL d   1      13.787  12.081  -2.741  0.00  0.00     0.085 A 
ATOM     24  C   UNL d   1      13.467  12.298  -2.012  0.00  0.00     0.021 A 
ATOM     25  C   UNL d   1      13.956  12.595  -1.420  0.00  0.00     0.021 A 
BRANCH  23  26
ATOM     26  N   UNL d   1      13.308  11.790  -3.323  0.00  0.00    -0.208 NA
ATOM     27  C   UNL d   1      13.259  12.174  -4.040  0.00  0.00     0.279 C 
ATOM     28  O   UNL d   1      13.688  12.848  -4.174  0.00  0.00    -0.265 OA
ATOM     29  C   UNL d   1      12.775  11.881  -4.630  0.00  0.00     0.068 C 
ENDBRANCH  23  26
ENDBRANCH  18  20
ENDBRANCH  16  17
ENDBRANCH   6  16
TORSDOF 4
ENDMDL
