MODEL 1
REMARK VINA RESULT:      14.9      0.000      0.000
REMARK  3 active torsions:
REMARK  status: ('A' for Active; 'I' for Inactive)
REMARK    1  A    between atoms: N_6  and  C_2 
REMARK    2  A    between atoms: C_8  and  C_3 
REMARK       I    between atoms: C_7  and  N_6 
REMARK    3  A    between atoms: C_10  and  C_7 
ROOT
ATOM      1  N   UNL d   1     -51.531  24.758  33.574  0.00  0.00    -0.200 NA
ATOM      2  C   UNL d   1     -51.495  23.939  33.552  0.00  0.00     0.216 A 
ATOM      3  C   UNL d   1     -50.768  25.052  33.422  0.00  0.00     0.172 A 
ATOM      4  N   UNL d   1     -50.267  24.407  33.307  0.00  0.00    -0.187 NA
ATOM      5  S   UNL d   1     -50.716  23.715  33.387  0.00  0.00     0.054 SA
ENDROOT
BRANCH   3   6
ATOM      6  C   UNL d   1     -50.555  25.845  33.392  0.00  0.00     0.036 A 
ATOM      7  C   UNL d   1     -49.762  26.059  33.372  0.00  0.00     0.003 A 
ATOM      8  C   UNL d   1     -49.556  26.859  33.342  0.00  0.00     0.000 A 
ATOM      9  C   UNL d   1     -50.143  27.438  33.332  0.00  0.00     0.000 A 
ATOM     10  C   UNL d   1     -50.939  27.223  33.351  0.00  0.00     0.000 A 
ATOM     11  C   UNL d   1     -51.140  26.421  33.381  0.00  0.00     0.003 A 
ENDBRANCH   3   6
BRANCH   2  12
ATOM     12  N   UNL d   1     -52.128  23.426  33.673  0.00  0.00    -0.181 NA
ATOM     13  C   UNL d   1     -52.899  23.699  33.574  0.00  0.00     0.281 C 
ATOM     14  O   UNL d   1     -53.038  24.480  33.354  0.00  0.00    -0.265 OA
BRANCH  13  15
ATOM     15  C   UNL d   1     -53.528  23.191  33.694  0.00  0.00     0.063 C 
ATOM     16  C   UNL d   1     -54.258  23.332  33.333  0.00  0.00     0.005 C 
ENDBRANCH  13  15
ENDBRANCH   2  12
TORSDOF 3
ENDMDL
