MODEL 1
REMARK VINA RESULT:      -5.4      0.000      0.000
REMARK  2 active torsions:
REMARK  status: ('A' for Active; 'I' for Inactive)
REMARK    1  A    between atoms: C_3  and  C_1 
REMARK       I    between atoms: N_7  and  C_3 
REMARK    2  A    between atoms: C_11  and  N_7 
ROOT
ATOM      1  C   UNL d   1      57.998  -0.623  30.431  0.00  0.00     0.121 A 
ATOM      2  C   UNL d   1      58.594  -0.089  30.222  0.00  0.00     0.305 A 
ATOM      3  C   UNL d   1      58.002  -1.376  30.107  0.00  0.00     0.012 A 
ATOM      4  O   UNL d   1      59.190  -0.303  29.695  0.00  0.00    -0.273 OA
ATOM      5  C   UNL d   1      58.592  -1.604  29.578  0.00  0.00     0.023 A 
ATOM      6  C   UNL d   1      59.188  -1.062  29.373  0.00  0.00     0.103 A 
ATOM      7  O   UNL d   1      58.593   0.682  30.551  0.00  0.00    -0.259 OA
ATOM      8  C   UNL d   1      58.599  -2.360  29.251  0.00  0.00     0.002 A 
ATOM      9  C   UNL d   1      59.784  -1.285  28.842  0.00  0.00     0.025 A 
ATOM     10  C   UNL d   1      59.181  -2.577  28.732  0.00  0.00     0.000 A 
ATOM     11  C   UNL d   1      59.776  -2.034  28.528  0.00  0.00     0.002 A 
ENDROOT
BRANCH   1  12
ATOM     12  C   UNL d   1      57.402  -0.400  30.962  0.00  0.00     0.284 C 
ATOM     13  N   UNL d   1      57.343  -0.792  31.691  0.00  0.00    -0.208 NA
ATOM     14  O   UNL d   1      56.885   0.199  30.759  0.00  0.00    -0.265 OA
BRANCH  13  15
ATOM     15  C   UNL d   1      56.742  -0.561  32.216  0.00  0.00     0.085 A 
ATOM     16  C   UNL d   1      56.702   0.215  32.508  0.00  0.00     0.021 A 
ATOM     17  C   UNL d   1      56.105   0.429  33.024  0.00  0.00     0.031 A 
ATOM     18  C   UNL d   1      55.543  -0.119  33.259  0.00  0.00     0.140 A 
ATOM     19  C   UNL d   1      55.576  -0.898  32.972  0.00  0.00     0.031 A 
ATOM     20  F   UNL d   1      54.950   0.096  33.773  0.00  0.00    -0.204 F 
ATOM     21  C   UNL d   1      56.180  -1.118  32.448  0.00  0.00     0.021 A 
ENDBRANCH  13  15
ENDBRANCH   1  12
TORSDOF 2
ENDMDL
MODEL 2
REMARK VINA RESULT:      -5.3      2.245      4.601
REMARK  2 active torsions:
REMARK  status: ('A' for Active; 'I' for Inactive)
REMARK    1  A    between atoms: C_3  and  C_1 
REMARK       I    between atoms: N_7  and  C_3 
REMARK    2  A    between atoms: C_11  and  N_7 
ROOT
ATOM      1  C   UNL d   1      56.943  -0.473  31.656  0.00  0.00     0.121 A 
ATOM      2  C   UNL d   1      56.665  -1.232  31.831  0.00  0.00     0.305 A 
ATOM      3  C   UNL d   1      56.693   0.160  32.114  0.00  0.00     0.012 A 
ATOM      4  O   UNL d   1      56.144  -1.361  32.456  0.00  0.00    -0.273 OA
ATOM      5  C   UNL d   1      56.172   0.047  32.743  0.00  0.00     0.023 A 
ATOM      6  C   UNL d   1      55.899  -0.719  32.912  0.00  0.00     0.103 A 
ATOM      7  O   UNL d   1      56.917  -1.882  31.365  0.00  0.00    -0.259 OA
ATOM      8  C   UNL d   1      55.921   0.682  33.204  0.00  0.00     0.002 A 
ATOM      9  C   UNL d   1      55.374  -0.840  33.543  0.00  0.00     0.025 A 
ATOM     10  C   UNL d   1      55.410   0.563  33.819  0.00  0.00     0.000 A 
ATOM     11  C   UNL d   1      55.136  -0.203  33.988  0.00  0.00     0.002 A 
ENDROOT
BRANCH   1  12
ATOM     12  C   UNL d   1      57.466  -0.352  31.025  0.00  0.00     0.284 C 
ATOM     13  N   UNL d   1      58.051   0.232  31.091  0.00  0.00    -0.208 NA
ATOM     14  O   UNL d   1      57.397  -0.809  30.351  0.00  0.00    -0.265 OA
BRANCH  13  15
ATOM     15  C   UNL d   1      58.571   0.346  30.454  0.00  0.00     0.085 A 
ATOM     16  C   UNL d   1      58.288   0.417  29.677  0.00  0.00     0.021 A 
ATOM     17  C   UNL d   1      58.810   0.529  29.058  0.00  0.00     0.031 A 
ATOM     18  C   UNL d   1      59.617   0.571  29.198  0.00  0.00     0.140 A 
ATOM     19  C   UNL d   1      59.909   0.500  29.972  0.00  0.00     0.031 A 
ATOM     20  F   UNL d   1      60.136   0.682  28.581  0.00  0.00    -0.204 F 
ATOM     21  C   UNL d   1      59.381   0.387  30.603  0.00  0.00     0.021 A 
ENDBRANCH  13  15
ENDBRANCH   1  12
TORSDOF 2
ENDMDL
