MODEL 1
REMARK VINA RESULT:      -5.9      0.000      0.000
REMARK  4 active torsions:
REMARK  status: ('A' for Active; 'I' for Inactive)
REMARK    1  A    between atoms: C_2  and  N_1 
REMARK       I    between atoms: C_3  and  N_1 
REMARK    2  A    between atoms: C_4  and  C_3 
REMARK    3  A    between atoms: C_6  and  C_4 
REMARK    4  A    between atoms: C_10  and  C_6 
ROOT
ATOM      1  N   UNL d   1      57.897  -0.480  30.086  0.00  0.00    -0.208 NA
ATOM      2  C   UNL d   1      57.765   0.056  30.704  0.00  0.00     0.279 C 
ATOM      3  O   UNL d   1      58.308   0.663  30.838  0.00  0.00    -0.265 OA
ENDROOT
BRANCH   1   4
ATOM      4  C   UNL d   1      58.568  -0.404  29.610  0.00  0.00     0.085 A 
ATOM      5  C   UNL d   1      58.893  -1.072  29.273  0.00  0.00     0.021 A 
ATOM      6  C   UNL d   1      59.568  -1.007  28.792  0.00  0.00     0.021 A 
ATOM      7  C   UNL d   1      58.561  -1.817  29.402  0.00  0.00     0.022 A 
ATOM      8  C   UNL d   1      59.894  -1.672  28.455  0.00  0.00     0.099 A 
ATOM      9  C   UNL d   1      59.900  -0.262  28.663  0.00  0.00     0.002 A 
ATOM     10  N   UNL d   1      59.566  -2.408  28.583  0.00  0.00    -0.242 NA
ATOM     11  C   UNL d   1      58.895  -2.485  29.060  0.00  0.00     0.099 A 
ATOM     12  C   UNL d   1      59.565   0.411  29.007  0.00  0.00     0.002 A 
ATOM     13  C   UNL d   1      58.897   0.333  29.482  0.00  0.00     0.019 A 
ENDBRANCH   1   4
BRANCH   2  14
ATOM     14  C   UNL d   1      57.099  -0.014  31.183  0.00  0.00     0.062 C 
BRANCH  14  15
ATOM     15  C   UNL d   1      57.167   0.080  31.997  0.00  0.00     0.005 C 
BRANCH  15  16
ATOM     16  C   UNL d   1      56.520  -0.094  32.482  0.00  0.00     0.000 A 
ATOM     17  C   UNL d   1      56.114   0.521  32.856  0.00  0.00     0.000 A 
ATOM     18  C   UNL d   1      55.469   0.355  33.340  0.00  0.00     0.000 A 
ATOM     19  C   UNL d   1      55.225  -0.430  33.453  0.00  0.00     0.000 A 
ATOM     20  C   UNL d   1      55.629  -1.044  33.081  0.00  0.00     0.000 A 
ATOM     21  C   UNL d   1      56.276  -0.879  32.595  0.00  0.00     0.000 A 
ENDBRANCH  15  16
ENDBRANCH  14  15
ENDBRANCH   2  14
TORSDOF 4
ENDMDL
MODEL 2
REMARK VINA RESULT:      -3.9      1.571      5.025
REMARK  4 active torsions:
REMARK  status: ('A' for Active; 'I' for Inactive)
REMARK    1  A    between atoms: C_2  and  N_1 
REMARK       I    between atoms: C_3  and  N_1 
REMARK    2  A    between atoms: C_4  and  C_3 
REMARK    3  A    between atoms: C_6  and  C_4 
REMARK    4  A    between atoms: C_10  and  C_6 
ROOT
ATOM      1  N   UNL d   1      57.348  -0.126  31.994  0.00  0.00    -0.208 NA
ATOM      2  C   UNL d   1      57.518  -0.392  31.228  0.00  0.00     0.279 C 
ATOM      3  O   UNL d   1      57.059  -0.991  30.895  0.00  0.00    -0.265 OA
ENDROOT
BRANCH   1   4
ATOM      4  C   UNL d   1      56.722  -0.462  32.418  0.00  0.00     0.085 A 
ATOM      5  C   UNL d   1      56.562  -0.189  33.170  0.00  0.00     0.021 A 
ATOM      6  C   UNL d   1      55.936  -0.519  33.605  0.00  0.00     0.021 A 
ATOM      7  C   UNL d   1      57.015   0.413  33.509  0.00  0.00     0.022 A 
ATOM      8  C   UNL d   1      55.774  -0.249  34.356  0.00  0.00     0.099 A 
ATOM      9  C   UNL d   1      55.484  -1.120  33.267  0.00  0.00     0.002 A 
ATOM     10  N   UNL d   1      56.221   0.346  34.690  0.00  0.00    -0.242 NA
ATOM     11  C   UNL d   1      56.847   0.682  34.266  0.00  0.00     0.099 A 
ATOM     12  C   UNL d   1      55.651  -1.392  32.504  0.00  0.00     0.002 A 
ATOM     13  C   UNL d   1      56.275  -1.057  32.083  0.00  0.00     0.019 A 
ENDBRANCH   1   4
BRANCH   2  14
ATOM     14  C   UNL d   1      58.140  -0.063  30.800  0.00  0.00     0.062 C 
BRANCH  14  15
ATOM     15  C   UNL d   1      58.415  -0.438  30.122  0.00  0.00     0.005 C 
BRANCH  15  16
ATOM     16  C   UNL d   1      58.984  -0.064  29.652  0.00  0.00     0.000 A 
ATOM     17  C   UNL d   1      59.774  -0.063  29.891  0.00  0.00     0.000 A 
ATOM     18  C   UNL d   1      60.345   0.308  29.428  0.00  0.00     0.000 A 
ATOM     19  C   UNL d   1      60.126   0.682  28.720  0.00  0.00     0.000 A 
ATOM     20  C   UNL d   1      59.339   0.682  28.480  0.00  0.00     0.000 A 
ATOM     21  C   UNL d   1      58.765   0.310  28.944  0.00  0.00     0.000 A 
ENDBRANCH  15  16
ENDBRANCH  14  15
ENDBRANCH   2  14
TORSDOF 4
ENDMDL
MODEL 3
REMARK VINA RESULT:      -3.5      1.591      5.072
REMARK  4 active torsions:
REMARK  status: ('A' for Active; 'I' for Inactive)
REMARK    1  A    between atoms: C_2  and  N_1 
REMARK       I    between atoms: C_3  and  N_1 
REMARK    2  A    between atoms: C_4  and  C_3 
REMARK    3  A    between atoms: C_6  and  C_4 
REMARK    4  A    between atoms: C_10  and  C_6 
ROOT
ATOM      1  N   UNL d   1      56.831  -0.143  32.333  0.00  0.00    -0.208 NA
ATOM      2  C   UNL d   1      57.449   0.132  31.855  0.00  0.00     0.279 C 
ATOM      3  O   UNL d   1      57.985   0.681  32.159  0.00  0.00    -0.265 OA
ENDROOT
BRANCH   1   4
ATOM      4  C   UNL d   1      56.755   0.134  33.108  0.00  0.00     0.085 A 
ATOM      5  C   UNL d   1      56.009   0.197  33.435  0.00  0.00     0.021 A 
ATOM      6  C   UNL d   1      55.922   0.474  34.214  0.00  0.00     0.021 A 
ATOM      7  C   UNL d   1      55.338  -0.011  33.003  0.00  0.00     0.022 A 
ATOM      8  C   UNL d   1      55.180   0.537  34.543  0.00  0.00     0.099 A 
ATOM      9  C   UNL d   1      56.593   0.682  34.645  0.00  0.00     0.002 A 
ATOM     10  N   UNL d   1      54.516   0.332  34.116  0.00  0.00    -0.242 NA
ATOM     11  C   UNL d   1      54.591   0.055  33.340  0.00  0.00     0.099 A 
ATOM     12  C   UNL d   1      57.346   0.616  34.308  0.00  0.00     0.002 A 
ATOM     13  C   UNL d   1      57.420   0.340  33.536  0.00  0.00     0.019 A 
ENDBRANCH   1   4
BRANCH   2  14
ATOM     14  C   UNL d   1      57.531  -0.139  31.081  0.00  0.00     0.062 C 
BRANCH  14  15
ATOM     15  C   UNL d   1      58.011   0.270  30.552  0.00  0.00     0.005 C 
BRANCH  15  16
ATOM     16  C   UNL d   1      58.260  -0.104  29.857  0.00  0.00     0.000 A 
ATOM     17  C   UNL d   1      58.462  -0.905  29.875  0.00  0.00     0.000 A 
ATOM     18  C   UNL d   1      58.711  -1.282  29.186  0.00  0.00     0.000 A 
ATOM     19  C   UNL d   1      58.759  -0.858  28.474  0.00  0.00     0.000 A 
ATOM     20  C   UNL d   1      58.558  -0.060  28.456  0.00  0.00     0.000 A 
ATOM     21  C   UNL d   1      58.308   0.320  29.145  0.00  0.00     0.000 A 
ENDBRANCH  15  16
ENDBRANCH  14  15
ENDBRANCH   2  14
TORSDOF 4
ENDMDL
MODEL 4
REMARK VINA RESULT:      -3.0      9.297      9.606
REMARK  4 active torsions:
REMARK  status: ('A' for Active; 'I' for Inactive)
REMARK    1  A    between atoms: C_2  and  N_1 
REMARK       I    between atoms: C_3  and  N_1 
REMARK    2  A    between atoms: C_4  and  C_3 
REMARK    3  A    between atoms: C_6  and  C_4 
REMARK    4  A    between atoms: C_10  and  C_6 
ROOT
ATOM      1  N   UNL d   1      58.693  -9.817  31.573  0.00  0.00    -0.208 NA
ATOM      2  C   UNL d   1      58.471  -9.710  32.364  0.00  0.00     0.279 C 
ATOM      3  O   UNL d   1      57.675  -9.603  32.551  0.00  0.00    -0.265 OA
ENDROOT
BRANCH   1   4
ATOM      4  C   UNL d   1      58.116  -9.817  30.979  0.00  0.00     0.085 A 
ATOM      5  C   UNL d   1      58.353  -9.817  30.198  0.00  0.00     0.021 A 
ATOM      6  C   UNL d   1      57.782  -9.817  29.594  0.00  0.00     0.021 A 
ATOM      7  C   UNL d   1      59.153  -9.818  29.997  0.00  0.00     0.022 A 
ATOM      8  C   UNL d   1      58.015  -9.817  28.814  0.00  0.00     0.099 A 
ATOM      9  C   UNL d   1      56.982  -9.816  29.795  0.00  0.00     0.002 A 
ATOM     10  N   UNL d   1      58.806  -9.817  28.615  0.00  0.00    -0.242 NA
ATOM     11  C   UNL d   1      59.383  -9.818  29.208  0.00  0.00     0.099 A 
ATOM     12  C   UNL d   1      56.750  -9.816  30.589  0.00  0.00     0.002 A 
ATOM     13  C   UNL d   1      57.324  -9.816  31.178  0.00  0.00     0.019 A 
ENDBRANCH   1   4
BRANCH   2  14
ATOM     14  C   UNL d   1      59.039  -9.709  32.960  0.00  0.00     0.062 C 
BRANCH  14  15
ATOM     15  C   UNL d   1      58.925  -9.251  33.634  0.00  0.00     0.005 C 
BRANCH  15  16
ATOM     16  C   UNL d   1      59.477  -9.290  34.250  0.00  0.00     0.000 A 
ATOM     17  C   UNL d   1      59.260  -9.630  34.971  0.00  0.00     0.000 A 
ATOM     18  C   UNL d   1      59.804  -9.672  35.587  0.00  0.00     0.000 A 
ATOM     19  C   UNL d   1      60.571  -9.372  35.485  0.00  0.00     0.000 A 
ATOM     20  C   UNL d   1      60.789  -9.033  34.767  0.00  0.00     0.000 A 
ATOM     21  C   UNL d   1      60.244  -8.990  34.148  0.00  0.00     0.000 A 
ENDBRANCH  15  16
ENDBRANCH  14  15
ENDBRANCH   2  14
TORSDOF 4
ENDMDL
