MODEL 1
REMARK VINA RESULT:      11.2      0.000      0.000
REMARK  2 active torsions:
REMARK  status: ('A' for Active; 'I' for Inactive)
REMARK    1  A    between atoms: C_6  and  C_1 
REMARK    2  A    between atoms: C_11  and  C_6 
ROOT
ATOM      1  C   UNL d   1     -54.749-101.482 -36.793  0.00  0.00     0.059 A 
ATOM      2  C   UNL d   1     -54.759-101.935 -36.107  0.00  0.00     0.085 A 
ATOM      3  N   UNL d   1     -54.754-101.447 -35.436  0.00  0.00    -0.245 NA
ATOM      4  C   UNL d   1     -54.737-100.680 -36.553  0.00  0.00     0.022 A 
ATOM      5  C   UNL d   1     -54.740-100.653 -35.722  0.00  0.00     0.082 A 
ATOM      6  C   UNL d   1     -54.772-102.754 -36.140  0.00  0.00     0.021 C 
ATOM      7  C   UNL d   1     -54.724 -99.980 -36.986  0.00  0.00     0.002 A 
ATOM      8  C   UNL d   1     -54.731 -99.927 -35.325  0.00  0.00     0.019 A 
ATOM      9  C   UNL d   1     -54.715 -99.252 -36.573  0.00  0.00     0.000 A 
ATOM     10  C   UNL d   1     -54.718 -99.234 -35.772  0.00  0.00     0.002 A 
ENDROOT
BRANCH   1  11
ATOM     11  C   UNL d   1     -54.750-101.773 -37.571  0.00  0.00     0.208 C 
ATOM     12  O   UNL d   1     -54.751-101.264 -38.212  0.00  0.00    -0.286 OA
BRANCH  11  13
ATOM     13  C   UNL d   1     -54.751-102.574 -37.697  0.00  0.00     0.110 C 
ATOM     14 CL   UNL d   1     -54.742-102.853 -38.454  0.00  0.00    -0.078 Cl
ENDBRANCH  11  13
ENDBRANCH   1  11
TORSDOF 2
ENDMDL
