MODEL 1
REMARK VINA RESULT:      70.2      0.000      0.000
REMARK  5 active torsions:
REMARK  status: ('A' for Active; 'I' for Inactive)
REMARK    1  A    between atoms: O_4  and  C_1 
REMARK    2  A    between atoms: C_9  and  C_2 
REMARK    3  A    between atoms: C_5  and  O_4 
REMARK    4  A    between atoms: C_13  and  C_5 
REMARK    5  A    between atoms: N_10  and  C_9 
ROOT
ATOM      1  C   UNL d   1     -51.025  24.686  33.462  0.00  0.00     0.122 A 
ATOM      2  C   UNL d   1     -51.103  25.496  33.373  0.00  0.00     0.043 A 
ATOM      3  C   UNL d   1     -50.281  24.346  33.500  0.00  0.00     0.105 A 
ATOM      4  C   UNL d   1     -49.608  24.821  33.447  0.00  0.00     0.030 A 
ATOM      5  C   UNL d   1     -49.686  25.632  33.358  0.00  0.00     0.059 A 
ATOM      6  C   UNL d   1     -50.430  25.972  33.320  0.00  0.00     0.015 A 
ATOM      7  N   UNL d   1     -50.206  23.541  33.589  0.00  0.00    -0.242 NA
ATOM      8 CL   UNL d   1     -49.003  26.082  33.308  0.00  0.00    -0.082 Cl
ATOM      9  C   UNL d   1     -48.868  24.487  33.485  0.00  0.00     0.004 A 
ATOM     10  C   UNL d   1     -49.463  23.201  33.627  0.00  0.00     0.099 A 
ATOM     11  C   UNL d   1     -48.789  23.676  33.574  0.00  0.00     0.021 A 
ENDROOT
BRANCH   1  12
ATOM     12  O   UNL d   1     -51.624  24.250  33.511  0.00  0.00    -0.271 OA
BRANCH  12  13
ATOM     13  C   UNL d   1     -52.044  23.631  34.108  0.00  0.00     0.300 C 
ATOM     14  O   UNL d   1     -51.425  23.194  34.756  0.00  0.00    -0.259 OA
BRANCH  13  15
ATOM     15  C   UNL d   1     -52.856  23.485  34.074  0.00  0.00     0.064 A 
ATOM     16  C   UNL d   1     -53.233  23.450  33.338  0.00  0.00     0.005 A 
ATOM     17  C   UNL d   1     -54.048  23.304  33.306  0.00  0.00     0.000 A 
ATOM     18  C   UNL d   1     -54.488  23.191  34.005  0.00  0.00     0.000 A 
ATOM     19  C   UNL d   1     -54.099  23.228  34.733  0.00  0.00     0.000 A 
ATOM     20  C   UNL d   1     -53.283  23.375  34.766  0.00  0.00     0.005 A 
ENDBRANCH  13  15
ENDBRANCH  12  13
ENDBRANCH   1  12
BRANCH   2  21
ATOM     21  C   UNL d   1     -51.820  26.043  33.312  0.00  0.00     0.082 C 
BRANCH  21  22
ATOM     22  N   UNL d   1     -51.846  26.732  33.734  0.00  0.00    -0.299 N 
ATOM     23  C   UNL d   1     -52.020  27.435  33.367  0.00  0.00     0.107 A 
ATOM     24  C   UNL d   1     -52.048  28.140  33.794  0.00  0.00     0.142 A 
ATOM     25  O   UNL d   1     -51.898  28.128  34.597  0.00  0.00    -0.300 OA
ATOM     26  C   UNL d   1     -51.721  27.416  34.970  0.00  0.00     0.142 A 
ATOM     27  C   UNL d   1     -51.697  26.728  34.537  0.00  0.00     0.107 A 
ENDBRANCH  21  22
ENDBRANCH   2  21
TORSDOF 5
ENDMDL
