MODEL 1
REMARK VINA RESULT:      53.7      0.000      0.000
REMARK  7 active torsions:
REMARK  status: ('A' for Active; 'I' for Inactive)
REMARK    1  A    between atoms: C_3  and  C_1 
REMARK    2  A    between atoms: C_9  and  N_2 
REMARK    3  A    between atoms: C_6  and  C_3 
REMARK    4  A    between atoms: C_8  and  C_3 
REMARK       I    between atoms: N_11  and  C_6 
REMARK    5  A    between atoms: C_26  and  C_7 
REMARK    6  A    between atoms: C_21  and  N_11 
REMARK    7  A    between atoms: C_12  and  C_21 
ROOT
ATOM      1  C   UNL d   1      13.688  13.787  -3.508  0.00  0.00     0.103 A 
ATOM      2  N   UNL d   1      13.875  13.222  -2.940  0.00  0.00    -0.269 N 
ATOM      3  S   UNL d   1      13.271  13.413  -4.114  0.00  0.00    -0.064 SA
ATOM      4  C   UNL d   1      13.575  12.494  -3.189  0.00  0.00     0.271 A 
ATOM      5  C   UNL d   1      13.202  12.615  -3.916  0.00  0.00     0.087 A 
ATOM      6  O   UNL d   1      13.638  11.780  -2.785  0.00  0.00    -0.266 OA
ENDROOT
BRANCH   1   7
ATOM      7  C   UNL d   1      13.884  14.592  -3.480  0.00  0.00     0.101 C 
BRANCH   7   8
ATOM      8  C   UNL d   1      14.270  14.949  -4.118  0.00  0.00     0.283 C 
ATOM      9  N   UNL d   1      13.869  15.473  -4.603  0.00  0.00    -0.204 NA
ATOM     10  O   UNL d   1      15.067  14.774  -4.264  0.00  0.00    -0.265 OA
BRANCH   9  11
ATOM     11  C   UNL d   1      14.256  15.830  -5.240  0.00  0.00     0.127 C 
BRANCH  11  12
ATOM     12  C   UNL d   1      13.916  16.467  -5.635  0.00  0.00     0.119 A 
ATOM     13  O   UNL d   1      13.241  16.453  -6.106  0.00  0.00    -0.304 OA
ATOM     14  C   UNL d   1      13.105  17.216  -6.389  0.00  0.00     0.123 A 
ATOM     15  C   UNL d   1      13.697  17.704  -6.092  0.00  0.00     0.029 A 
ATOM     16  C   UNL d   1      14.199  17.246  -5.627  0.00  0.00     0.028 A 
ENDBRANCH  11  12
ENDBRANCH   9  11
ENDBRANCH   7   8
BRANCH   7  17
ATOM     17  C   UNL d   1      13.691  15.042  -2.809  0.00  0.00     0.129 C 
ATOM     18  N   UNL d   1      14.207  15.630  -2.555  0.00  0.00    -0.146 N 
ENDBRANCH   7  17
ENDBRANCH   1   7
BRANCH   2  19
ATOM     19  C   UNL d   1      14.177  12.877  -2.252  0.00  0.00     0.068 A 
ATOM     20  C   UNL d   1      14.983  12.845  -2.127  0.00  0.00     0.020 A 
ATOM     21  C   UNL d   1      15.282  12.502  -1.444  0.00  0.00     0.031 A 
ATOM     22  C   UNL d   1      14.762  12.188  -0.881  0.00  0.00     0.140 A 
ATOM     23  C   UNL d   1      13.948  12.221  -1.011  0.00  0.00     0.031 A 
ATOM     24  F   UNL d   1      15.054  11.842  -0.193  0.00  0.00    -0.204 F 
ATOM     25  C   UNL d   1      13.654  12.565  -1.694  0.00  0.00     0.020 A 
ENDBRANCH   2  19
BRANCH   5  26
ATOM     26  C   UNL d   1      12.825  12.032  -4.363  0.00  0.00     0.011 C 
ATOM     27  C   UNL d   1      13.142  11.793  -5.080  0.00  0.00     0.001 C 
ENDBRANCH   5  26
TORSDOF 7
ENDMDL
