MODEL 1
REMARK VINA RESULT:      -4.0      0.000      0.000
REMARK  2 active torsions:
REMARK  status: ('A' for Active; 'I' for Inactive)
REMARK    1  A    between atoms: C_11  and  C_2 
REMARK    2  A    between atoms: C_9  and  C_6 
ROOT
ATOM      1  C   UNL d   1     -41.480-122.508 -52.640  0.00  0.00     0.045 A 
ATOM      2  C   UNL d   1     -41.632-122.906 -53.337  0.00  0.00     0.127 A 
ATOM      3  C   UNL d   1     -41.400-121.705 -52.472  0.00  0.00     0.010 A 
ATOM      4  O   UNL d   1     -41.653-123.708 -53.180  0.00  0.00    -0.211 OA
ATOM      5  N   UNL d   1     -41.513-123.816 -52.372  0.00  0.00    -0.126 NA
ATOM      6  C   UNL d   1     -41.244-121.460 -51.700  0.00  0.00     0.065 A 
ATOM      7  C   UNL d   1     -41.405-123.067 -52.035  0.00  0.00     0.110 A 
ATOM      8  C   UNL d   1     -41.169-122.019 -51.095  0.00  0.00     0.008 A 
ATOM      9  C   UNL d   1     -41.249-122.822 -51.263  0.00  0.00     0.022 A 
ENDROOT
BRANCH   2  10
ATOM     10  C   UNL d   1     -41.746-122.562 -54.085  0.00  0.00     0.025 A 
ATOM     11  C   UNL d   1     -41.129-122.575 -54.635  0.00  0.00     0.002 A 
ATOM     12  C   UNL d   1     -41.235-122.235 -55.382  0.00  0.00     0.000 A 
ATOM     13  C   UNL d   1     -41.960-121.883 -55.575  0.00  0.00     0.000 A 
ATOM     14  C   UNL d   1     -42.575-121.873 -55.021  0.00  0.00     0.000 A 
ATOM     15  C   UNL d   1     -42.468-122.212 -54.277  0.00  0.00     0.002 A 
ENDBRANCH   2  10
BRANCH   6  16
ATOM     16  C   UNL d   1     -41.164-120.656 -51.532  0.00  0.00     0.211 C 
ATOM     17  O   UNL d   1     -41.125-120.103 -52.145  0.00  0.00    -0.644 OA
ATOM     18  O   UNL d   1     -41.123-120.408 -50.741  0.00  0.00    -0.644 OA
ENDBRANCH   6  16
TORSDOF 2
ENDMDL
MODEL 2
REMARK VINA RESULT:      -3.7      1.521      2.241
REMARK  2 active torsions:
REMARK  status: ('A' for Active; 'I' for Inactive)
REMARK    1  A    between atoms: C_11  and  C_2 
REMARK    2  A    between atoms: C_9  and  C_6 
ROOT
ATOM      1  C   UNL d   1     -41.549-122.081 -51.890  0.00  0.00     0.045 A 
ATOM      2  C   UNL d   1     -41.434-121.947 -52.688  0.00  0.00     0.127 A 
ATOM      3  C   UNL d   1     -41.803-122.747 -51.476  0.00  0.00     0.010 A 
ATOM      4  O   UNL d   1     -41.175-121.178 -52.788  0.00  0.00    -0.211 OA
ATOM      5  N   UNL d   1     -41.126-120.824 -52.042  0.00  0.00    -0.126 NA
ATOM      6  C   UNL d   1     -41.867-122.720 -50.654  0.00  0.00     0.065 A 
ATOM      7  C   UNL d   1     -41.359-121.387 -51.482  0.00  0.00     0.110 A 
ATOM      8  C   UNL d   1     -41.677-122.026 -50.246  0.00  0.00     0.008 A 
ATOM      9  C   UNL d   1     -41.423-121.360 -50.661  0.00  0.00     0.022 A 
ENDROOT
BRANCH   2  10
ATOM     10  C   UNL d   1     -41.558-122.493 -53.301  0.00  0.00     0.025 A 
ATOM     11  C   UNL d   1     -42.122-122.328 -53.882  0.00  0.00     0.002 A 
ATOM     12  C   UNL d   1     -42.251-122.867 -54.497  0.00  0.00     0.000 A 
ATOM     13  C   UNL d   1     -41.814-123.570 -54.527  0.00  0.00     0.000 A 
ATOM     14  C   UNL d   1     -41.250-123.731 -53.942  0.00  0.00     0.000 A 
ATOM     15  C   UNL d   1     -41.123-123.193 -53.331  0.00  0.00     0.002 A 
ENDBRANCH   2  10
BRANCH   6  16
ATOM     16  C   UNL d   1     -42.120-123.387 -50.239  0.00  0.00     0.211 C 
ATOM     17  O   UNL d   1     -42.909-123.632 -50.285  0.00  0.00    -0.644 OA
ATOM     18  O   UNL d   1     -41.577-123.809 -49.776  0.00  0.00    -0.644 OA
ENDBRANCH   6  16
TORSDOF 2
ENDMDL
MODEL 3
REMARK VINA RESULT:      -3.5      1.379      3.763
REMARK  2 active torsions:
REMARK  status: ('A' for Active; 'I' for Inactive)
REMARK    1  A    between atoms: C_11  and  C_2 
REMARK    2  A    between atoms: C_9  and  C_6 
ROOT
ATOM      1  C   UNL d   1     -41.509-122.148 -51.834  0.00  0.00     0.045 A 
ATOM      2  C   UNL d   1     -41.550-122.052 -51.024  0.00  0.00     0.127 A 
ATOM      3  C   UNL d   1     -41.677-122.793 -52.320  0.00  0.00     0.010 A 
ATOM      4  O   UNL d   1     -41.316-121.290 -50.840  0.00  0.00    -0.211 OA
ATOM      5  N   UNL d   1     -41.125-120.903 -51.545  0.00  0.00    -0.126 NA
ATOM      6  C   UNL d   1     -41.582-122.728 -53.137  0.00  0.00     0.065 A 
ATOM      7  C   UNL d   1     -41.245-121.438 -52.165  0.00  0.00     0.110 A 
ATOM      8  C   UNL d   1     -41.318-122.018 -53.468  0.00  0.00     0.008 A 
ATOM      9  C   UNL d   1     -41.150-121.373 -52.981  0.00  0.00     0.022 A 
ENDROOT
BRANCH   2  10
ATOM     10  C   UNL d   1     -41.788-122.625 -50.472  0.00  0.00     0.025 A 
ATOM     11  C   UNL d   1     -41.229-123.155 -50.172  0.00  0.00     0.002 A 
ATOM     12  C   UNL d   1     -41.459-123.729 -49.621  0.00  0.00     0.000 A 
ATOM     13  C   UNL d   1     -42.248-123.770 -49.373  0.00  0.00     0.000 A 
ATOM     14  C   UNL d   1     -42.805-123.236 -49.676  0.00  0.00     0.000 A 
ATOM     15  C   UNL d   1     -42.574-122.666 -50.224  0.00  0.00     0.002 A 
ENDBRANCH   2  10
BRANCH   6  16
ATOM     16  C   UNL d   1     -41.750-123.373 -53.623  0.00  0.00     0.211 C 
ATOM     17  O   UNL d   1     -42.534-123.575 -53.793  0.00  0.00    -0.644 OA
ATOM     18  O   UNL d   1     -41.125-123.817 -53.940  0.00  0.00    -0.644 OA
ENDBRANCH   6  16
TORSDOF 2
ENDMDL
MODEL 4
REMARK VINA RESULT:      -3.1      1.302      3.176
REMARK  2 active torsions:
REMARK  status: ('A' for Active; 'I' for Inactive)
REMARK    1  A    between atoms: C_11  and  C_2 
REMARK    2  A    between atoms: C_9  and  C_6 
ROOT
ATOM      1  C   UNL d   1     -41.692-122.608 -53.394  0.00  0.00     0.045 A 
ATOM      2  C   UNL d   1     -41.471-122.808 -52.633  0.00  0.00     0.127 A 
ATOM      3  C   UNL d   1     -42.060-121.937 -53.701  0.00  0.00     0.010 A 
ATOM      4  O   UNL d   1     -41.123-123.548 -52.650  0.00  0.00    -0.211 OA
ATOM      5  N   UNL d   1     -41.126-123.817 -53.432  0.00  0.00    -0.126 NA
ATOM      6  C   UNL d   1     -42.218-121.887 -54.509  0.00  0.00     0.065 A 
ATOM      7  C   UNL d   1     -41.480-123.230 -53.896  0.00  0.00     0.110 A 
ATOM      8  C   UNL d   1     -42.006-122.510 -55.011  0.00  0.00     0.008 A 
ATOM      9  C   UNL d   1     -41.638-123.181 -54.704  0.00  0.00     0.022 A 
ENDROOT
BRANCH   2  10
ATOM     10  C   UNL d   1     -41.577-122.345 -51.952  0.00  0.00     0.025 A 
ATOM     11  C   UNL d   1     -42.142-122.572 -51.393  0.00  0.00     0.002 A 
ATOM     12  C   UNL d   1     -42.254-122.116 -50.712  0.00  0.00     0.000 A 
ATOM     13  C   UNL d   1     -41.799-121.433 -50.593  0.00  0.00     0.000 A 
ATOM     14  C   UNL d   1     -41.234-121.210 -51.156  0.00  0.00     0.000 A 
ATOM     15  C   UNL d   1     -41.124-121.665 -51.834  0.00  0.00     0.002 A 
ENDBRANCH   2  10
BRANCH   6  16
ATOM     16  C   UNL d   1     -42.587-121.216 -54.816  0.00  0.00     0.211 C 
ATOM     17  O   UNL d   1     -42.165-120.509 -54.898  0.00  0.00    -0.644 OA
ATOM     18  O   UNL d   1     -43.384-121.257 -55.041  0.00  0.00    -0.644 OA
ENDBRANCH   6  16
TORSDOF 2
ENDMDL
