MODEL 1
REMARK VINA RESULT:     118.7      0.000      0.000
REMARK  4 active torsions:
REMARK  status: ('A' for Active; 'I' for Inactive)
REMARK    1  A    between atoms: N_10  and  C_3 
REMARK    2  A    between atoms: C_14  and  C_5 
REMARK    3  A    between atoms: C_15  and  C_9 
REMARK       I    between atoms: C_11  and  N_12 
REMARK    4  A    between atoms: C_13  and  C_11 
ROOT
ATOM      1  N   UNL d   1     -49.097  29.200  34.160  0.00  0.00    -0.196 N 
ATOM      2  C   UNL d   1     -48.622  29.882  34.358  0.00  0.00     0.167 A 
ATOM      3  C   UNL d   1     -48.799  28.456  34.325  0.00  0.00     0.152 A 
ATOM      4  N   UNL d   1     -50.115  30.072  33.653  0.00  0.00    -0.163 NA
ATOM      5  C   UNL d   1     -48.899  30.642  34.202  0.00  0.00     0.055 A 
ATOM      6  N   UNL d   1     -47.876  29.783  34.710  0.00  0.00    -0.231 NA
ATOM      7  C   UNL d   1     -48.064  28.349  34.672  0.00  0.00     0.052 A 
ATOM      8  C   UNL d   1     -49.650  30.740  33.847  0.00  0.00     0.104 A 
ATOM      9  C   UNL d   1     -47.597  29.020  34.867  0.00  0.00     0.063 A 
ATOM     10  C   UNL d   1     -49.926  31.494  33.692  0.00  0.00     0.023 C 
ENDROOT
BRANCH   3  11
ATOM     11  N   UNL d   1     -49.278  27.761  34.125  0.00  0.00    -0.286 N 
ATOM     12  C   UNL d   1     -50.084  27.620  34.078  0.00  0.00     0.101 A 
ATOM     13  C   UNL d   1     -50.370  26.878  33.867  0.00  0.00     0.102 A 
ATOM     14  N   UNL d   1     -49.837  26.273  33.703  0.00  0.00    -0.267 N 
ATOM     15  C   UNL d   1     -50.107  25.530  33.491  0.00  0.00     0.288 C 
ATOM     16  C   UNL d   1     -49.035  26.410  33.749  0.00  0.00     0.102 A 
ATOM     17  O   UNL d   1     -49.578  24.922  33.326  0.00  0.00    -0.264 OA
ATOM     18  C   UNL d   1     -48.756  27.157  33.961  0.00  0.00     0.101 A 
BRANCH  15  19
ATOM     19  C   UNL d   1     -50.912  25.390  33.444  0.00  0.00     0.156 A 
ATOM     20  O   UNL d   1     -51.189  24.615  33.409  0.00  0.00    -0.300 OA
ATOM     21  C   UNL d   1     -51.995  24.475  33.361  0.00  0.00     0.123 A 
ATOM     22  C   UNL d   1     -52.520  25.092  33.349  0.00  0.00     0.029 A 
ATOM     23  C   UNL d   1     -51.437  26.007  33.432  0.00  0.00     0.032 A 
ENDBRANCH  15  19
ENDBRANCH   3  11
BRANCH   9  24
ATOM     24  C   UNL d   1     -46.813  28.911  35.238  0.00  0.00     0.036 C 
ATOM     25  C   UNL d   1     -46.034  28.804  35.602  0.00  0.00     0.006 C 
ATOM     26  C   UNL d   1     -46.749  28.581  36.040  0.00  0.00     0.006 C 
ATOM     27  C   UNL d   1     -46.096  29.134  34.802  0.00  0.00     0.006 C 
ENDBRANCH   9  24
BRANCH   5  28
ATOM     28  C   UNL d   1     -48.439  31.303  34.394  0.00  0.00     0.004 A 
ATOM     29  C   UNL d   1     -48.285  31.484  35.180  0.00  0.00     0.001 A 
ATOM     30  C   UNL d   1     -47.820  32.153  35.374  0.00  0.00     0.011 A 
ATOM     31  C   UNL d   1     -47.515  32.630  34.779  0.00  0.00     0.058 A 
ATOM     32  C   UNL d   1     -47.675  32.440  33.977  0.00  0.00     0.011 A 
ATOM     33 CL   UNL d   1     -47.033  33.323  34.980  0.00  0.00    -0.082 Cl
ATOM     34  C   UNL d   1     -48.133  31.782  33.786  0.00  0.00     0.001 A 
ENDBRANCH   5  28
TORSDOF 4
ENDMDL
