MODEL 1
REMARK VINA RESULT:      -3.1      0.000      0.000
REMARK  6 active torsions:
REMARK  status: ('A' for Active; 'I' for Inactive)
REMARK    1  A    between atoms: C_7  and  C_1 
REMARK    2  A    between atoms: O_11  and  C_2 
REMARK    3  A    between atoms: O_13  and  C_10 
REMARK    4  A    between atoms: C_20  and  O_11 
REMARK    5  A    between atoms: C_21  and  C_12 
REMARK    6  A    between atoms: C_14  and  O_13 
ROOT
ATOM      1  C   UNL d   1      32.031  16.449 -23.507  0.00  0.00     0.197 A 
ATOM      2  C   UNL d   1      32.178  17.178 -23.911  0.00  0.00     0.165 A 
ATOM      3  O   UNL d   1      31.270  16.125 -23.512  0.00  0.00    -0.301 OA
ATOM      4  C   UNL d   1      31.549  17.546 -24.301  0.00  0.00     0.222 A 
ATOM      5  C   UNL d   1      30.789  17.223 -24.306  0.00  0.00     0.064 A 
ATOM      6  C   UNL d   1      30.658  16.497 -23.899  0.00  0.00     0.105 A 
ATOM      7  C   UNL d   1      30.181  17.596 -24.693  0.00  0.00     0.007 A 
ATOM      8  C   UNL d   1      29.898  16.170 -23.902  0.00  0.00     0.050 A 
ATOM      9  C   UNL d   1      29.288  16.550 -24.294  0.00  0.00     0.105 A 
ATOM     10  C   UNL d   1      29.425  17.271 -24.696  0.00  0.00     0.023 A 
ATOM     11  O   UNL d   1      31.704  18.278 -24.705  0.00  0.00    -0.284 OA
ENDROOT
BRANCH   2  12
ATOM     12  O   UNL d   1      32.931  17.516 -23.917  0.00  0.00    -0.302 OA
BRANCH  12  13
ATOM     13  C   UNL d   1      33.034  18.275 -23.634  0.00  0.00     0.100 A 
ATOM     14  C   UNL d   1      33.113  18.428 -22.822  0.00  0.00     0.025 A 
ATOM     15  C   UNL d   1      33.213  19.185 -22.568  0.00  0.00     0.002 A 
ATOM     16  C   UNL d   1      33.241  19.818 -23.099  0.00  0.00     0.000 A 
ATOM     17  C   UNL d   1      33.164  19.662 -23.884  0.00  0.00     0.002 A 
ATOM     18  C   UNL d   1      33.062  18.908 -24.166  0.00  0.00     0.025 A 
ENDBRANCH  12  13
ENDBRANCH   2  12
BRANCH   1  19
ATOM     19  C   UNL d   1      32.632  16.050 -23.106  0.00  0.00     0.442 C 
ATOM     20  F   UNL d   1      33.240  15.646 -22.692  0.00  0.00    -0.164 F 
ATOM     21  F   UNL d   1      33.035  15.916 -23.829  0.00  0.00    -0.164 F 
ATOM     22  F   UNL d   1      32.226  16.186 -22.380  0.00  0.00    -0.164 F 
ENDBRANCH   1  19
BRANCH  10  23
ATOM     23  C   UNL d   1      28.823  17.670 -25.097  0.00  0.00     0.002 C 
ATOM     24  C   UNL d   1      28.634  18.306 -24.895  0.00  0.00     0.000 C 
ENDBRANCH  10  23
BRANCH   9  25
ATOM     25  O   UNL d   1      28.538  16.214 -24.289  0.00  0.00    -0.273 OA
BRANCH  25  26
ATOM     26  C   UNL d   1      28.240  15.854 -23.611  0.00  0.00     0.300 C 
ATOM     27  O   UNL d   1      28.751  15.638 -22.989  0.00  0.00    -0.259 OA
ATOM     28  C   UNL d   1      27.448  15.703 -23.532  0.00  0.00     0.074 C 
ENDBRANCH  25  26
ENDBRANCH   9  25
TORSDOF 6
ENDMDL
MODEL 2
REMARK VINA RESULT:      -2.7      1.799      4.568
REMARK  6 active torsions:
REMARK  status: ('A' for Active; 'I' for Inactive)
REMARK    1  A    between atoms: C_7  and  C_1 
REMARK    2  A    between atoms: O_11  and  C_2 
REMARK    3  A    between atoms: O_13  and  C_10 
REMARK    4  A    between atoms: C_20  and  O_11 
REMARK    5  A    between atoms: C_21  and  C_12 
REMARK    6  A    between atoms: C_14  and  O_13 
ROOT
ATOM      1  C   UNL d   1      29.553  17.686 -24.428  0.00  0.00     0.197 A 
ATOM      2  C   UNL d   1      29.564  16.840 -24.454  0.00  0.00     0.165 A 
ATOM      3  O   UNL d   1      30.267  18.104 -24.431  0.00  0.00    -0.301 OA
ATOM      4  C   UNL d   1      30.295  16.456 -24.481  0.00  0.00     0.222 A 
ATOM      5  C   UNL d   1      31.008  16.873 -24.484  0.00  0.00     0.064 A 
ATOM      6  C   UNL d   1      30.981  17.715 -24.458  0.00  0.00     0.105 A 
ATOM      7  C   UNL d   1      31.718  16.482 -24.511  0.00  0.00     0.007 A 
ATOM      8  C   UNL d   1      31.693  18.135 -24.460  0.00  0.00     0.050 A 
ATOM      9  C   UNL d   1      32.408  17.737 -24.488  0.00  0.00     0.105 A 
ATOM     10  C   UNL d   1      32.427  16.901 -24.513  0.00  0.00     0.023 A 
ATOM     11  O   UNL d   1      30.298  15.605 -24.507  0.00  0.00    -0.284 OA
ENDROOT
BRANCH   2  12
ATOM     12  O   UNL d   1      28.861  16.406 -24.452  0.00  0.00    -0.302 OA
BRANCH  12  13
ATOM     13  C   UNL d   1      28.586  16.088 -23.752  0.00  0.00     0.100 A 
ATOM     14  C   UNL d   1      29.107  15.841 -23.154  0.00  0.00     0.025 A 
ATOM     15  C   UNL d   1      28.811  15.531 -22.473  0.00  0.00     0.002 A 
ATOM     16  C   UNL d   1      27.997  15.452 -22.353  0.00  0.00     0.000 A 
ATOM     17  C   UNL d   1      27.499  15.694 -22.937  0.00  0.00     0.002 A 
ATOM     18  C   UNL d   1      27.771  16.009 -23.632  0.00  0.00     0.025 A 
ENDBRANCH  12  13
ENDBRANCH   2  12
BRANCH   1  19
ATOM     19  C   UNL d   1      28.844  18.106 -24.400  0.00  0.00     0.442 C 
ATOM     20  F   UNL d   1      28.124  18.538 -24.366  0.00  0.00    -0.164 F 
ATOM     21  F   UNL d   1      28.564  17.692 -25.073  0.00  0.00    -0.164 F 
ATOM     22  F   UNL d   1      29.127  18.522 -23.724  0.00  0.00    -0.164 F 
ENDBRANCH   1  19
BRANCH  10  23
ATOM     23  C   UNL d   1      33.136  16.480 -24.541  0.00  0.00     0.002 C 
ATOM     24  C   UNL d   1      33.149  15.808 -24.369  0.00  0.00     0.000 C 
ENDBRANCH  10  23
BRANCH   9  25
ATOM     25  O   UNL d   1      33.107  18.169 -24.489  0.00  0.00    -0.273 OA
BRANCH  25  26
ATOM     26  C   UNL d   1      33.103  18.982 -24.361  0.00  0.00     0.300 C 
ATOM     27  O   UNL d   1      33.019  19.287 -23.590  0.00  0.00    -0.259 OA
ATOM     28  C   UNL d   1      33.180  19.502 -24.978  0.00  0.00     0.074 C 
ENDBRANCH  25  26
ENDBRANCH   9  25
TORSDOF 6
ENDMDL
