MODEL 1
REMARK VINA RESULT:      -2.3      0.000      0.000
REMARK  5 active torsions:
REMARK  status: ('A' for Active; 'I' for Inactive)
REMARK    1  A    between atoms: S_2  and  C_1 
REMARK    2  A    between atoms: C_9  and  S_2 
REMARK    3  A    between atoms: C_8  and  N_3 
REMARK    4  A    between atoms: C_7  and  C_8 
REMARK       I    between atoms: N_12  and  C_7 
REMARK    5  A    between atoms: C_14  and  C_9 
ROOT
ATOM      1  C   UNL d   1      32.220  17.565 -23.813  0.00  0.00     0.107 A 
ATOM      2  N   UNL d   1      31.138  17.169 -24.481  0.00  0.00    -0.299 N 
ATOM      3  C   UNL d   1      31.431  17.757 -23.984  0.00  0.00     0.092 A 
ATOM      4  C   UNL d   1      32.405  16.863 -24.204  0.00  0.00     0.028 A 
ATOM      5  C   UNL d   1      31.731  16.618 -24.618  0.00  0.00     0.065 A 
ATOM      6  C   UNL d   1      33.095  16.417 -24.236  0.00  0.00     0.002 A 
ATOM      7  C   UNL d   1      31.759  15.924 -25.063  0.00  0.00     0.018 A 
ATOM      8  C   UNL d   1      33.124  15.719 -24.683  0.00  0.00     0.000 A 
ATOM      9  C   UNL d   1      32.449  15.478 -25.095  0.00  0.00     0.002 A 
ENDROOT
BRANCH   1  10
ATOM     10  S   UNL d   1      32.733  18.005 -23.331  0.00  0.00     0.212 S 
ATOM     11  O   UNL d   1      33.061  18.271 -24.039  0.00  0.00    -0.217 OA
ATOM     12  O   UNL d   1      32.400  17.736 -22.622  0.00  0.00    -0.217 OA
BRANCH  10  13
ATOM     13  C   UNL d   1      33.241  18.441 -22.851  0.00  0.00     0.099 C 
BRANCH  13  14
ATOM     14  C   UNL d   1      33.076  19.231 -22.691  0.00  0.00     0.011 A 
ATOM     15  C   UNL d   1      32.753  19.441 -21.962  0.00  0.00     0.001 A 
ATOM     16  C   UNL d   1      32.587  20.243 -21.804  0.00  0.00     0.000 A 
ATOM     17  C   UNL d   1      32.748  20.821 -22.376  0.00  0.00     0.000 A 
ATOM     18  C   UNL d   1      33.073  20.594 -23.101  0.00  0.00     0.000 A 
ATOM     19  C   UNL d   1      33.234  19.806 -23.254  0.00  0.00     0.001 A 
ENDBRANCH  13  14
ENDBRANCH  10  13
ENDBRANCH   1  10
BRANCH   2  20
ATOM     20  C   UNL d   1      30.373  17.139 -24.789  0.00  0.00     0.142 C 
BRANCH  20  21
ATOM     21  C   UNL d   1      29.730  17.028 -24.286  0.00  0.00     0.283 C 
ATOM     22  N   UNL d   1      29.026  17.436 -24.420  0.00  0.00    -0.268 N 
ATOM     23  C   UNL d   1      28.374  17.328 -23.917  0.00  0.00     0.102 C 
ATOM     24  C   UNL d   1      28.964  17.955 -25.057  0.00  0.00     0.102 C 
ATOM     25  O   UNL d   1      29.792  16.509 -23.650  0.00  0.00    -0.265 OA
ENDBRANCH  20  21
ENDBRANCH   2  20
TORSDOF 5
ENDMDL
MODEL 2
REMARK VINA RESULT:      -1.8      1.177      3.721
REMARK  5 active torsions:
REMARK  status: ('A' for Active; 'I' for Inactive)
REMARK    1  A    between atoms: S_2  and  C_1 
REMARK    2  A    between atoms: C_9  and  S_2 
REMARK    3  A    between atoms: C_8  and  N_3 
REMARK    4  A    between atoms: C_7  and  C_8 
REMARK       I    between atoms: N_12  and  C_7 
REMARK    5  A    between atoms: C_14  and  C_9 
ROOT
ATOM      1  C   UNL d   1      31.245  17.250 -24.675  0.00  0.00     0.107 A 
ATOM      2  N   UNL d   1      32.401  17.781 -24.280  0.00  0.00    -0.299 N 
ATOM      3  C   UNL d   1      31.596  17.935 -24.368  0.00  0.00     0.092 A 
ATOM      4  C   UNL d   1      31.834  16.681 -24.774  0.00  0.00     0.028 A 
ATOM      5  C   UNL d   1      32.551  17.012 -24.528  0.00  0.00     0.065 A 
ATOM      6  C   UNL d   1      31.810  15.907 -25.054  0.00  0.00     0.002 A 
ATOM      7  C   UNL d   1      33.241  16.562 -24.566  0.00  0.00     0.018 A 
ATOM      8  C   UNL d   1      32.503  15.454 -25.093  0.00  0.00     0.000 A 
ATOM      9  C   UNL d   1      33.217  15.789 -24.846  0.00  0.00     0.002 A 
ENDROOT
BRANCH   1  10
ATOM     10  S   UNL d   1      30.440  17.154 -24.853  0.00  0.00     0.212 S 
ATOM     11  O   UNL d   1      30.458  17.955 -25.049  0.00  0.00    -0.217 OA
ATOM     12  O   UNL d   1      30.425  16.351 -24.655  0.00  0.00    -0.217 OA
BRANCH  10  13
ATOM     13  C   UNL d   1      29.641  17.058 -25.028  0.00  0.00     0.099 C 
BRANCH  13  14
ATOM     14  C   UNL d   1      29.080  17.116 -24.429  0.00  0.00     0.011 A 
ATOM     15  C   UNL d   1      28.863  16.442 -24.006  0.00  0.00     0.001 A 
ATOM     16  C   UNL d   1      28.295  16.504 -23.400  0.00  0.00     0.000 A 
ATOM     17  C   UNL d   1      27.951  17.239 -23.226  0.00  0.00     0.000 A 
ATOM     18  C   UNL d   1      28.179  17.904 -23.659  0.00  0.00     0.000 A 
ATOM     19  C   UNL d   1      28.738  17.841 -24.254  0.00  0.00     0.001 A 
ENDBRANCH  13  14
ENDBRANCH  10  13
ENDBRANCH   1  10
BRANCH   2  20
ATOM     20  C   UNL d   1      32.962  18.312 -23.991  0.00  0.00     0.142 C 
BRANCH  20  21
ATOM     21  C   UNL d   1      32.892  18.610 -23.226  0.00  0.00     0.283 C 
ATOM     22  N   UNL d   1      32.990  19.417 -23.087  0.00  0.00    -0.268 N 
ATOM     23  C   UNL d   1      32.921  19.723 -22.318  0.00  0.00     0.102 C 
ATOM     24  C   UNL d   1      33.159  19.926 -23.712  0.00  0.00     0.102 C 
ATOM     25  O   UNL d   1      32.723  18.101 -22.602  0.00  0.00    -0.265 OA
ENDBRANCH  20  21
ENDBRANCH   2  20
TORSDOF 5
ENDMDL
