MODEL 1
REMARK VINA RESULT:       2.1      0.000      0.000
REMARK  6 active torsions:
REMARK  status: ('A' for Active; 'I' for Inactive)
REMARK    1  A    between atoms: C_3  and  N_1 
REMARK    2  A    between atoms: N_9  and  C_3 
REMARK    3  A    between atoms: C_7  and  C_4 
REMARK    4  A    between atoms: C_8  and  C_5 
REMARK    5  A    between atoms: C_16  and  N_9 
REMARK    6  A    between atoms: O_17  and  C_13 
ROOT
ATOM      1  N   UNL d   1      32.574  19.464 -23.141  0.00  0.00    -0.201 N 
ATOM      2  N   UNL d   1      32.296  18.690 -23.047  0.00  0.00    -0.163 NA
ATOM      3  C   UNL d   1      32.009  18.437 -23.781  0.00  0.00     0.105 A 
ATOM      4  C   UNL d   1      32.466  19.700 -23.921  0.00  0.00     0.110 A 
ATOM      5  C   UNL d   1      32.116  19.046 -24.292  0.00  0.00     0.042 A 
ENDROOT
BRANCH   1   6
ATOM      6  C   UNL d   1      32.908  19.928 -22.547  0.00  0.00     0.222 C 
ATOM      7  S   UNL d   1      33.240  19.252 -22.217  0.00  0.00    -0.037 SA
BRANCH   6   8
ATOM      8  N   UNL d   1      33.240  20.405 -21.952  0.00  0.00    -0.217 NA
BRANCH   8   9
ATOM      9  C   UNL d   1      32.758  20.852 -21.491  0.00  0.00     0.084 A 
ATOM     10  C   UNL d   1      31.995  20.587 -21.272  0.00  0.00     0.019 A 
ATOM     11  C   UNL d   1      31.526  21.066 -20.802  0.00  0.00     0.002 A 
ATOM     12  C   UNL d   1      31.776  21.786 -20.542  0.00  0.00     0.000 A 
ATOM     13  C   UNL d   1      32.531  22.071 -20.748  0.00  0.00     0.002 A 
ATOM     14  C   UNL d   1      33.022  21.604 -21.222  0.00  0.00     0.019 A 
ENDBRANCH   8   9
ENDBRANCH   6   8
ENDBRANCH   1   6
BRANCH   4  15
ATOM     15  C   UNL d   1      32.711  20.586 -24.317  0.00  0.00     0.118 A 
ATOM     16  O   UNL d   1      32.450  21.350 -24.040  0.00  0.00    -0.304 OA
ATOM     17  C   UNL d   1      32.779  21.930 -24.521  0.00  0.00     0.123 A 
ATOM     18  C   UNL d   1      33.240  21.557 -25.095  0.00  0.00     0.029 A 
ATOM     19  C   UNL d   1      33.205  20.763 -24.980  0.00  0.00     0.028 A 
ENDBRANCH   4  15
BRANCH   3  20
ATOM     20  C   UNL d   1      31.657  17.646 -23.949  0.00  0.00     0.042 A 
ATOM     21  C   UNL d   1      31.553  16.858 -24.036  0.00  0.00     0.096 A 
ATOM     22  C   UNL d   1      30.854  16.622 -24.281  0.00  0.00     0.024 A 
ATOM     23  C   UNL d   1      30.245  17.154 -24.446  0.00  0.00     0.002 A 
ATOM     24  C   UNL d   1      30.334  17.921 -24.365  0.00  0.00     0.000 A 
ATOM     25  C   UNL d   1      31.048  18.178 -24.114  0.00  0.00     0.004 A 
BRANCH  21  26
ATOM     26  O   UNL d   1      32.162  16.327 -23.871  0.00  0.00    -0.328 OA
ATOM     27  C   UNL d   1      32.363  15.833 -24.400  0.00  0.00     0.181 C 
ENDBRANCH  21  26
ENDBRANCH   3  20
TORSDOF 6
ENDMDL
