MODEL 1
REMARK VINA RESULT:      73.0      0.000      0.000
REMARK  3 active torsions:
REMARK  status: ('A' for Active; 'I' for Inactive)
REMARK    1  A    between atoms: C_10  and  N_1 
REMARK       I    between atoms: N_3  and  C_4 
REMARK    2  A    between atoms: C_4  and  C_10 
REMARK    3  A    between atoms: O_17  and  C_13 
ROOT
ATOM      1  N   UNL d   1     -50.231  26.856  33.453  0.00  0.00    -0.268 N 
ATOM      2  C   UNL d   1     -51.036  26.650  33.434  0.00  0.00     0.265 A 
ATOM      3  C   UNL d   1     -51.255  25.856  33.393  0.00  0.00     0.059 A 
ATOM      4  C   UNL d   1     -50.681  25.266  33.370  0.00  0.00     0.028 A 
ATOM      5  C   UNL d   1     -49.877  25.459  33.388  0.00  0.00     0.021 A 
ATOM      6  C   UNL d   1     -49.654  26.263  33.431  0.00  0.00     0.083 A 
ATOM      7  O   UNL d   1     -51.610  27.240  33.457  0.00  0.00    -0.267 OA
ATOM      8  C   UNL d   1     -50.903  24.474  33.329  0.00  0.00     0.094 A 
ATOM      9  C   UNL d   1     -52.056  25.659  33.374  0.00  0.00     0.005 A 
ATOM     10  C   UNL d   1     -52.279  24.868  33.333  0.00  0.00     0.002 A 
ATOM     11  C   UNL d   1     -51.705  24.277  33.310  0.00  0.00     0.024 A 
ENDROOT
BRANCH   1  12
ATOM     12  C   UNL d   1     -50.008  27.647  33.495  0.00  0.00     0.144 C 
BRANCH  12  13
ATOM     13  C   UNL d   1     -49.432  27.886  34.038  0.00  0.00     0.283 C 
ATOM     14  N   UNL d   1     -49.214  28.678  34.097  0.00  0.00    -0.272 N 
ATOM     15  C   UNL d   1     -48.643  28.904  34.636  0.00  0.00     0.067 A 
ATOM     16  C   UNL d   1     -49.579  29.241  33.603  0.00  0.00     0.083 A 
ATOM     17  C   UNL d   1     -48.427  29.703  34.692  0.00  0.00     0.016 A 
ATOM     18  C   UNL d   1     -48.288  28.350  35.117  0.00  0.00     0.018 A 
ATOM     19  C   UNL d   1     -47.854  29.937  35.231  0.00  0.00     0.001 A 
ATOM     20  C   UNL d   1     -48.784  30.270  34.205  0.00  0.00     0.003 A 
ATOM     21  C   UNL d   1     -47.494  29.381  35.718  0.00  0.00     0.000 A 
ATOM     22  C   UNL d   1     -47.712  28.579  35.662  0.00  0.00     0.002 A 
ATOM     23  C   UNL d   1     -49.355  30.040  33.666  0.00  0.00     0.019 A 
ATOM     24  O   UNL d   1     -49.074  27.321  34.525  0.00  0.00    -0.265 OA
ENDBRANCH  12  13
ENDBRANCH   1  12
BRANCH   8  25
ATOM     25  O   UNL d   1     -50.332  23.881  33.306  0.00  0.00    -0.328 OA
ATOM     26  C   UNL d   1     -50.361  23.261  33.842  0.00  0.00     0.181 C 
ENDBRANCH   8  25
TORSDOF 3
ENDMDL
MODEL 2
REMARK VINA RESULT:      75.8      1.021      4.882
REMARK  3 active torsions:
REMARK  status: ('A' for Active; 'I' for Inactive)
REMARK    1  A    between atoms: C_10  and  N_1 
REMARK       I    between atoms: N_3  and  C_4 
REMARK    2  A    between atoms: C_4  and  C_10 
REMARK    3  A    between atoms: O_17  and  C_13 
ROOT
ATOM      1  N   UNL d   1     -49.274  28.476  34.218  0.00  0.00    -0.268 N 
ATOM      2  C   UNL d   1     -49.041  29.250  34.028  0.00  0.00     0.265 A 
ATOM      3  C   UNL d   1     -48.490  29.642  34.501  0.00  0.00     0.059 A 
ATOM      4  C   UNL d   1     -48.169  29.269  35.162  0.00  0.00     0.028 A 
ATOM      5  C   UNL d   1     -48.394  28.498  35.361  0.00  0.00     0.021 A 
ATOM      6  C   UNL d   1     -48.951  28.101  34.883  0.00  0.00     0.083 A 
ATOM      7  O   UNL d   1     -49.362  29.623  33.366  0.00  0.00    -0.267 OA
ATOM      8  C   UNL d   1     -47.620  29.663  35.632  0.00  0.00     0.094 A 
ATOM      9  C   UNL d   1     -48.264  30.411  34.305  0.00  0.00     0.005 A 
ATOM     10  C   UNL d   1     -47.715  30.804  34.775  0.00  0.00     0.002 A 
ATOM     11  C   UNL d   1     -47.394  30.432  35.436  0.00  0.00     0.024 A 
ENDROOT
BRANCH   1  12
ATOM     12  C   UNL d   1     -49.823  28.082  33.748  0.00  0.00     0.144 C 
BRANCH  12  13
ATOM     13  C   UNL d   1     -49.796  27.258  33.684  0.00  0.00     0.283 C 
ATOM     14  N   UNL d   1     -50.485  26.824  33.558  0.00  0.00    -0.272 N 
ATOM     15  C   UNL d   1     -50.448  26.011  33.496  0.00  0.00     0.067 A 
ATOM     16  C   UNL d   1     -51.213  27.223  33.495  0.00  0.00     0.083 A 
ATOM     17  C   UNL d   1     -51.144  25.579  33.370  0.00  0.00     0.016 A 
ATOM     18  C   UNL d   1     -49.733  25.624  33.559  0.00  0.00     0.018 A 
ATOM     19  C   UNL d   1     -51.115  24.761  33.306  0.00  0.00     0.001 A 
ATOM     20  C   UNL d   1     -51.874  25.966  33.306  0.00  0.00     0.003 A 
ATOM     21  C   UNL d   1     -50.395  24.368  33.369  0.00  0.00     0.000 A 
ATOM     22  C   UNL d   1     -49.696  24.802  33.496  0.00  0.00     0.002 A 
ATOM     23  C   UNL d   1     -51.907  26.781  33.368  0.00  0.00     0.019 A 
ATOM     24  O   UNL d   1     -49.068  26.869  33.748  0.00  0.00    -0.265 OA
ENDBRANCH  12  13
ENDBRANCH   1  12
BRANCH   8  25
ATOM     25  O   UNL d   1     -47.297  29.293  36.294  0.00  0.00    -0.328 OA
ATOM     26  C   UNL d   1     -46.650  29.624  36.675  0.00  0.00     0.181 C 
ENDBRANCH   8  25
TORSDOF 3
ENDMDL
