MODEL 1
REMARK VINA RESULT:      -9.6      0.000      0.000
REMARK  2 active torsions:
REMARK  status: ('A' for Active; 'I' for Inactive)
REMARK    1  A    between atoms: C_3  and  N_1 
REMARK    2  A    between atoms: C_12  and  C_9 
ROOT
ATOM      1  C   UNL d   1     -47.002  13.001  23.162  0.00  0.00     0.187 A 
ATOM      2  N   UNL d   1     -46.933  13.829  23.197  0.00  0.00    -0.129 NA
ATOM      3  N   UNL d   1     -47.610  14.297  23.147  0.00  0.00    -0.147 NA
ATOM      4  C   UNL d   1     -47.741  12.650  23.079  0.00  0.00     0.039 A 
ATOM      5  C   UNL d   1     -48.356  13.939  23.063  0.00  0.00     0.103 A 
ATOM      6  C   UNL d   1     -48.418  13.119  23.030  0.00  0.00     0.022 A 
ATOM      7  C   UNL d   1     -47.806  11.828  23.045  0.00  0.00     0.003 A 
ATOM      8  C   UNL d   1     -49.160  12.766  22.946  0.00  0.00     0.002 A 
ATOM      9  C   UNL d   1     -49.221  11.947  22.913  0.00  0.00     0.000 A 
ATOM     10  C   UNL d   1     -48.544  11.478  22.962  0.00  0.00     0.000 A 
ENDROOT
BRANCH   1  11
ATOM     11  N   UNL d   1     -46.325  12.532  23.211  0.00  0.00    -0.191 N 
ATOM     12  N   UNL d   1     -46.099  11.890  23.696  0.00  0.00    -0.058 NA
ATOM     13  N   UNL d   1     -45.352  11.637  23.496  0.00  0.00    -0.129 NA
ATOM     14  C   UNL d   1     -45.081  12.114  22.874  0.00  0.00     0.122 A 
ATOM     15  C   UNL d   1     -45.687  12.672  22.696  0.00  0.00     0.105 A 
ATOM     16  C   UNL d   1     -44.376  12.119  22.449  0.00  0.00     0.022 A 
ATOM     17  C   UNL d   1     -45.565  13.220  22.094  0.00  0.00     0.021 A 
ATOM     18  C   UNL d   1     -44.829  13.208  21.667  0.00  0.00     0.002 A 
ATOM     19  C   UNL d   1     -44.266  12.652  21.869  0.00  0.00     0.002 A 
ENDBRANCH   1  11
BRANCH   5  20
ATOM     20  C   UNL d   1     -49.033  14.408  23.014  0.00  0.00     0.020 A 
ATOM     21  C   UNL d   1     -49.299  14.670  22.271  0.00  0.00     0.004 A 
ATOM     22  C   UNL d   1     -49.976  15.139  22.222  0.00  0.00     0.030 A 
ATOM     23  C   UNL d   1     -50.387  15.345  22.915  0.00  0.00     0.140 A 
ATOM     24  C   UNL d   1     -50.118  15.083  23.647  0.00  0.00     0.030 A 
ATOM     25  F   UNL d   1     -51.064  15.814  22.866  0.00  0.00    -0.204 F 
ATOM     26  C   UNL d   1     -49.442  14.614  23.696  0.00  0.00     0.004 A 
ENDBRANCH   5  20
TORSDOF 2
ENDMDL
MODEL 2
REMARK VINA RESULT:      -8.8      2.019      4.476
REMARK  2 active torsions:
REMARK  status: ('A' for Active; 'I' for Inactive)
REMARK    1  A    between atoms: C_3  and  N_1 
REMARK    2  A    between atoms: C_12  and  C_9 
ROOT
ATOM      1  C   UNL d   1     -48.804  13.542  23.086  0.00  0.00     0.187 A 
ATOM      2  N   UNL d   1     -48.214  13.730  23.640  0.00  0.00    -0.129 NA
ATOM      3  N   UNL d   1     -47.423  13.570  23.467  0.00  0.00    -0.147 NA
ATOM      4  C   UNL d   1     -48.601  13.198  22.368  0.00  0.00     0.039 A 
ATOM      5  C   UNL d   1     -47.222  13.222  22.739  0.00  0.00     0.103 A 
ATOM      6  C   UNL d   1     -47.810  13.038  22.194  0.00  0.00     0.022 A 
ATOM      7  C   UNL d   1     -49.189  13.011  21.818  0.00  0.00     0.003 A 
ATOM      8  C   UNL d   1     -47.607  12.692  21.472  0.00  0.00     0.002 A 
ATOM      9  C   UNL d   1     -48.195  12.508  20.928  0.00  0.00     0.000 A 
ATOM     10  C   UNL d   1     -48.985  12.667  21.101  0.00  0.00     0.000 A 
ENDROOT
BRANCH   1  11
ATOM     11  N   UNL d   1     -49.594  13.701  23.259  0.00  0.00    -0.191 N 
ATOM     12  N   UNL d   1     -50.275  13.226  23.348  0.00  0.00    -0.058 NA
ATOM     13  N   UNL d   1     -50.921  13.689  23.522  0.00  0.00    -0.129 NA
ATOM     14  C   UNL d   1     -50.665  14.478  23.549  0.00  0.00     0.122 A 
ATOM     15  C   UNL d   1     -49.839  14.486  23.385  0.00  0.00     0.105 A 
ATOM     16  C   UNL d   1     -51.064  15.183  23.698  0.00  0.00     0.022 A 
ATOM     17  C   UNL d   1     -49.438  15.205  23.376  0.00  0.00     0.021 A 
ATOM     18  C   UNL d   1     -49.869  15.922  23.532  0.00  0.00     0.002 A 
ATOM     19  C   UNL d   1     -50.669  15.874  23.687  0.00  0.00     0.002 A 
ENDBRANCH   1  11
BRANCH   5  20
ATOM     20  C   UNL d   1     -46.432  13.062  22.566  0.00  0.00     0.020 A 
ATOM     21  C   UNL d   1     -46.107  12.324  22.767  0.00  0.00     0.004 A 
ATOM     22  C   UNL d   1     -45.317  12.164  22.593  0.00  0.00     0.030 A 
ATOM     23  C   UNL d   1     -44.851  12.742  22.219  0.00  0.00     0.140 A 
ATOM     24  C   UNL d   1     -45.177  13.471  22.023  0.00  0.00     0.030 A 
ATOM     25  F   UNL d   1     -44.060  12.583  22.046  0.00  0.00    -0.204 F 
ATOM     26  C   UNL d   1     -45.968  13.631  22.196  0.00  0.00     0.004 A 
ENDBRANCH   5  20
TORSDOF 2
ENDMDL
MODEL 3
REMARK VINA RESULT:      -7.5      2.166      4.677
REMARK  2 active torsions:
REMARK  status: ('A' for Active; 'I' for Inactive)
REMARK    1  A    between atoms: C_3  and  N_1 
REMARK    2  A    between atoms: C_12  and  C_9 
ROOT
ATOM      1  C   UNL d   1     -48.494  13.412  22.989  0.00  0.00     0.187 A 
ATOM      2  N   UNL d   1     -48.579  12.592  23.095  0.00  0.00    -0.129 NA
ATOM      3  N   UNL d   1     -47.908  12.116  23.161  0.00  0.00    -0.147 NA
ATOM      4  C   UNL d   1     -47.745  13.748  22.951  0.00  0.00     0.039 A 
ATOM      5  C   UNL d   1     -47.152  12.461  23.123  0.00  0.00     0.103 A 
ATOM      6  C   UNL d   1     -47.074  13.273  23.018  0.00  0.00     0.022 A 
ATOM      7  C   UNL d   1     -47.664  14.564  22.846  0.00  0.00     0.003 A 
ATOM      8  C   UNL d   1     -46.322  13.613  22.980  0.00  0.00     0.002 A 
ATOM      9  C   UNL d   1     -46.244  14.424  22.875  0.00  0.00     0.000 A 
ATOM     10  C   UNL d   1     -46.915  14.899  22.809  0.00  0.00     0.000 A 
ENDROOT
BRANCH   1  11
ATOM     11  N   UNL d   1     -49.165  13.888  22.922  0.00  0.00    -0.191 N 
ATOM     12  N   UNL d   1     -49.433  14.570  23.322  0.00  0.00    -0.058 NA
ATOM     13  N   UNL d   1     -50.149  14.810  23.019  0.00  0.00    -0.129 NA
ATOM     14  C   UNL d   1     -50.357  14.282  22.414  0.00  0.00     0.122 A 
ATOM     15  C   UNL d   1     -49.744  13.707  22.353  0.00  0.00     0.105 A 
ATOM     16  C   UNL d   1     -51.010  14.244  21.914  0.00  0.00     0.022 A 
ATOM     17  C   UNL d   1     -49.807  13.110  21.790  0.00  0.00     0.021 A 
ATOM     18  C   UNL d   1     -50.491  13.089  21.284  0.00  0.00     0.002 A 
ATOM     19  C   UNL d   1     -51.064  13.664  21.373  0.00  0.00     0.002 A 
ENDBRANCH   1  11
BRANCH   5  20
ATOM     20  C   UNL d   1     -46.481  11.986  23.189  0.00  0.00     0.020 A 
ATOM     21  C   UNL d   1     -46.517  11.282  23.631  0.00  0.00     0.004 A 
ATOM     22  C   UNL d   1     -45.846  10.807  23.698  0.00  0.00     0.030 A 
ATOM     23  C   UNL d   1     -45.140  11.035  23.323  0.00  0.00     0.140 A 
ATOM     24  C   UNL d   1     -45.110  11.731  22.887  0.00  0.00     0.030 A 
ATOM     25  F   UNL d   1     -44.469  10.559  23.389  0.00  0.00    -0.204 F 
ATOM     26  C   UNL d   1     -45.781  12.207  22.820  0.00  0.00     0.004 A 
ENDBRANCH   5  20
TORSDOF 2
ENDMDL
MODEL 4
REMARK VINA RESULT:      -7.5      7.853      9.024
REMARK  2 active torsions:
REMARK  status: ('A' for Active; 'I' for Inactive)
REMARK    1  A    between atoms: C_3  and  N_1 
REMARK    2  A    between atoms: C_12  and  C_9 
ROOT
ATOM      1  C   UNL d   1     -39.251  15.199  20.931  0.00  0.00     0.187 A 
ATOM      2  N   UNL d   1     -38.720  14.959  20.339  0.00  0.00    -0.129 NA
ATOM      3  N   UNL d   1     -38.959  14.963  19.549  0.00  0.00    -0.147 NA
ATOM      4  C   UNL d   1     -40.011  15.439  20.732  0.00  0.00     0.039 A 
ATOM      5  C   UNL d   1     -39.729  15.207  19.352  0.00  0.00     0.103 A 
ATOM      6  C   UNL d   1     -40.250  15.443  19.942  0.00  0.00     0.022 A 
ATOM      7  C   UNL d   1     -40.537  15.677  21.322  0.00  0.00     0.003 A 
ATOM      8  C   UNL d   1     -41.015  15.684  19.743  0.00  0.00     0.002 A 
ATOM      9  C   UNL d   1     -41.536  15.920  20.333  0.00  0.00     0.000 A 
ATOM     10  C   UNL d   1     -41.297  15.917  21.123  0.00  0.00     0.000 A 
ENDROOT
BRANCH   1  11
ATOM     11  N   UNL d   1     -39.012  15.196  21.721  0.00  0.00    -0.191 N 
ATOM     12  N   UNL d   1     -38.962  15.782  22.313  0.00  0.00    -0.058 NA
ATOM     13  N   UNL d   1     -38.683  15.459  23.005  0.00  0.00    -0.129 NA
ATOM     14  C   UNL d   1     -38.546  14.652  22.870  0.00  0.00     0.122 A 
ATOM     15  C   UNL d   1     -38.751  14.487  22.070  0.00  0.00     0.105 A 
ATOM     16  C   UNL d   1     -38.266  14.050  23.358  0.00  0.00     0.022 A 
ATOM     17  C   UNL d   1     -38.669  13.720  21.783  0.00  0.00     0.021 A 
ATOM     18  C   UNL d   1     -38.378  13.113  22.304  0.00  0.00     0.002 A 
ATOM     19  C   UNL d   1     -38.190  13.311  23.073  0.00  0.00     0.002 A 
ENDBRANCH   1  11
BRANCH   5  20
ATOM     20  C   UNL d   1     -39.968  15.210  18.562  0.00  0.00     0.020 A 
ATOM     21  C   UNL d   1     -39.849  15.890  18.099  0.00  0.00     0.004 A 
ATOM     22  C   UNL d   1     -40.088  15.894  17.309  0.00  0.00     0.030 A 
ATOM     23  C   UNL d   1     -40.446  15.217  16.983  0.00  0.00     0.140 A 
ATOM     24  C   UNL d   1     -40.561  14.548  17.446  0.00  0.00     0.030 A 
ATOM     25  F   UNL d   1     -40.685  15.221  16.193  0.00  0.00    -0.204 F 
ATOM     26  C   UNL d   1     -40.322  14.544  18.236  0.00  0.00     0.004 A 
ENDBRANCH   5  20
TORSDOF 2
ENDMDL
MODEL 5
REMARK VINA RESULT:      -7.2      8.588     10.205
REMARK  2 active torsions:
REMARK  status: ('A' for Active; 'I' for Inactive)
REMARK    1  A    between atoms: C_3  and  N_1 
REMARK    2  A    between atoms: C_12  and  C_9 
ROOT
ATOM      1  C   UNL d   1     -38.972  14.743  19.586  0.00  0.00     0.187 A 
ATOM      2  N   UNL d   1     -38.180  14.676  19.342  0.00  0.00    -0.129 NA
ATOM      3  N   UNL d   1     -38.008  14.504  18.554  0.00  0.00    -0.147 NA
ATOM      4  C   UNL d   1     -39.581  14.638  19.045  0.00  0.00     0.039 A 
ATOM      5  C   UNL d   1     -38.628  14.398  18.009  0.00  0.00     0.103 A 
ATOM      6  C   UNL d   1     -39.409  14.465  18.256  0.00  0.00     0.022 A 
ATOM      7  C   UNL d   1     -40.367  14.704  19.290  0.00  0.00     0.003 A 
ATOM      8  C   UNL d   1     -40.023  14.360  17.713  0.00  0.00     0.002 A 
ATOM      9  C   UNL d   1     -40.804  14.427  17.961  0.00  0.00     0.000 A 
ATOM     10  C   UNL d   1     -40.976  14.599  18.749  0.00  0.00     0.000 A 
ENDROOT
BRANCH   1  11
ATOM     11  N   UNL d   1     -39.144  14.915  20.374  0.00  0.00    -0.191 N 
ATOM     12  N   UNL d   1     -39.546  15.540  20.756  0.00  0.00    -0.058 NA
ATOM     13  N   UNL d   1     -39.549  15.422  21.561  0.00  0.00    -0.129 NA
ATOM     14  C   UNL d   1     -39.146  14.713  21.714  0.00  0.00     0.122 A 
ATOM     15  C   UNL d   1     -38.893  14.397  20.974  0.00  0.00     0.105 A 
ATOM     16  C   UNL d   1     -38.974  14.315  22.414  0.00  0.00     0.022 A 
ATOM     17  C   UNL d   1     -38.475  13.688  20.962  0.00  0.00     0.021 A 
ATOM     18  C   UNL d   1     -38.309  13.293  21.697  0.00  0.00     0.002 A 
ATOM     19  C   UNL d   1     -38.570  13.630  22.393  0.00  0.00     0.002 A 
ENDBRANCH   1  11
BRANCH   5  20
ATOM     20  C   UNL d   1     -38.456  14.226  17.221  0.00  0.00     0.020 A 
ATOM     21  C   UNL d   1     -38.390  14.844  16.669  0.00  0.00     0.004 A 
ATOM     22  C   UNL d   1     -38.218  14.672  15.881  0.00  0.00     0.030 A 
ATOM     23  C   UNL d   1     -38.112  13.881  15.645  0.00  0.00     0.140 A 
ATOM     24  C   UNL d   1     -38.178  13.274  16.195  0.00  0.00     0.030 A 
ATOM     25  F   UNL d   1     -37.940  13.709  14.856  0.00  0.00    -0.204 F 
ATOM     26  C   UNL d   1     -38.350  13.447  16.983  0.00  0.00     0.004 A 
ENDBRANCH   5  20
TORSDOF 2
ENDMDL
MODEL 6
REMARK VINA RESULT:      -7.1      1.363      2.128
REMARK  2 active torsions:
REMARK  status: ('A' for Active; 'I' for Inactive)
REMARK    1  A    between atoms: C_3  and  N_1 
REMARK    2  A    between atoms: C_12  and  C_9 
ROOT
ATOM      1  C   UNL d   1     -46.260  12.577  22.441  0.00  0.00     0.187 A 
ATOM      2  N   UNL d   1     -46.835  11.990  22.319  0.00  0.00    -0.129 NA
ATOM      3  N   UNL d   1     -47.635  12.192  22.327  0.00  0.00    -0.147 NA
ATOM      4  C   UNL d   1     -46.487  13.357  22.571  0.00  0.00     0.039 A 
ATOM      5  C   UNL d   1     -47.860  12.982  22.458  0.00  0.00     0.103 A 
ATOM      6  C   UNL d   1     -47.286  13.559  22.579  0.00  0.00     0.022 A 
ATOM      7  C   UNL d   1     -45.913  13.938  22.692  0.00  0.00     0.003 A 
ATOM      8  C   UNL d   1     -47.512  14.343  22.709  0.00  0.00     0.002 A 
ATOM      9  C   UNL d   1     -46.939  14.919  22.830  0.00  0.00     0.000 A 
ATOM     10  C   UNL d   1     -46.139  14.717  22.822  0.00  0.00     0.000 A 
ENDROOT
BRANCH   1  11
ATOM     11  N   UNL d   1     -45.461  12.375  22.433  0.00  0.00    -0.191 N 
ATOM     12  N   UNL d   1     -44.783  12.707  22.075  0.00  0.00    -0.058 NA
ATOM     13  N   UNL d   1     -44.124  12.266  22.258  0.00  0.00    -0.129 NA
ATOM     14  C   UNL d   1     -44.367  11.638  22.742  0.00  0.00     0.122 A 
ATOM     15  C   UNL d   1     -45.200  11.705  22.851  0.00  0.00     0.105 A 
ATOM     16  C   UNL d   1     -43.952  11.020  23.095  0.00  0.00     0.022 A 
ATOM     17  C   UNL d   1     -45.591  11.147  23.313  0.00  0.00     0.021 A 
ATOM     18  C   UNL d   1     -45.143  10.517  23.669  0.00  0.00     0.002 A 
ATOM     19  C   UNL d   1     -44.338  10.485  23.540  0.00  0.00     0.002 A 
ENDBRANCH   1  11
BRANCH   5  20
ATOM     20  C   UNL d   1     -48.659  13.185  22.467  0.00  0.00     0.020 A 
ATOM     21  C   UNL d   1     -49.010  13.506  21.785  0.00  0.00     0.004 A 
ATOM     22  C   UNL d   1     -49.810  13.709  21.794  0.00  0.00     0.030 A 
ATOM     23  C   UNL d   1     -50.259  13.590  22.484  0.00  0.00     0.140 A 
ATOM     24  C   UNL d   1     -49.906  13.272  23.155  0.00  0.00     0.030 A 
ATOM     25  F   UNL d   1     -51.059  13.792  22.492  0.00  0.00    -0.204 F 
ATOM     26  C   UNL d   1     -49.106  13.069  23.146  0.00  0.00     0.004 A 
ENDBRANCH   5  20
TORSDOF 2
ENDMDL
MODEL 7
REMARK VINA RESULT:      -6.8      8.590      9.930
REMARK  2 active torsions:
REMARK  status: ('A' for Active; 'I' for Inactive)
REMARK    1  A    between atoms: C_3  and  N_1 
REMARK    2  A    between atoms: C_12  and  C_9 
ROOT
ATOM      1  C   UNL d   1     -38.896  15.304  18.562  0.00  0.00     0.187 A 
ATOM      2  N   UNL d   1     -38.217  15.082  18.988  0.00  0.00    -0.129 NA
ATOM      3  N   UNL d   1     -38.240  15.062  19.813  0.00  0.00    -0.147 NA
ATOM      4  C   UNL d   1     -39.587  15.503  18.960  0.00  0.00     0.039 A 
ATOM      5  C   UNL d   1     -38.942  15.264  20.211  0.00  0.00     0.103 A 
ATOM      6  C   UNL d   1     -39.610  15.483  19.785  0.00  0.00     0.022 A 
ATOM      7  C   UNL d   1     -40.260  15.723  18.534  0.00  0.00     0.003 A 
ATOM      8  C   UNL d   1     -40.306  15.683  20.183  0.00  0.00     0.002 A 
ATOM      9  C   UNL d   1     -40.973  15.902  19.757  0.00  0.00     0.000 A 
ATOM     10  C   UNL d   1     -40.950  15.922  18.932  0.00  0.00     0.000 A 
ENDROOT
BRANCH   1  11
ATOM     11  N   UNL d   1     -38.873  15.324  17.738  0.00  0.00    -0.191 N 
ATOM     12  N   UNL d   1     -39.017  15.918  17.169  0.00  0.00    -0.058 NA
ATOM     13  N   UNL d   1     -38.909  15.620  16.419  0.00  0.00    -0.129 NA
ATOM     14  C   UNL d   1     -38.692  14.823  16.492  0.00  0.00     0.122 A 
ATOM     15  C   UNL d   1     -38.670  14.638  17.314  0.00  0.00     0.105 A 
ATOM     16  C   UNL d   1     -38.514  14.245  15.933  0.00  0.00     0.022 A 
ATOM     17  C   UNL d   1     -38.468  13.875  17.548  0.00  0.00     0.021 A 
ATOM     18  C   UNL d   1     -38.288  13.293  16.954  0.00  0.00     0.002 A 
ATOM     19  C   UNL d   1     -38.321  13.511  16.168  0.00  0.00     0.002 A 
ENDBRANCH   1  11
BRANCH   5  20
ATOM     20  C   UNL d   1     -38.965  15.244  21.036  0.00  0.00     0.020 A 
ATOM     21  C   UNL d   1     -38.757  15.922  21.470  0.00  0.00     0.004 A 
ATOM     22  C   UNL d   1     -38.780  15.902  22.295  0.00  0.00     0.030 A 
ATOM     23  C   UNL d   1     -39.011  15.205  22.685  0.00  0.00     0.140 A 
ATOM     24  C   UNL d   1     -39.216  14.538  22.250  0.00  0.00     0.030 A 
ATOM     25  F   UNL d   1     -39.034  15.185  23.509  0.00  0.00    -0.204 F 
ATOM     26  C   UNL d   1     -39.193  14.558  21.425  0.00  0.00     0.004 A 
ENDBRANCH   5  20
TORSDOF 2
ENDMDL
MODEL 8
REMARK VINA RESULT:      -6.8      7.270      9.576
REMARK  2 active torsions:
REMARK  status: ('A' for Active; 'I' for Inactive)
REMARK    1  A    between atoms: C_3  and  N_1 
REMARK    2  A    between atoms: C_12  and  C_9 
ROOT
ATOM      1  C   UNL d   1     -39.355  13.777  17.848  0.00  0.00     0.187 A 
ATOM      2  N   UNL d   1     -40.114  14.079  17.692  0.00  0.00    -0.129 NA
ATOM      3  N   UNL d   1     -40.553  14.418  18.304  0.00  0.00    -0.147 NA
ATOM      4  C   UNL d   1     -39.043  13.814  18.608  0.00  0.00     0.039 A 
ATOM      5  C   UNL d   1     -40.233  14.454  19.071  0.00  0.00     0.103 A 
ATOM      6  C   UNL d   1     -39.482  14.153  19.219  0.00  0.00     0.022 A 
ATOM      7  C   UNL d   1     -38.289  13.513  18.760  0.00  0.00     0.003 A 
ATOM      8  C   UNL d   1     -39.167  14.191  19.982  0.00  0.00     0.002 A 
ATOM      9  C   UNL d   1     -38.417  13.890  20.129  0.00  0.00     0.000 A 
ATOM     10  C   UNL d   1     -37.978  13.551  19.518  0.00  0.00     0.000 A 
ENDROOT
BRANCH   1  11
ATOM     11  N   UNL d   1     -38.917  13.438  17.237  0.00  0.00    -0.191 N 
ATOM     12  N   UNL d   1     -38.623  12.670  17.092  0.00  0.00    -0.058 NA
ATOM     13  N   UNL d   1     -38.219  12.652  16.386  0.00  0.00    -0.129 NA
ATOM     14  C   UNL d   1     -38.246  13.414  16.061  0.00  0.00     0.122 A 
ATOM     15  C   UNL d   1     -38.681  13.905  16.590  0.00  0.00     0.105 A 
ATOM     16  C   UNL d   1     -37.940  13.729  15.364  0.00  0.00     0.022 A 
ATOM     17  C   UNL d   1     -38.794  14.698  16.403  0.00  0.00     0.021 A 
ATOM     18  C   UNL d   1     -38.469  15.002  15.678  0.00  0.00     0.002 A 
ATOM     19  C   UNL d   1     -38.054  14.496  15.190  0.00  0.00     0.002 A 
ENDBRANCH   1  11
BRANCH   5  20
ATOM     20  C   UNL d   1     -40.672  14.793  19.682  0.00  0.00     0.020 A 
ATOM     21  C   UNL d   1     -40.533  15.583  19.899  0.00  0.00     0.004 A 
ATOM     22  C   UNL d   1     -40.972  15.921  20.510  0.00  0.00     0.030 A 
ATOM     23  C   UNL d   1     -41.549  15.470  20.904  0.00  0.00     0.140 A 
ATOM     24  C   UNL d   1     -41.682  14.689  20.684  0.00  0.00     0.030 A 
ATOM     25  F   UNL d   1     -41.988  15.809  21.515  0.00  0.00    -0.204 F 
ATOM     26  C   UNL d   1     -41.243  14.350  20.073  0.00  0.00     0.004 A 
ENDBRANCH   5  20
TORSDOF 2
ENDMDL
