MODEL 1
REMARK VINA RESULT:      68.7      0.000      0.000
REMARK  5 active torsions:
REMARK  status: ('A' for Active; 'I' for Inactive)
REMARK    1  A    between atoms: N_6  and  C_1 
REMARK    2  A    between atoms: S_2  and  C_11 
REMARK    3  A    between atoms: N_8  and  S_2 
REMARK    4  A    between atoms: C_10  and  C_3 
REMARK       I    between atoms: C_9  and  N_6 
REMARK    5  A    between atoms: C_14  and  C_9 
REMARK       I    between atoms: N_22  and  C_10 
ROOT
ATOM      1  C   UNL d   1      14.428  17.369  -4.970  0.00  0.00     0.104 A 
ATOM      2  C   UNL d   1      14.364  15.825  -4.370  0.00  0.00     0.058 A 
ATOM      3  C   UNL d   1      14.757  17.199  -4.236  0.00  0.00     0.013 A 
ATOM      4  C   UNL d   1      14.062  16.764  -5.412  0.00  0.00     0.013 A 
ATOM      5  C   UNL d   1      14.726  16.428  -3.934  0.00  0.00     0.005 A 
ATOM      6  C   UNL d   1      14.031  15.996  -5.112  0.00  0.00     0.005 A 
ENDROOT
BRANCH   2   7
ATOM      7  C   UNL d   1      14.333  15.058  -4.070  0.00  0.00     0.280 C 
ATOM      8  N   UNL d   1      13.488  14.631  -4.247  0.00  0.00    -0.201 NA
ATOM      9  O   UNL d   1      14.914  14.883  -3.757  0.00  0.00    -0.265 OA
BRANCH   8  10
ATOM     10  C   UNL d   1      13.500  13.950  -3.964  0.00  0.00     0.119 A 
ATOM     11  C   UNL d   1      13.390  13.194  -4.098  0.00  0.00     0.082 A 
ATOM     12  C   UNL d   1      13.536  12.798  -3.429  0.00  0.00     0.013 A 
ATOM     13  C   UNL d   1      13.512  12.029  -3.248  0.00  0.00     0.001 A 
ATOM     14  C   UNL d   1      13.739  13.329  -2.877  0.00  0.00     0.031 A 
ATOM     15  C   UNL d   1      13.690  11.792  -2.517  0.00  0.00     0.001 A 
ATOM     16  C   UNL d   1      13.892  12.319  -1.969  0.00  0.00     0.006 A 
ATOM     17  S   UNL d   1      13.717  14.041  -3.208  0.00  0.00    -0.068 SA
BRANCH  11  18
ATOM     18  C   UNL d   1      13.171  12.873  -4.784  0.00  0.00     0.281 C 
ATOM     19  O   UNL d   1      12.783  13.311  -5.318  0.00  0.00    -0.265 OA
ATOM     20  N   UNL d   1      13.336  12.115  -4.940  0.00  0.00    -0.205 NA
ATOM     21  C   UNL d   1      13.105  11.782  -5.659  0.00  0.00     0.123 C 
ENDBRANCH  11  18
ENDBRANCH   8  10
ENDBRANCH   2   7
BRANCH   1  22
ATOM     22  S   UNL d   1      14.460  18.141  -5.271  0.00  0.00     0.272 S 
ATOM     23  O   UNL d   1      13.639  18.139  -5.361  0.00  0.00    -0.200 OA
ATOM     24  O   UNL d   1      15.284  18.142  -5.182  0.00  0.00    -0.200 OA
BRANCH  22  25
ATOM     25  N   UNL d   1      14.491  18.908  -5.572  0.00  0.00    -0.225 N 
ATOM     26  C   UNL d   1      15.167  19.370  -5.469  0.00  0.00     0.118 A 
ATOM     27  C   UNL d   1      15.198  20.145  -5.772  0.00  0.00     0.142 A 
ATOM     28  O   UNL d   1      14.546  20.455  -6.179  0.00  0.00    -0.300 OA
ATOM     29  C   UNL d   1      13.878  19.995  -6.279  0.00  0.00     0.142 A 
ATOM     30  C   UNL d   1      13.847  19.227  -5.979  0.00  0.00     0.118 A 
ENDBRANCH  22  25
ENDBRANCH   1  22
TORSDOF 5
ENDMDL
