MODEL 1
REMARK VINA RESULT:      -0.9      0.000      0.000
REMARK  8 active torsions:
REMARK  status: ('A' for Active; 'I' for Inactive)
REMARK    1  A    between atoms: C_11  and  N_1 
REMARK    2  A    between atoms: S_7  and  C_2 
REMARK    3  A    between atoms: C_18  and  S_7 
REMARK    4  A    between atoms: C_8  and  C_10 
REMARK       I    between atoms: N_14  and  C_8 
REMARK    5  A    between atoms: C_13  and  C_11 
REMARK    6  A    between atoms: C_25  and  N_14 
REMARK    7  A    between atoms: C_19  and  C_18 
REMARK    8  A    between atoms: C_26  and  C_25 
ROOT
ATOM      1  N   UNL d   1      32.063  18.156 -24.195  0.00  0.00    -0.253 N 
ATOM      2  C   UNL d   1      32.511  18.380 -23.583  0.00  0.00     0.182 A 
ATOM      3  C   UNL d   1      31.982  17.356 -24.396  0.00  0.00     0.268 A 
ATOM      4  N   UNL d   1      32.915  17.822 -23.122  0.00  0.00    -0.222 NA
ATOM      5  C   UNL d   1      32.369  16.798 -23.957  0.00  0.00     0.074 A 
ATOM      6  C   UNL d   1      32.845  17.036 -23.307  0.00  0.00     0.088 A 
ATOM      7  O   UNL d   1      31.518  17.124 -25.029  0.00  0.00    -0.267 OA
ATOM      8  C   UNL d   1      32.303  16.005 -24.137  0.00  0.00     0.006 A 
ATOM      9  C   UNL d   1      33.237  16.472 -22.863  0.00  0.00     0.019 A 
ATOM     10  C   UNL d   1      32.706  15.453 -23.676  0.00  0.00     0.000 A 
ATOM     11  C   UNL d   1      33.155  15.677 -23.064  0.00  0.00     0.002 A 
ENDROOT
BRANCH   2  12
ATOM     12  S   UNL d   1      32.579  19.188 -23.398  0.00  0.00    -0.049 SA
BRANCH  12  13
ATOM     13  C   UNL d   1      33.012  19.415 -22.726  0.00  0.00     0.038 C 
BRANCH  13  14
ATOM     14  C   UNL d   1      32.997  20.192 -22.448  0.00  0.00     0.007 A 
ATOM     15  C   UNL d   1      33.235  20.809 -22.964  0.00  0.00     0.001 A 
ATOM     16  C   UNL d   1      33.227  21.577 -22.706  0.00  0.00     0.005 A 
ATOM     17  C   UNL d   1      32.983  21.754 -21.933  0.00  0.00     0.058 A 
ATOM     18  C   UNL d   1      32.753  21.146 -21.438  0.00  0.00     0.005 A 
ATOM     19  C   UNL d   1      32.765  20.373 -21.707  0.00  0.00     0.001 A 
BRANCH  17  20
ATOM     20  C   UNL d   1      32.966  22.543 -21.641  0.00  0.00     0.279 C 
ATOM     21  O   UNL d   1      33.086  23.184 -22.171  0.00  0.00    -0.265 OA
ATOM     22  N   UNL d   1      32.830  22.690 -20.838  0.00  0.00    -0.203 NA
BRANCH  22  23
ATOM     23  C   UNL d   1      32.813  23.492 -20.546  0.00  0.00     0.148 C 
BRANCH  23  24
ATOM     24  C   UNL d   1      32.546  23.657 -19.799  0.00  0.00     0.255 C 
ATOM     25  O   UNL d   1      32.914  23.330 -19.147  0.00  0.00    -0.281 OA
ENDBRANCH  23  24
ENDBRANCH  22  23
ENDBRANCH  17  20
ENDBRANCH  13  14
ENDBRANCH  12  13
ENDBRANCH   2  12
BRANCH   1  26
ATOM     26  C   UNL d   1      31.663  18.730 -24.649  0.00  0.00     0.085 C 
BRANCH  26  27
ATOM     27  C   UNL d   1      30.870  18.584 -24.867  0.00  0.00     0.019 C 
ATOM     28  C   UNL d   1      30.368  19.212 -25.069  0.00  0.00     0.002 C 
ENDBRANCH  26  27
ENDBRANCH   1  26
TORSDOF 8
ENDMDL
MODEL 2
REMARK VINA RESULT:       1.2      1.331      2.494
REMARK  8 active torsions:
REMARK  status: ('A' for Active; 'I' for Inactive)
REMARK    1  A    between atoms: C_11  and  N_1 
REMARK    2  A    between atoms: S_7  and  C_2 
REMARK    3  A    between atoms: C_18  and  S_7 
REMARK    4  A    between atoms: C_8  and  C_10 
REMARK       I    between atoms: N_14  and  C_8 
REMARK    5  A    between atoms: C_13  and  C_11 
REMARK    6  A    between atoms: C_25  and  N_14 
REMARK    7  A    between atoms: C_19  and  C_18 
REMARK    8  A    between atoms: C_26  and  C_25 
ROOT
ATOM      1  N   UNL d   1      31.712  16.624 -23.914  0.00  0.00    -0.253 N 
ATOM      2  C   UNL d   1      31.768  17.401 -23.781  0.00  0.00     0.182 A 
ATOM      3  C   UNL d   1      31.028  16.295 -24.248  0.00  0.00     0.268 A 
ATOM      4  N   UNL d   1      31.146  17.914 -23.972  0.00  0.00    -0.222 NA
ATOM      5  C   UNL d   1      30.411  16.780 -24.440  0.00  0.00     0.074 A 
ATOM      6  C   UNL d   1      30.471  17.606 -24.300  0.00  0.00     0.088 A 
ATOM      7  O   UNL d   1      30.970  15.490 -24.385  0.00  0.00    -0.267 OA
ATOM      8  C   UNL d   1      29.729  16.478 -24.770  0.00  0.00     0.006 A 
ATOM      9  C   UNL d   1      29.846  18.097 -24.494  0.00  0.00     0.019 A 
ATOM     10  C   UNL d   1      29.111  16.990 -24.959  0.00  0.00     0.000 A 
ATOM     11  C   UNL d   1      29.167  17.768 -24.826  0.00  0.00     0.002 A 
ENDROOT
BRANCH   2  12
ATOM     12  S   UNL d   1      32.463  17.712 -23.445  0.00  0.00    -0.049 SA
BRANCH  12  13
ATOM     13  C   UNL d   1      32.695  18.486 -23.635  0.00  0.00     0.038 C 
BRANCH  13  14
ATOM     14  C   UNL d   1      32.805  19.058 -23.051  0.00  0.00     0.007 A 
ATOM     15  C   UNL d   1      32.596  19.853 -23.221  0.00  0.00     0.001 A 
ATOM     16  C   UNL d   1      32.698  20.427 -22.659  0.00  0.00     0.005 A 
ATOM     17  C   UNL d   1      33.008  20.231 -21.916  0.00  0.00     0.058 A 
ATOM     18  C   UNL d   1      33.210  19.454 -21.759  0.00  0.00     0.005 A 
ATOM     19  C   UNL d   1      33.103  18.881 -22.333  0.00  0.00     0.001 A 
BRANCH  17  20
ATOM     20  C   UNL d   1      33.124  20.808 -21.314  0.00  0.00     0.279 C 
ATOM     21  O   UNL d   1      33.241  20.562 -20.520  0.00  0.00    -0.265 OA
ATOM     22  N   UNL d   1      33.123  21.614 -21.501  0.00  0.00    -0.203 NA
BRANCH  22  23
ATOM     23  C   UNL d   1      33.241  22.197 -20.888  0.00  0.00     0.148 C 
BRANCH  23  24
ATOM     24  C   UNL d   1      32.918  22.937 -20.951  0.00  0.00     0.255 C 
ATOM     25  O   UNL d   1      32.823  23.404 -20.287  0.00  0.00    -0.281 OA
ENDBRANCH  23  24
ENDBRANCH  22  23
ENDBRANCH  17  20
ENDBRANCH  13  14
ENDBRANCH  12  13
ENDBRANCH   2  12
BRANCH   1  26
ATOM     26  C   UNL d   1      32.348  16.122 -23.716  0.00  0.00     0.085 C 
BRANCH  26  27
ATOM     27  C   UNL d   1      32.502  15.973 -22.909  0.00  0.00     0.019 C 
ATOM     28  C   UNL d   1      33.112  15.458 -22.687  0.00  0.00     0.002 C 
ENDBRANCH  26  27
ENDBRANCH   1  26
TORSDOF 8
ENDMDL
