MODEL 1
REMARK VINA RESULT:      55.4      0.000      0.000
REMARK  5 active torsions:
REMARK  status: ('A' for Active; 'I' for Inactive)
REMARK    1  A    between atoms: C_11  and  C_8 
REMARK       I    between atoms: N_22  and  C_11 
REMARK    2  A    between atoms: N_14  and  C_24 
REMARK    3  A    between atoms: C_27  and  N_22 
REMARK    4  A    between atoms: C_24  and  C_25 
REMARK    5  A    between atoms: C_25  and  C_27 
ROOT
ATOM      1  C   UNL d   1     -51.227  24.456  33.405  0.00  0.00     0.154 A 
ATOM      2  C   UNL d   1     -51.570  25.206  33.387  0.00  0.00     0.093 A 
ATOM      3  N   UNL d   1     -51.711  23.781  33.401  0.00  0.00    -0.210 NA
ATOM      4  N   UNL d   1     -52.874  24.609  33.360  0.00  0.00    -0.258 N 
ATOM      5  C   UNL d   1     -52.397  25.281  33.364  0.00  0.00     0.269 A 
ATOM      6  N   UNL d   1     -50.413  24.549  33.426  0.00  0.00    -0.285 N 
ATOM      7  C   UNL d   1     -52.531  23.859  33.378  0.00  0.00     0.152 A 
ATOM      8  C   UNL d   1     -50.246  25.354  33.420  0.00  0.00     0.124 A 
ATOM      9  C   UNL d   1     -50.970  25.766  33.396  0.00  0.00     0.030 A 
ATOM     10  C   UNL d   1     -53.693  24.688  33.337  0.00  0.00     0.084 A 
ATOM     11  C   UNL d   1     -53.007  23.188  33.374  0.00  0.00     0.038 A 
ATOM     12  C   UNL d   1     -54.169  24.016  33.333  0.00  0.00     0.018 A 
ATOM     13  C   UNL d   1     -53.826  23.266  33.351  0.00  0.00     0.005 A 
ATOM     14  O   UNL d   1     -52.740  26.031  33.346  0.00  0.00    -0.266 OA
ATOM     15  C   UNL d   1     -49.852  23.941  33.448  0.00  0.00     0.101 C 
ATOM     16  C   UNL d   1     -55.000  24.090  33.310  0.00  0.00     0.002 C 
ENDROOT
BRANCH   8  17
ATOM     17  C   UNL d   1     -49.496  25.698  33.436  0.00  0.00     0.295 C 
ATOM     18  O   UNL d   1     -48.827  25.235  33.307  0.00  0.00    -0.264 OA
ATOM     19  N   UNL d   1     -49.414  26.504  33.580  0.00  0.00    -0.205 NA
BRANCH  19  20
ATOM     20  C   UNL d   1     -48.664  26.847  33.596  0.00  0.00     0.104 C 
BRANCH  20  21
ATOM     21  C   UNL d   1     -48.414  27.260  34.263  0.00  0.00     0.040 C 
BRANCH  21  22
ATOM     22  C   UNL d   1     -48.699  28.030  34.409  0.00  0.00     0.083 C 
BRANCH  22  23
ATOM     23  N   UNL d   1     -48.285  28.535  34.909  0.00  0.00    -0.285 N 
ATOM     24  C   UNL d   1     -47.514  28.822  34.891  0.00  0.00     0.183 A 
ATOM     25  N   UNL d   1     -47.404  29.313  35.541  0.00  0.00    -0.222 NA
ATOM     26  C   UNL d   1     -48.108  29.338  35.974  0.00  0.00     0.120 A 
ATOM     27  C   UNL d   1     -48.654  28.853  35.577  0.00  0.00     0.102 A 
ENDBRANCH  22  23
ENDBRANCH  21  22
ENDBRANCH  20  21
ENDBRANCH  19  20
ENDBRANCH   8  17
TORSDOF 5
ENDMDL
