MODEL 1
REMARK VINA RESULT:      -3.6      0.000      0.000
REMARK  6 active torsions:
REMARK  status: ('A' for Active; 'I' for Inactive)
REMARK    1  A    between atoms: C_2  and  S_1 
REMARK    2  A    between atoms: C_13  and  S_1 
REMARK    3  A    between atoms: C_5  and  C_3 
REMARK    4  A    between atoms: C_16  and  C_5 
REMARK    5  A    between atoms: O_30  and  C_24 
REMARK    6  A    between atoms: C_33  and  O_30 
ROOT
ATOM      1  C   UNL d   1     -40.051  14.899  20.334  0.00  0.00     0.094 A 
ATOM      2  C   UNL d   1     -39.876  15.051  19.543  0.00  0.00     0.069 A 
ATOM      3  C   UNL d   1     -39.537  15.154  20.924  0.00  0.00     0.031 A 
ATOM      4  C   UNL d   1     -38.847  15.562  20.724  0.00  0.00     0.084 A 
ATOM      5  C   UNL d   1     -39.712  15.003  21.714  0.00  0.00     0.029 A 
ATOM      6  N   UNL d   1     -38.672  15.713  19.935  0.00  0.00    -0.244 NA
ATOM      7  C   UNL d   1     -39.186  15.458  19.344  0.00  0.00     0.103 A 
ATOM      8  C   UNL d   1     -38.334  15.817  21.315  0.00  0.00     0.046 A 
ATOM      9  C   UNL d   1     -39.199  15.258  22.304  0.00  0.00     0.123 A 
ATOM     10  C   UNL d   1     -38.509  15.665  22.104  0.00  0.00     0.124 A 
ATOM     11  O   UNL d   1     -39.374  15.106  23.094  0.00  0.00    -0.301 OA
ATOM     12  O   UNL d   1     -37.995  15.920  22.695  0.00  0.00    -0.301 OA
ATOM     13  C   UNL d   1     -38.858  15.362  23.697  0.00  0.00     0.149 A 
ATOM     14  C   UNL d   1     -38.168  15.770  23.497  0.00  0.00     0.149 A 
ENDROOT
BRANCH   1  15
ATOM     15  S   UNL d   1     -40.739  14.492  20.537  0.00  0.00     0.210 S 
ATOM     16  O   UNL d   1     -41.179  15.185  20.451  0.00  0.00    -0.217 OA
ATOM     17  O   UNL d   1     -40.299  13.799  20.623  0.00  0.00    -0.217 OA
BRANCH  15  18
ATOM     18  C   UNL d   1     -41.423  14.079  20.741  0.00  0.00     0.088 A 
ATOM     19  C   UNL d   1     -41.420  13.257  20.750  0.00  0.00     0.013 A 
ATOM     20  C   UNL d   1     -42.110  12.845  20.956  0.00  0.00     0.025 A 
ATOM     21  C   UNL d   1     -42.795  13.259  21.151  0.00  0.00     0.100 A 
ATOM     22  C   UNL d   1     -42.801  14.077  21.142  0.00  0.00     0.025 A 
ATOM     23  C   UNL d   1     -42.107  14.492  20.935  0.00  0.00     0.013 A 
BRANCH  21  24
ATOM     24  O   UNL d   1     -43.488  12.844  21.357  0.00  0.00    -0.305 OA
BRANCH  24  25
ATOM     25  C   UNL d   1     -44.001  13.154  21.922  0.00  0.00     0.123 C 
ATOM     26  C   UNL d   1     -44.574  12.670  22.262  0.00  0.00     0.029 C 
ENDBRANCH  24  25
ENDBRANCH  21  24
ENDBRANCH  15  18
ENDBRANCH   1  15
BRANCH   2  27
ATOM     27  C   UNL d   1     -40.392  14.795  18.941  0.00  0.00     0.198 C 
ATOM     28  O   UNL d   1     -41.194  14.695  19.106  0.00  0.00    -0.286 OA
BRANCH  27  29
ATOM     29  C   UNL d   1     -40.100  14.643  18.184  0.00  0.00     0.039 A 
ATOM     30  C   UNL d   1     -39.616  13.984  18.043  0.00  0.00     0.003 A 
ATOM     31  C   UNL d   1     -39.323  13.831  17.287  0.00  0.00     0.000 A 
ATOM     32  C   UNL d   1     -39.510  14.333  16.659  0.00  0.00     0.000 A 
ATOM     33  C   UNL d   1     -40.003  15.001  16.805  0.00  0.00     0.000 A 
ATOM     34  C   UNL d   1     -39.222  14.186  15.902  0.00  0.00     0.000 C 
ATOM     35  C   UNL d   1     -40.296  15.156  17.558  0.00  0.00     0.003 A 
ENDBRANCH  27  29
ENDBRANCH   2  27
TORSDOF 6
ENDMDL
MODEL 2
REMARK VINA RESULT:      -2.1      2.195      3.511
REMARK  6 active torsions:
REMARK  status: ('A' for Active; 'I' for Inactive)
REMARK    1  A    between atoms: C_2  and  S_1 
REMARK    2  A    between atoms: C_13  and  S_1 
REMARK    3  A    between atoms: C_5  and  C_3 
REMARK    4  A    between atoms: C_16  and  C_5 
REMARK    5  A    between atoms: O_30  and  C_24 
REMARK    6  A    between atoms: C_33  and  O_30 
ROOT
ATOM      1  C   UNL d   1     -38.940  13.985  19.215  0.00  0.00     0.094 A 
ATOM      2  C   UNL d   1     -38.407  13.395  19.001  0.00  0.00     0.069 A 
ATOM      3  C   UNL d   1     -39.018  14.201  20.005  0.00  0.00     0.031 A 
ATOM      4  C   UNL d   1     -38.562  13.826  20.583  0.00  0.00     0.084 A 
ATOM      5  C   UNL d   1     -39.551  14.791  20.219  0.00  0.00     0.029 A 
ATOM      6  N   UNL d   1     -38.030  13.237  20.370  0.00  0.00    -0.244 NA
ATOM      7  C   UNL d   1     -37.951  13.020  19.579  0.00  0.00     0.103 A 
ATOM      8  C   UNL d   1     -38.641  14.042  21.374  0.00  0.00     0.046 A 
ATOM      9  C   UNL d   1     -39.629  15.007  21.009  0.00  0.00     0.123 A 
ATOM     10  C   UNL d   1     -39.174  14.632  21.587  0.00  0.00     0.124 A 
ATOM     11  O   UNL d   1     -40.162  15.597  21.222  0.00  0.00    -0.301 OA
ATOM     12  O   UNL d   1     -39.252  14.848  22.377  0.00  0.00    -0.301 OA
ATOM     13  C   UNL d   1     -40.246  15.820  22.021  0.00  0.00     0.149 A 
ATOM     14  C   UNL d   1     -39.790  15.445  22.600  0.00  0.00     0.149 A 
ENDROOT
BRANCH   1  15
ATOM     15  S   UNL d   1     -39.397  14.361  18.640  0.00  0.00     0.210 S 
ATOM     16  O   UNL d   1     -39.011  15.074  18.795  0.00  0.00    -0.217 OA
ATOM     17  O   UNL d   1     -39.782  13.648  18.485  0.00  0.00    -0.217 OA
BRANCH  15  18
ATOM     18  C   UNL d   1     -39.857  14.731  18.064  0.00  0.00     0.088 A 
ATOM     19  C   UNL d   1     -39.548  15.354  17.627  0.00  0.00     0.013 A 
ATOM     20  C   UNL d   1     -40.014  15.723  17.048  0.00  0.00     0.025 A 
ATOM     21  C   UNL d   1     -40.784  15.465  16.913  0.00  0.00     0.100 A 
ATOM     22  C   UNL d   1     -41.095  14.844  17.347  0.00  0.00     0.025 A 
ATOM     23  C   UNL d   1     -40.627  14.473  17.929  0.00  0.00     0.013 A 
BRANCH  21  24
ATOM     24  O   UNL d   1     -41.252  15.835  16.332  0.00  0.00    -0.305 OA
BRANCH  24  25
ATOM     25  C   UNL d   1     -41.942  15.474  16.065  0.00  0.00     0.123 C 
ATOM     26  C   UNL d   1     -42.636  15.913  16.001  0.00  0.00     0.029 C 
ENDBRANCH  24  25
ENDBRANCH  21  24
ENDBRANCH  15  18
ENDBRANCH   1  15
BRANCH   2  27
ATOM     27  C   UNL d   1     -38.323  13.171  18.202  0.00  0.00     0.198 C 
ATOM     28  O   UNL d   1     -38.328  13.751  17.614  0.00  0.00    -0.286 OA
BRANCH  27  29
ATOM     29  C   UNL d   1     -38.236  12.376  18.002  0.00  0.00     0.039 A 
ATOM     30  C   UNL d   1     -38.028  11.817  18.580  0.00  0.00     0.003 A 
ATOM     31  C   UNL d   1     -37.941  11.020  18.381  0.00  0.00     0.000 A 
ATOM     32  C   UNL d   1     -38.060  10.770  17.604  0.00  0.00     0.000 A 
ATOM     33  C   UNL d   1     -38.271  11.340  17.020  0.00  0.00     0.000 A 
ATOM     34  C   UNL d   1     -37.975   9.976  17.400  0.00  0.00     0.000 C 
ATOM     35  C   UNL d   1     -38.359  12.134  17.215  0.00  0.00     0.003 A 
ENDBRANCH  27  29
ENDBRANCH   2  27
TORSDOF 6
ENDMDL
