MODEL 1
REMARK VINA RESULT:      -7.8      0.000      0.000
REMARK  6 active torsions:
REMARK  status: ('A' for Active; 'I' for Inactive)
REMARK    1  A    between atoms: N_13  and  C_2 
REMARK    2  A    between atoms: C_22  and  C_5 
REMARK    3  A    between atoms: C_23  and  C_6 
REMARK    4  A    between atoms: C_7  and  S_17 
REMARK       I    between atoms: C_16  and  N_13 
REMARK    5  A    between atoms: C_25  and  C_16 
REMARK    6  A    between atoms: S_17  and  C_25 
ROOT
ATOM      1  C   UNL d   1     -47.716  14.040  22.735  0.00  0.00     0.092 A 
ATOM      2  C   UNL d   1     -48.746  13.131  23.115  0.00  0.00     0.057 A 
ATOM      3  C   UNL d   1     -48.508  13.890  22.915  0.00  0.00     0.016 A 
ATOM      4  C   UNL d   1     -47.170  13.429  22.757  0.00  0.00     0.120 A 
ATOM      5  N   UNL d   1     -47.405  12.664  22.957  0.00  0.00    -0.239 NA
ATOM      6  C   UNL d   1     -48.197  12.514  23.137  0.00  0.00     0.081 A 
ATOM      7  C   UNL d   1     -49.536  12.990  23.292  0.00  0.00     0.193 A 
ATOM      8  C   UNL d   1     -47.481  14.805  22.535  0.00  0.00     0.103 C 
ATOM      9  N   UNL d   1     -47.235  15.566  22.333  0.00  0.00    -0.191 NA
ATOM     10  C   UNL d   1     -49.228  11.601  23.518  0.00  0.00     0.042 A 
ATOM     11  C   UNL d   1     -49.785  12.217  23.497  0.00  0.00     0.019 A 
ATOM     12  C   UNL d   1     -48.431  11.750  23.337  0.00  0.00    -0.003 A 
ATOM     13  O   UNL d   1     -50.090  13.604  23.272  0.00  0.00    -0.287 OA
ATOM     14  C   UNL d   1     -48.866  10.866  23.600  0.00  0.00     0.009 C 
ATOM     15  C   UNL d   1     -50.027  11.458  23.698  0.00  0.00     0.009 C 
ENDROOT
BRANCH   4  16
ATOM     16  S   UNL d   1     -46.378  13.578  22.577  0.00  0.00    -0.062 SA
BRANCH  16  17
ATOM     17  C   UNL d   1     -45.936  13.023  22.151  0.00  0.00     0.100 C 
BRANCH  17  18
ATOM     18  C   UNL d   1     -45.113  13.079  22.137  0.00  0.00     0.302 C 
ATOM     19  N   UNL d   1     -44.696  12.886  21.460  0.00  0.00    -0.018 NA
ATOM     20  O   UNL d   1     -44.708  13.330  22.806  0.00  0.00    -0.264 OA
BRANCH  19  21
ATOM     21  C   UNL d   1     -43.860  12.943  21.448  0.00  0.00     0.760 A 
ATOM     22  N   UNL d   1     -43.423  13.603  21.225  0.00  0.00    -0.051 NA
ATOM     23  C   UNL d   1     -42.630  13.413  21.297  0.00  0.00     0.147 A 
ATOM     24  S   UNL d   1     -42.579  12.642  21.561  0.00  0.00     0.052 SA
ATOM     25  N   UNL d   1     -43.342  12.352  21.655  0.00  0.00    -0.019 NA
BRANCH  23  26
ATOM     26  C   UNL d   1     -41.971  13.886  21.140  0.00  0.00     0.026 A 
ATOM     27  C   UNL d   1     -41.218  13.550  21.129  0.00  0.00     0.002 A 
ATOM     28  C   UNL d   1     -40.558  14.025  20.972  0.00  0.00     0.000 A 
ATOM     29  C   UNL d   1     -40.645  14.826  20.827  0.00  0.00     0.000 A 
ATOM     30  C   UNL d   1     -41.397  15.161  20.838  0.00  0.00     0.000 A 
ATOM     31  C   UNL d   1     -42.066  14.689  20.995  0.00  0.00     0.002 A 
ENDBRANCH  23  26
ENDBRANCH  19  21
ENDBRANCH  17  18
ENDBRANCH  16  17
ENDBRANCH   4  16
BRANCH   3  32
ATOM     32  C   UNL d   1     -49.054  14.503  22.893  0.00  0.00     0.001 A 
ATOM     33  C   UNL d   1     -49.448  14.676  22.187  0.00  0.00     0.000 A 
ATOM     34  C   UNL d   1     -49.994  15.288  22.165  0.00  0.00     0.000 A 
ATOM     35  C   UNL d   1     -50.153  15.734  22.839  0.00  0.00     0.000 A 
ATOM     36  C   UNL d   1     -49.759  15.562  23.544  0.00  0.00     0.000 A 
ATOM     37  C   UNL d   1     -49.208  14.945  23.571  0.00  0.00     0.000 A 
ENDBRANCH   3  32
TORSDOF 6
ENDMDL
MODEL 2
REMARK VINA RESULT:      -5.6      0.756      2.298
REMARK  6 active torsions:
REMARK  status: ('A' for Active; 'I' for Inactive)
REMARK    1  A    between atoms: N_13  and  C_2 
REMARK    2  A    between atoms: C_22  and  C_5 
REMARK    3  A    between atoms: C_23  and  C_6 
REMARK    4  A    between atoms: C_7  and  S_17 
REMARK       I    between atoms: C_16  and  N_13 
REMARK    5  A    between atoms: C_25  and  C_16 
REMARK    6  A    between atoms: S_17  and  C_25 
ROOT
ATOM      1  C   UNL d   1     -47.553  12.483  22.694  0.00  0.00     0.092 A 
ATOM      2  C   UNL d   1     -48.392  13.635  22.676  0.00  0.00     0.057 A 
ATOM      3  C   UNL d   1     -48.305  12.822  22.737  0.00  0.00     0.016 A 
ATOM      4  C   UNL d   1     -46.895  12.962  22.590  0.00  0.00     0.120 A 
ATOM      5  N   UNL d   1     -46.978  13.781  22.528  0.00  0.00    -0.239 NA
ATOM      6  C   UNL d   1     -47.730  14.119  22.571  0.00  0.00     0.081 A 
ATOM      7  C   UNL d   1     -49.143  13.965  22.719  0.00  0.00     0.193 A 
ATOM      8  C   UNL d   1     -47.470  11.665  22.756  0.00  0.00     0.103 C 
ATOM      9  N   UNL d   1     -47.375  10.848  22.817  0.00  0.00    -0.191 NA
ATOM     10  C   UNL d   1     -48.569  15.275  22.552  0.00  0.00     0.042 A 
ATOM     11  C   UNL d   1     -49.239  14.795  22.657  0.00  0.00     0.019 A 
ATOM     12  C   UNL d   1     -47.812  14.937  22.509  0.00  0.00    -0.003 A 
ATOM     13  O   UNL d   1     -49.810  13.485  22.823  0.00  0.00    -0.287 OA
ATOM     14  C   UNL d   1     -48.069  15.922  22.449  0.00  0.00     0.009 C 
ATOM     15  C   UNL d   1     -49.330  15.609  22.596  0.00  0.00     0.009 C 
ENDROOT
BRANCH   4  16
ATOM     16  S   UNL d   1     -46.142  12.625  22.548  0.00  0.00    -0.062 SA
BRANCH  16  17
ATOM     17  C   UNL d   1     -45.673  12.738  21.876  0.00  0.00     0.100 C 
BRANCH  17  18
ATOM     18  C   UNL d   1     -44.851  12.762  21.951  0.00  0.00     0.302 C 
ATOM     19  N   UNL d   1     -44.381  12.924  21.301  0.00  0.00    -0.018 NA
ATOM     20  O   UNL d   1     -44.502  12.622  22.680  0.00  0.00    -0.264 OA
BRANCH  19  21
ATOM     21  C   UNL d   1     -43.546  12.948  21.378  0.00  0.00     0.760 A 
ATOM     22  N   UNL d   1     -43.056  13.566  21.147  0.00  0.00    -0.051 NA
ATOM     23  C   UNL d   1     -42.287  13.353  21.325  0.00  0.00     0.147 A 
ATOM     24  S   UNL d   1     -42.302  12.610  21.663  0.00  0.00     0.052 SA
ATOM     25  N   UNL d   1     -43.084  12.360  21.696  0.00  0.00    -0.019 NA
BRANCH  23  26
ATOM     26  C   UNL d   1     -41.592  13.783  21.201  0.00  0.00     0.026 A 
ATOM     27  C   UNL d   1     -40.884  13.525  21.536  0.00  0.00     0.002 A 
ATOM     28  C   UNL d   1     -40.188  13.957  21.411  0.00  0.00     0.000 A 
ATOM     29  C   UNL d   1     -40.196  14.639  20.958  0.00  0.00     0.000 A 
ATOM     30  C   UNL d   1     -40.903  14.896  20.624  0.00  0.00     0.000 A 
ATOM     31  C   UNL d   1     -41.607  14.466  20.746  0.00  0.00     0.002 A 
ENDBRANCH  23  26
ENDBRANCH  19  21
ENDBRANCH  17  18
ENDBRANCH  16  17
ENDBRANCH   4  16
BRANCH   3  32
ATOM     32  C   UNL d   1     -48.962  12.342  22.840  0.00  0.00     0.001 A 
ATOM     33  C   UNL d   1     -49.399  12.096  22.183  0.00  0.00     0.000 A 
ATOM     34  C   UNL d   1     -50.056  11.616  22.286  0.00  0.00     0.000 A 
ATOM     35  C   UNL d   1     -50.286  11.375  23.040  0.00  0.00     0.000 A 
ATOM     36  C   UNL d   1     -49.850  11.621  23.697  0.00  0.00     0.000 A 
ATOM     37  C   UNL d   1     -49.187  12.106  23.597  0.00  0.00     0.000 A 
ENDBRANCH   3  32
TORSDOF 6
ENDMDL
