MODEL 1
REMARK VINA RESULT:       7.9      0.000      0.000
REMARK  7 active torsions:
REMARK  status: ('A' for Active; 'I' for Inactive)
REMARK    1  A    between atoms: C_2  and  S_1 
REMARK    2  A    between atoms: N_7  and  S_1 
REMARK    3  A    between atoms: O_11  and  C_6 
REMARK    4  A    between atoms: C_12  and  N_7 
REMARK    5  A    between atoms: O_13  and  C_9 
REMARK    6  A    between atoms: C_15  and  C_12 
REMARK    7  A    between atoms: C_14  and  C_15 
ROOT
ATOM      1  S   UNL d   1      46.086 -17.824  44.201  0.00  0.00     0.287 S 
ATOM      2  O   UNL d   1      46.645 -18.134  44.734  0.00  0.00    -0.198 OA
ATOM      3  O   UNL d   1      45.534 -17.511  43.685  0.00  0.00    -0.198 OA
ENDROOT
BRANCH   1   4
ATOM      4  C   UNL d   1      46.262 -18.427  43.662  0.00  0.00     0.129 A 
ATOM      5  C   UNL d   1      46.365 -18.238  42.877  0.00  0.00     0.039 A 
ATOM      6  C   UNL d   1      46.540 -18.833  42.335  0.00  0.00     0.095 A 
ATOM      7  C   UNL d   1      46.611 -19.607  42.587  0.00  0.00     0.026 A 
ATOM      8  C   UNL d   1      46.507 -19.805  43.386  0.00  0.00     0.027 A 
ATOM      9  C   UNL d   1      46.334 -19.216  43.918  0.00  0.00     0.106 A 
BRANCH   6  10
ATOM     10  O   UNL d   1      46.647 -18.650  41.532  0.00  0.00    -0.328 OA
ATOM     11  C   UNL d   1      46.632 -19.240  40.981  0.00  0.00     0.181 C 
ENDBRANCH   6  10
BRANCH   9  12
ATOM     12  O   UNL d   1      46.232 -19.416  44.709  0.00  0.00    -0.327 OA
ATOM     13  C   UNL d   1      46.380 -20.185  44.951  0.00  0.00     0.181 C 
ENDBRANCH   9  12
ENDBRANCH   1   4
BRANCH   1  14
ATOM     14  N   UNL d   1      45.917 -17.226  44.748  0.00  0.00    -0.157 NA
BRANCH  14  15
ATOM     15  C   UNL d   1      45.903 -16.420  44.516  0.00  0.00     0.112 C 
BRANCH  15  16
ATOM     16  C   UNL d   1      45.302 -15.913  44.774  0.00  0.00     0.021 C 
BRANCH  16  17
ATOM     17  C   UNL d   1      45.404 -15.097  44.742  0.00  0.00     0.002 A 
ATOM     18  C   UNL d   1      44.756 -14.603  44.629  0.00  0.00     0.000 A 
ATOM     19  C   UNL d   1      44.856 -13.785  44.596  0.00  0.00     0.000 A 
ATOM     20  C   UNL d   1      45.616 -13.458  44.679  0.00  0.00     0.000 A 
ATOM     21  C   UNL d   1      46.268 -13.970  44.793  0.00  0.00     0.000 A 
ATOM     22  C   UNL d   1      46.164 -14.771  44.824  0.00  0.00     0.000 A 
ENDBRANCH  16  17
ENDBRANCH  15  16
ENDBRANCH  14  15
ENDBRANCH   1  14
TORSDOF 7
ENDMDL
