MODEL 1
REMARK VINA RESULT:      49.5      0.000      0.000
REMARK  6 active torsions:
REMARK  status: ('A' for Active; 'I' for Inactive)
REMARK    1  A    between atoms: C_6  and  C_1 
REMARK    2  A    between atoms: C_9  and  N_3 
REMARK       I    between atoms: N_7  and  C_6 
REMARK    3  A    between atoms: C_8  and  N_7 
REMARK    4  A    between atoms: C_14  and  C_9 
REMARK    5  A    between atoms: O_21  and  C_12 
REMARK    6  A    between atoms: O_22  and  C_19 
ROOT
ATOM      1  C   UNL d   1      15.541  14.631  -0.570  0.00  0.00     0.199 A 
ATOM      2  C   UNL d   1      14.944  14.058  -0.499  0.00  0.00     0.211 A 
ATOM      3  N   UNL d   1      15.288  13.366  -0.207  0.00  0.00    -0.190 N 
ATOM      4  N   UNL d   1      16.251  14.290  -0.322  0.00  0.00    -0.122 NA
ATOM      5  N   UNL d   1      16.093  13.505  -0.098  0.00  0.00    -0.058 NA
ATOM      6  N   UNL d   1      14.144  14.162  -0.686  0.00  0.00    -0.125 N 
ENDROOT
BRANCH   1   7
ATOM      7  C   UNL d   1      15.437  15.401  -0.840  0.00  0.00     0.302 C 
ATOM      8  N   UNL d   1      15.267  15.534  -1.639  0.00  0.00    -0.205 NA
ATOM      9  O   UNL d   1      15.501  16.037  -0.319  0.00  0.00    -0.263 OA
BRANCH   8  10
ATOM     10  C   UNL d   1      15.161  16.311  -1.914  0.00  0.00     0.108 A 
ATOM     11  C   UNL d   1      15.176  16.942  -1.385  0.00  0.00     0.033 A 
ATOM     12  C   UNL d   1      15.071  17.714  -1.659  0.00  0.00     0.059 A 
ATOM     13 CL   UNL d   1      15.088  18.344  -1.122  0.00  0.00    -0.082 Cl
ATOM     14  C   UNL d   1      14.950  17.855  -2.465  0.00  0.00     0.013 A 
ATOM     15  C   UNL d   1      14.934  17.216  -3.001  0.00  0.00     0.027 A 
ATOM     16  C   UNL d   1      15.040  16.445  -2.718  0.00  0.00     0.112 A 
BRANCH  16  17
ATOM     17  O   UNL d   1      15.024  15.810  -3.248  0.00  0.00    -0.327 OA
ATOM     18  C   UNL d   1      15.013  15.953  -4.060  0.00  0.00     0.181 C 
ENDBRANCH  16  17
ENDBRANCH   8  10
ENDBRANCH   1   7
BRANCH   3  19
ATOM     19  C   UNL d   1      14.902  12.655  -0.051  0.00  0.00     0.104 C 
BRANCH  19  20
ATOM     20  C   UNL d   1      14.321  12.368  -0.556  0.00  0.00     0.021 A 
ATOM     21  C   UNL d   1      14.484  12.235  -1.352  0.00  0.00     0.026 A 
ATOM     22  C   UNL d   1      13.901  11.949  -1.854  0.00  0.00     0.094 A 
ATOM     23  C   UNL d   1      13.139  11.789  -1.565  0.00  0.00     0.024 A 
ATOM     24  C   UNL d   1      12.974  11.924  -0.756  0.00  0.00     0.002 A 
ATOM     25  C   UNL d   1      13.562  12.210  -0.261  0.00  0.00     0.002 A 
BRANCH  22  26
ATOM     26  O   UNL d   1      14.072  11.818  -2.650  0.00  0.00    -0.328 OA
ATOM     27  C   UNL d   1      13.898  12.396  -3.213  0.00  0.00     0.181 C 
ENDBRANCH  22  26
ENDBRANCH  19  20
ENDBRANCH   3  19
TORSDOF 6
ENDMDL
MODEL 2
REMARK VINA RESULT:      50.6      2.796      5.795
REMARK  6 active torsions:
REMARK  status: ('A' for Active; 'I' for Inactive)
REMARK    1  A    between atoms: C_6  and  C_1 
REMARK    2  A    between atoms: C_9  and  N_3 
REMARK       I    between atoms: N_7  and  C_6 
REMARK    3  A    between atoms: C_8  and  N_7 
REMARK    4  A    between atoms: C_14  and  C_9 
REMARK    5  A    between atoms: O_21  and  C_12 
REMARK    6  A    between atoms: O_22  and  C_19 
ROOT
ATOM      1  C   UNL d   1      14.179  15.097  -3.995  0.00  0.00     0.199 A 
ATOM      2  C   UNL d   1      13.975  15.174  -4.797  0.00  0.00     0.211 A 
ATOM      3  N   UNL d   1      14.290  15.887  -5.072  0.00  0.00    -0.190 N 
ATOM      4  N   UNL d   1      14.620  15.763  -3.780  0.00  0.00    -0.122 NA
ATOM      5  N   UNL d   1      14.687  16.251  -4.449  0.00  0.00    -0.058 NA
ATOM      6  N   UNL d   1      13.533  14.634  -5.241  0.00  0.00    -0.125 N 
ENDROOT
BRANCH   1   7
ATOM      7  C   UNL d   1      13.976  14.467  -3.507  0.00  0.00     0.302 C 
ATOM      8  N   UNL d   1      14.108  13.692  -3.765  0.00  0.00    -0.205 NA
ATOM      9  O   UNL d   1      13.642  14.606  -2.766  0.00  0.00    -0.263 OA
BRANCH   8  10
ATOM     10  C   UNL d   1      13.903  13.053  -3.274  0.00  0.00     0.108 A 
ATOM     11  C   UNL d   1      14.189  13.018  -2.502  0.00  0.00     0.033 A 
ATOM     12  C   UNL d   1      13.986  12.383  -2.015  0.00  0.00     0.059 A 
ATOM     13 CL   UNL d   1      14.277  12.354  -1.241  0.00  0.00    -0.082 Cl
ATOM     14  C   UNL d   1      13.495  11.782  -2.300  0.00  0.00     0.013 A 
ATOM     15  C   UNL d   1      13.205  11.818  -3.081  0.00  0.00     0.027 A 
ATOM     16  C   UNL d   1      13.414  12.457  -3.564  0.00  0.00     0.112 A 
BRANCH  16  17
ATOM     17  O   UNL d   1      13.127  12.495  -4.339  0.00  0.00    -0.327 OA
ATOM     18  C   UNL d   1      12.798  11.824  -4.688  0.00  0.00     0.181 C 
ENDBRANCH  16  17
ENDBRANCH   8  10
ENDBRANCH   1   7
BRANCH   3  19
ATOM     19  C   UNL d   1      14.223  16.189  -5.837  0.00  0.00     0.104 C 
BRANCH  19  20
ATOM     20  C   UNL d   1      13.893  16.929  -5.973  0.00  0.00     0.021 A 
ATOM     21  C   UNL d   1      14.330  17.615  -5.844  0.00  0.00     0.026 A 
ATOM     22  C   UNL d   1      13.997  18.352  -5.981  0.00  0.00     0.094 A 
ATOM     23  C   UNL d   1      13.215  18.416  -6.251  0.00  0.00     0.024 A 
ATOM     24  C   UNL d   1      12.771  17.719  -6.381  0.00  0.00     0.002 A 
ATOM     25  C   UNL d   1      13.111  16.986  -6.242  0.00  0.00     0.002 A 
BRANCH  22  26
ATOM     26  O   UNL d   1      14.442  19.034  -5.850  0.00  0.00    -0.328 OA
ATOM     27  C   UNL d   1      14.071  19.770  -5.806  0.00  0.00     0.181 C 
ENDBRANCH  22  26
ENDBRANCH  19  20
ENDBRANCH   3  19
TORSDOF 6
ENDMDL
