MODEL 1
REMARK VINA RESULT:      45.6      0.000      0.000
REMARK  3 active torsions:
REMARK  status: ('A' for Active; 'I' for Inactive)
REMARK    1  A    between atoms: C_7  and  C_3 
REMARK       I    between atoms: N_10  and  C_7 
REMARK    2  A    between atoms: C_19  and  C_9 
REMARK    3  A    between atoms: C_12  and  N_10 
ROOT
ATOM      1  C   UNL d   1     -55.220-102.010 -39.175  0.00  0.00     0.059 A 
ATOM      2  C   UNL d   1     -55.315-102.830 -39.160  0.00  0.00     0.013 A 
ATOM      3  C   UNL d   1     -55.106-102.050 -40.595  0.00  0.00     0.088 A 
ATOM      4  S   UNL d   1     -55.116-101.620 -39.890  0.00  0.00    -0.075 SA
ATOM      5  S   UNL d   1     -55.230-101.576 -38.471  0.00  0.00    -0.080 SA
ATOM      6  C   UNL d   1     -55.201-102.870 -40.580  0.00  0.00     0.012 A 
ATOM      7  C   UNL d   1     -55.429-102.790 -37.745  0.00  0.00     0.007 A 
ATOM      8  C   UNL d   1     -55.334-101.971 -37.760  0.00  0.00     0.030 A 
ENDROOT
BRANCH   3   9
ATOM      9  C   UNL d   1     -55.002-101.660 -41.310  0.00  0.00     0.285 C 
ATOM     10  N   UNL d   1     -55.129-102.063 -42.024  0.00  0.00    -0.208 NA
ATOM     11  O   UNL d   1     -54.774-100.876 -41.320  0.00  0.00    -0.265 OA
BRANCH  10  12
ATOM     12  C   UNL d   1     -55.024-101.672 -42.743  0.00  0.00     0.085 A 
ATOM     13  C   UNL d   1     -54.848-102.105 -43.412  0.00  0.00     0.021 A 
ATOM     14  C   UNL d   1     -54.742-101.727 -44.134  0.00  0.00     0.031 A 
ATOM     15  C   UNL d   1     -54.816-100.904 -44.177  0.00  0.00     0.140 A 
ATOM     16  C   UNL d   1     -54.994-100.475 -43.496  0.00  0.00     0.031 A 
ATOM     17  F   UNL d   1     -54.711-100.513 -44.896  0.00  0.00    -0.204 F 
ATOM     18  C   UNL d   1     -55.099-100.859 -42.775  0.00  0.00     0.021 A 
ENDBRANCH  10  12
ENDBRANCH   3   9
BRANCH   8  19
ATOM     19  C   UNL d   1     -55.345-101.549 -37.052  0.00  0.00     0.006 C 
ATOM     20  C   UNL d   1     -54.939-101.829 -36.394  0.00  0.00     0.001 C 
ENDBRANCH   8  19
TORSDOF 3
ENDMDL
