MODEL 1
REMARK VINA RESULT:      -3.2      0.000      0.000
REMARK  5 active torsions:
REMARK  status: ('A' for Active; 'I' for Inactive)
REMARK    1  A    between atoms: N_6  and  S_1 
REMARK    2  A    between atoms: C_11  and  S_1 
REMARK    3  A    between atoms: C_2  and  N_8 
REMARK    4  A    between atoms: C_10  and  C_3 
REMARK       I    between atoms: N_8  and  C_9 
REMARK    5  A    between atoms: C_9  and  C_17 
REMARK       I    between atoms: N_26  and  C_10 
ROOT
ATOM      1  N   UNL d   1     -41.568  13.864  21.052  0.00  0.00    -0.201 NA
ATOM      2  C   UNL d   1     -42.187  13.456  20.667  0.00  0.00     0.280 C 
ATOM      3  O   UNL d   1     -42.123  13.288  19.855  0.00  0.00    -0.265 OA
ENDROOT
BRANCH   2   4
ATOM      4  C   UNL d   1     -42.853  13.225  21.099  0.00  0.00     0.058 A 
ATOM      5  C   UNL d   1     -43.479  13.760  21.166  0.00  0.00     0.005 A 
ATOM      6  C   UNL d   1     -44.153  13.539  21.597  0.00  0.00     0.013 A 
ATOM      7  C   UNL d   1     -44.192  12.792  21.952  0.00  0.00     0.104 A 
ATOM      8  C   UNL d   1     -43.552  12.268  21.874  0.00  0.00     0.013 A 
ATOM      9  C   UNL d   1     -42.883  12.495  21.442  0.00  0.00     0.005 A 
BRANCH   7  10
ATOM     10  S   UNL d   1     -44.858  12.573  22.379  0.00  0.00     0.271 S 
ATOM     11  O   UNL d   1     -44.401  12.222  22.961  0.00  0.00    -0.200 OA
ATOM     12  O   UNL d   1     -45.316  12.932  21.783  0.00  0.00    -0.200 OA
BRANCH  10  13
ATOM     13  N   UNL d   1     -45.519  12.357  22.800  0.00  0.00    -0.231 N 
ATOM     14  C   UNL d   1     -46.079  12.913  23.018  0.00  0.00     0.075 A 
ATOM     15  C   UNL d   1     -45.974  13.707  22.809  0.00  0.00     0.020 C 
ATOM     16  C   UNL d   1     -46.743  12.688  23.442  0.00  0.00     0.018 A 
ATOM     17  C   UNL d   1     -46.848  11.895  23.652  0.00  0.00     0.003 A 
ATOM     18  C   UNL d   1     -46.291  11.339  23.435  0.00  0.00     0.020 A 
ATOM     19  C   UNL d   1     -45.636  11.576  23.014  0.00  0.00     0.092 A 
ENDBRANCH  10  13
ENDBRANCH   7  10
ENDBRANCH   2   4
BRANCH   1  20
ATOM     20  C   UNL d   1     -40.902  14.093  20.615  0.00  0.00     0.119 A 
ATOM     21  C   UNL d   1     -40.165  14.276  20.942  0.00  0.00     0.082 A 
ATOM     22  C   UNL d   1     -39.653  14.476  20.331  0.00  0.00     0.016 A 
ATOM     23  C   UNL d   1     -38.864  14.703  20.330  0.00  0.00     0.020 A 
ATOM     24  C   UNL d   1     -40.068  14.419  19.622  0.00  0.00     0.049 A 
ATOM     25  C   UNL d   1     -38.487  14.874  19.613  0.00  0.00     0.080 A 
ATOM     26  N   UNL d   1     -38.898  14.819  18.898  0.00  0.00    -0.301 N 
ATOM     27  C   UNL d   1     -39.691  14.590  18.912  0.00  0.00     0.087 A 
ATOM     28  C   UNL d   1     -38.526  14.987  18.194  0.00  0.00     0.100 C 
ATOM     29  S   UNL d   1     -40.845  14.181  19.802  0.00  0.00    -0.066 SA
BRANCH  21  30
ATOM     30  C   UNL d   1     -39.968  14.262  21.739  0.00  0.00     0.281 C 
ATOM     31  O   UNL d   1     -40.141  14.902  22.197  0.00  0.00    -0.265 OA
ATOM     32  N   UNL d   1     -39.599  13.600  22.062  0.00  0.00    -0.205 NA
ATOM     33  C   UNL d   1     -39.397  13.573  22.857  0.00  0.00     0.123 C 
ENDBRANCH  21  30
ENDBRANCH   1  20
TORSDOF 5
ENDMDL
MODEL 2
REMARK VINA RESULT:      -3.2      1.198      6.577
REMARK  5 active torsions:
REMARK  status: ('A' for Active; 'I' for Inactive)
REMARK    1  A    between atoms: N_6  and  S_1 
REMARK    2  A    between atoms: C_11  and  S_1 
REMARK    3  A    between atoms: C_2  and  N_8 
REMARK    4  A    between atoms: C_10  and  C_3 
REMARK       I    between atoms: N_8  and  C_9 
REMARK    5  A    between atoms: C_9  and  C_17 
REMARK       I    between atoms: N_26  and  C_10 
ROOT
ATOM      1  N   UNL d   1     -45.065  13.277  22.193  0.00  0.00    -0.201 NA
ATOM      2  C   UNL d   1     -44.429  12.765  22.018  0.00  0.00     0.280 C 
ATOM      3  O   UNL d   1     -44.508  11.951  22.160  0.00  0.00    -0.265 OA
ENDROOT
BRANCH   2   4
ATOM      4  C   UNL d   1     -43.729  13.078  21.706  0.00  0.00     0.058 A 
ATOM      5  C   UNL d   1     -43.066  12.587  21.668  0.00  0.00     0.005 A 
ATOM      6  C   UNL d   1     -42.358  12.889  21.356  0.00  0.00     0.013 A 
ATOM      7  C   UNL d   1     -42.325  13.672  21.089  0.00  0.00     0.104 A 
ATOM      8  C   UNL d   1     -43.002  14.150  21.135  0.00  0.00     0.013 A 
ATOM      9  C   UNL d   1     -43.704  13.842  21.447  0.00  0.00     0.005 A 
BRANCH   7  10
ATOM     10  S   UNL d   1     -41.625  13.972  20.780  0.00  0.00     0.271 S 
ATOM     11  O   UNL d   1     -41.407  13.238  20.493  0.00  0.00    -0.200 OA
ATOM     12  O   UNL d   1     -41.854  14.717  21.075  0.00  0.00    -0.200 OA
BRANCH  10  13
ATOM     13  N   UNL d   1     -40.934  14.271  20.476  0.00  0.00    -0.231 N 
ATOM     14  C   UNL d   1     -40.246  14.279  20.921  0.00  0.00     0.075 A 
ATOM     15  C   UNL d   1     -40.253  13.978  21.692  0.00  0.00     0.020 C 
ATOM     16  C   UNL d   1     -39.553  14.582  20.608  0.00  0.00     0.018 A 
ATOM     17  C   UNL d   1     -39.546  14.883  19.837  0.00  0.00     0.003 A 
ATOM     18  C   UNL d   1     -40.230  14.876  19.392  0.00  0.00     0.020 A 
ATOM     19  C   UNL d   1     -40.912  14.572  19.715  0.00  0.00     0.092 A 
ENDBRANCH  10  13
ENDBRANCH   7  10
ENDBRANCH   2   4
BRANCH   1  20
ATOM     20  C   UNL d   1     -45.764  12.960  22.506  0.00  0.00     0.119 A 
ATOM     21  C   UNL d   1     -46.395  13.408  22.798  0.00  0.00     0.082 A 
ATOM     22  C   UNL d   1     -46.981  12.893  23.057  0.00  0.00     0.016 A 
ATOM     23  C   UNL d   1     -47.717  13.026  23.392  0.00  0.00     0.020 A 
ATOM     24  C   UNL d   1     -46.717  12.124  22.928  0.00  0.00     0.049 A 
ATOM     25  C   UNL d   1     -48.196  12.384  23.602  0.00  0.00     0.080 A 
ATOM     26  N   UNL d   1     -47.938  11.609  23.475  0.00  0.00    -0.301 N 
ATOM     27  C   UNL d   1     -47.195  11.487  23.137  0.00  0.00     0.087 A 
ATOM     28  C   UNL d   1     -48.410  10.978  23.682  0.00  0.00     0.100 C 
ATOM     29  S   UNL d   1     -45.960  12.168  22.586  0.00  0.00    -0.066 SA
BRANCH  21  30
ATOM     30  C   UNL d   1     -46.438  14.228  22.827  0.00  0.00     0.281 C 
ATOM     31  O   UNL d   1     -46.011  14.624  23.383  0.00  0.00    -0.265 OA
ATOM     32  N   UNL d   1     -46.915  14.635  22.292  0.00  0.00    -0.205 NA
ATOM     33  C   UNL d   1     -46.968  15.454  22.310  0.00  0.00     0.123 C 
ENDBRANCH  21  30
ENDBRANCH   1  20
TORSDOF 5
ENDMDL
MODEL 3
REMARK VINA RESULT:      -1.7      2.402      7.420
REMARK  5 active torsions:
REMARK  status: ('A' for Active; 'I' for Inactive)
REMARK    1  A    between atoms: N_6  and  S_1 
REMARK    2  A    between atoms: C_11  and  S_1 
REMARK    3  A    between atoms: C_2  and  N_8 
REMARK    4  A    between atoms: C_10  and  C_3 
REMARK       I    between atoms: N_8  and  C_9 
REMARK    5  A    between atoms: C_9  and  C_17 
REMARK       I    between atoms: N_26  and  C_10 
ROOT
ATOM      1  N   UNL d   1     -47.295  13.007  22.138  0.00  0.00    -0.201 NA
ATOM      2  C   UNL d   1     -46.645  12.672  22.542  0.00  0.00     0.280 C 
ATOM      3  O   UNL d   1     -46.780  12.189  23.204  0.00  0.00    -0.265 OA
ENDROOT
BRANCH   2   4
ATOM      4  C   UNL d   1     -45.877  12.827  22.275  0.00  0.00     0.058 A 
ATOM      5  C   UNL d   1     -45.406  13.340  22.720  0.00  0.00     0.005 A 
ATOM      6  C   UNL d   1     -44.634  13.503  22.463  0.00  0.00     0.013 A 
ATOM      7  C   UNL d   1     -44.346  13.153  21.770  0.00  0.00     0.104 A 
ATOM      8  C   UNL d   1     -44.834  12.639  21.337  0.00  0.00     0.013 A 
ATOM      9  C   UNL d   1     -45.603  12.482  21.599  0.00  0.00     0.005 A 
BRANCH   7  10
ATOM     10  S   UNL d   1     -43.582  13.313  21.514  0.00  0.00     0.271 S 
ATOM     11  O   UNL d   1     -43.542  13.987  21.976  0.00  0.00    -0.200 OA
ATOM     12  O   UNL d   1     -43.630  12.625  21.046  0.00  0.00    -0.200 OA
BRANCH  10  13
ATOM     13  N   UNL d   1     -42.826  13.469  21.260  0.00  0.00    -0.231 N 
ATOM     14  C   UNL d   1     -42.199  12.991  21.483  0.00  0.00     0.075 A 
ATOM     15  C   UNL d   1     -42.335  12.339  21.974  0.00  0.00     0.020 C 
ATOM     16  C   UNL d   1     -41.440  13.155  21.223  0.00  0.00     0.018 A 
ATOM     17  C   UNL d   1     -41.305  13.807  20.733  0.00  0.00     0.003 A 
ATOM     18  C   UNL d   1     -41.928  14.285  20.509  0.00  0.00     0.020 A 
ATOM     19  C   UNL d   1     -42.677  14.111  20.774  0.00  0.00     0.092 A 
ENDBRANCH  10  13
ENDBRANCH   7  10
ENDBRANCH   2   4
BRANCH   1  20
ATOM     20  C   UNL d   1     -48.063  12.850  22.409  0.00  0.00     0.119 A 
ATOM     21  C   UNL d   1     -48.685  13.394  22.402  0.00  0.00     0.082 A 
ATOM     22  C   UNL d   1     -49.353  13.029  22.713  0.00  0.00     0.016 A 
ATOM     23  C   UNL d   1     -50.116  13.300  22.838  0.00  0.00     0.020 A 
ATOM     24  C   UNL d   1     -49.149  12.257  22.915  0.00  0.00     0.049 A 
ATOM     25  C   UNL d   1     -50.683  12.795  23.168  0.00  0.00     0.080 A 
ATOM     26  N   UNL d   1     -50.485  12.019  23.373  0.00  0.00    -0.301 N 
ATOM     27  C   UNL d   1     -49.714  11.757  23.242  0.00  0.00     0.087 A 
ATOM     28  C   UNL d   1     -51.044  11.523  23.698  0.00  0.00     0.100 C 
ATOM     29  S   UNL d   1     -48.346  12.149  22.724  0.00  0.00    -0.066 SA
BRANCH  21  30
ATOM     30  C   UNL d   1     -48.652  14.169  22.132  0.00  0.00     0.281 C 
ATOM     31  O   UNL d   1     -48.736  14.315  21.344  0.00  0.00    -0.265 OA
ATOM     32  N   UNL d   1     -48.533  14.787  22.666  0.00  0.00    -0.205 NA
ATOM     33  C   UNL d   1     -48.498  15.566  22.410  0.00  0.00     0.123 C 
ENDBRANCH  21  30
ENDBRANCH   1  20
TORSDOF 5
ENDMDL
MODEL 4
REMARK VINA RESULT:      -1.6      1.085      6.372
REMARK  5 active torsions:
REMARK  status: ('A' for Active; 'I' for Inactive)
REMARK    1  A    between atoms: N_6  and  S_1 
REMARK    2  A    between atoms: C_11  and  S_1 
REMARK    3  A    between atoms: C_2  and  N_8 
REMARK    4  A    between atoms: C_10  and  C_3 
REMARK       I    between atoms: N_8  and  C_9 
REMARK    5  A    between atoms: C_9  and  C_17 
REMARK       I    between atoms: N_26  and  C_10 
ROOT
ATOM      1  N   UNL d   1     -44.289  12.521  22.229  0.00  0.00    -0.201 NA
ATOM      2  C   UNL d   1     -44.194  13.235  21.804  0.00  0.00     0.280 C 
ATOM      3  O   UNL d   1     -44.845  13.742  21.709  0.00  0.00    -0.265 OA
ENDROOT
BRANCH   2   4
ATOM      4  C   UNL d   1     -43.454  13.425  21.486  0.00  0.00     0.058 A 
ATOM      5  C   UNL d   1     -43.237  14.221  21.453  0.00  0.00     0.005 A 
ATOM      6  C   UNL d   1     -42.497  14.424  21.136  0.00  0.00     0.013 A 
ATOM      7  C   UNL d   1     -41.989  13.831  20.859  0.00  0.00     0.104 A 
ATOM      8  C   UNL d   1     -42.226  13.037  20.900  0.00  0.00     0.013 A 
ATOM      9  C   UNL d   1     -42.965  12.842  21.218  0.00  0.00     0.005 A 
BRANCH   7  10
ATOM     10  S   UNL d   1     -41.257  14.031  20.544  0.00  0.00     0.271 S 
ATOM     11  O   UNL d   1     -41.220  13.332  20.121  0.00  0.00    -0.200 OA
ATOM     12  O   UNL d   1     -41.302  14.741  20.979  0.00  0.00    -0.200 OA
BRANCH  10  13
ATOM     13  N   UNL d   1     -40.533  14.230  20.235  0.00  0.00    -0.231 N 
ATOM     14  C   UNL d   1     -39.859  14.222  20.701  0.00  0.00     0.075 A 
ATOM     15  C   UNL d   1     -39.914  14.008  21.499  0.00  0.00     0.020 C 
ATOM     16  C   UNL d   1     -39.132  14.424  20.383  0.00  0.00     0.018 A 
ATOM     17  C   UNL d   1     -39.077  14.638  19.585  0.00  0.00     0.003 A 
ATOM     18  C   UNL d   1     -39.747  14.647  19.119  0.00  0.00     0.020 A 
ATOM     19  C   UNL d   1     -40.463  14.444  19.448  0.00  0.00     0.092 A 
ENDBRANCH  10  13
ENDBRANCH   7  10
ENDBRANCH   2   4
BRANCH   1  20
ATOM     20  C   UNL d   1     -45.032  12.335  22.546  0.00  0.00     0.119 A 
ATOM     21  C   UNL d   1     -45.229  11.608  22.884  0.00  0.00     0.082 A 
ATOM     22  C   UNL d   1     -46.012  11.641  23.132  0.00  0.00     0.016 A 
ATOM     23  C   UNL d   1     -46.494  11.088  23.500  0.00  0.00     0.020 A 
ATOM     24  C   UNL d   1     -46.304  12.389  22.949  0.00  0.00     0.049 A 
ATOM     25  C   UNL d   1     -47.276  11.285  23.686  0.00  0.00     0.080 A 
ATOM     26  N   UNL d   1     -47.576  12.033  23.505  0.00  0.00    -0.301 N 
ATOM     27  C   UNL d   1     -47.082  12.581  23.136  0.00  0.00     0.087 A 
ATOM     28  C   UNL d   1     -48.346  12.226  23.690  0.00  0.00     0.100 C 
ATOM     29  S   UNL d   1     -45.692  12.818  22.584  0.00  0.00    -0.066 SA
BRANCH  21  30
ATOM     30  C   UNL d   1     -44.735  10.956  22.964  0.00  0.00     0.281 C 
ATOM     31  O   UNL d   1     -44.764  10.371  22.410  0.00  0.00    -0.265 OA
ATOM     32  N   UNL d   1     -44.218  10.907  23.604  0.00  0.00    -0.205 NA
ATOM     33  C   UNL d   1     -43.718  10.261  23.696  0.00  0.00     0.123 C 
ENDBRANCH  21  30
ENDBRANCH   1  20
TORSDOF 5
ENDMDL
