MODEL 1
REMARK VINA RESULT:      -8.1      0.000      0.000
REMARK  4 active torsions:
REMARK  status: ('A' for Active; 'I' for Inactive)
REMARK    1  A    between atoms: C_2  and  S_1 
REMARK    2  A    between atoms: N_3  and  S_1 
REMARK    3  A    between atoms: C_4  and  N_3 
REMARK    4  A    between atoms: O_12  and  C_10 
ROOT
ATOM      1  N   UNL d   1      53.517  32.594  53.247  0.00  0.00    -0.156 NA
ENDROOT
BRANCH   1   2
ATOM      2  S   UNL d   1      53.369  31.751  53.300  0.00  0.00     0.291 S 
ATOM      3  O   UNL d   1      54.183  31.609  53.231  0.00  0.00    -0.198 OA
ATOM      4  O   UNL d   1      52.556  31.899  53.369  0.00  0.00    -0.198 OA
BRANCH   2   5
ATOM      5  C   UNL d   1      53.225  30.936  53.351  0.00  0.00     0.135 A 
ATOM      6  S   UNL d   1      53.667  30.335  53.679  0.00  0.00    -0.073 SA
ATOM      7  C   UNL d   1      53.251  29.654  53.565  0.00  0.00     0.036 A 
ATOM      8  C   UNL d   1      52.576  29.823  53.181  0.00  0.00     0.008 A 
ATOM      9  C   UNL d   1      52.529  30.619  53.032  0.00  0.00     0.020 A 
ENDBRANCH   2   5
ENDBRANCH   1   2
BRANCH   1  10
ATOM     10  C   UNL d   1      53.734  33.029  53.954  0.00  0.00     0.116 A 
ATOM     11  C   UNL d   1      53.484  33.852  54.044  0.00  0.00     0.112 A 
ATOM     12  C   UNL d   1      53.668  34.268  54.675  0.00  0.00     0.026 A 
ATOM     13  C   UNL d   1      54.116  33.934  55.292  0.00  0.00     0.002 A 
ATOM     14  C   UNL d   1      54.367  33.151  55.230  0.00  0.00     0.002 A 
ATOM     15  C   UNL d   1      54.169  32.701  54.549  0.00  0.00     0.022 A 
BRANCH  11  16
ATOM     16  O   UNL d   1      53.028  34.233  53.444  0.00  0.00    -0.327 OA
ATOM     17  C   UNL d   1      52.800  35.002  53.526  0.00  0.00     0.181 C 
ENDBRANCH  11  16
ENDBRANCH   1  10
TORSDOF 4
ENDMDL
MODEL 2
REMARK VINA RESULT:      -8.0      1.855      3.168
REMARK  4 active torsions:
REMARK  status: ('A' for Active; 'I' for Inactive)
REMARK    1  A    between atoms: C_2  and  S_1 
REMARK    2  A    between atoms: N_3  and  S_1 
REMARK    3  A    between atoms: C_4  and  N_3 
REMARK    4  A    between atoms: O_12  and  C_10 
ROOT
ATOM      1  N   UNL d   1      52.845  33.955  53.678  0.00  0.00    -0.156 NA
ENDROOT
BRANCH   1   2
ATOM      2  S   UNL d   1      52.093  34.049  53.276  0.00  0.00     0.291 S 
ATOM      3  O   UNL d   1      52.494  34.304  52.597  0.00  0.00    -0.198 OA
ATOM      4  O   UNL d   1      51.697  33.793  53.958  0.00  0.00    -0.198 OA
BRANCH   2   5
ATOM      5  C   UNL d   1      51.365  34.140  52.888  0.00  0.00     0.135 A 
ATOM      6  S   UNL d   1      50.602  34.107  53.171  0.00  0.00    -0.073 SA
ATOM      7  C   UNL d   1      50.116  34.237  52.539  0.00  0.00     0.036 A 
ATOM      8  C   UNL d   1      50.560  34.347  51.889  0.00  0.00     0.008 A 
ATOM      9  C   UNL d   1      51.349  34.292  52.074  0.00  0.00     0.020 A 
ENDBRANCH   2   5
ENDBRANCH   1   2
BRANCH   1  10
ATOM     10  C   UNL d   1      53.212  33.180  53.709  0.00  0.00     0.116 A 
ATOM     11  C   UNL d   1      53.895  33.050  54.224  0.00  0.00     0.112 A 
ATOM     12  C   UNL d   1      54.246  32.358  54.269  0.00  0.00     0.026 A 
ATOM     13  C   UNL d   1      53.975  31.711  53.821  0.00  0.00     0.002 A 
ATOM     14  C   UNL d   1      53.326  31.809  53.323  0.00  0.00     0.002 A 
ATOM     15  C   UNL d   1      52.947  32.556  53.272  0.00  0.00     0.022 A 
BRANCH  11  16
ATOM     16  O   UNL d   1      54.204  33.677  54.697  0.00  0.00    -0.327 OA
ATOM     17  C   UNL d   1      54.886  33.579  55.115  0.00  0.00     0.181 C 
ENDBRANCH  11  16
ENDBRANCH   1  10
TORSDOF 4
ENDMDL
MODEL 3
REMARK VINA RESULT:      -7.4      1.313      3.663
REMARK  4 active torsions:
REMARK  status: ('A' for Active; 'I' for Inactive)
REMARK    1  A    between atoms: C_2  and  S_1 
REMARK    2  A    between atoms: N_3  and  S_1 
REMARK    3  A    between atoms: C_4  and  N_3 
REMARK    4  A    between atoms: O_12  and  C_10 
ROOT
ATOM      1  N   UNL d   1      54.109  31.605  54.238  0.00  0.00    -0.156 NA
ENDROOT
BRANCH   1   2
ATOM      2  S   UNL d   1      54.128  32.431  54.467  0.00  0.00     0.291 S 
ATOM      3  O   UNL d   1      54.587  32.601  53.798  0.00  0.00    -0.198 OA
ATOM      4  O   UNL d   1      53.668  32.256  55.135  0.00  0.00    -0.198 OA
BRANCH   2   5
ATOM      5  C   UNL d   1      54.146  33.230  54.689  0.00  0.00     0.135 A 
ATOM      6  S   UNL d   1      53.563  33.800  54.680  0.00  0.00    -0.073 SA
ATOM      7  C   UNL d   1      53.899  34.478  54.959  0.00  0.00     0.036 A 
ATOM      8  C   UNL d   1      54.662  34.336  55.135  0.00  0.00     0.008 A 
ATOM      9  C   UNL d   1      54.848  33.563  54.977  0.00  0.00     0.020 A 
ENDBRANCH   2   5
ENDBRANCH   1   2
BRANCH   1  10
ATOM     10  C   UNL d   1      53.502  31.331  53.697  0.00  0.00     0.116 A 
ATOM     11  C   UNL d   1      53.288  30.493  53.682  0.00  0.00     0.112 A 
ATOM     12  C   UNL d   1      52.741  30.220  53.202  0.00  0.00     0.026 A 
ATOM     13  C   UNL d   1      52.337  30.727  52.680  0.00  0.00     0.002 A 
ATOM     14  C   UNL d   1      52.523  31.530  52.676  0.00  0.00     0.002 A 
ATOM     15  C   UNL d   1      53.113  31.827  53.193  0.00  0.00     0.022 A 
BRANCH  11  16
ATOM     16  O   UNL d   1      53.671  29.941  54.193  0.00  0.00    -0.327 OA
ATOM     17  C   UNL d   1      53.405  29.182  54.253  0.00  0.00     0.181 C 
ENDBRANCH  11  16
ENDBRANCH   1  10
TORSDOF 4
ENDMDL
