MODEL 1
REMARK VINA RESULT:       0.7      0.000      0.000
REMARK  1 active torsions:
REMARK  status: ('A' for Active; 'I' for Inactive)
REMARK    1  A    between atoms: C_7  and  C_1 
ROOT
ATOM      1  C   UNL d   1      46.565 -18.973  42.113  0.00  0.00     0.102 A 
ATOM      2  C   UNL d   1      46.616 -19.798  42.071  0.00  0.00     0.303 A 
ATOM      3  C   UNL d   1      46.536 -18.606  42.855  0.00  0.00     0.011 A 
ATOM      4  O   UNL d   1      46.638 -20.256  42.770  0.00  0.00    -0.273 OA
ATOM      5  C   UNL d   1      46.557 -19.048  43.542  0.00  0.00     0.023 A 
ATOM      6  C   UNL d   1      46.608 -19.872  43.500  0.00  0.00     0.103 A 
ATOM      7  O   UNL d   1      46.646 -20.180  41.317  0.00  0.00    -0.259 OA
ATOM      8  C   UNL d   1      46.528 -18.680  44.271  0.00  0.00     0.002 A 
ATOM      9  C   UNL d   1      46.630 -20.329  44.186  0.00  0.00     0.025 A 
ATOM     10  C   UNL d   1      46.549 -19.121  44.953  0.00  0.00     0.000 A 
ATOM     11  C   UNL d   1      46.600 -19.945  44.911  0.00  0.00     0.002 A 
ENDROOT
BRANCH   1  12
ATOM     12  C   UNL d   1      46.544 -18.531  41.402  0.00  0.00     0.201 C 
ATOM     13  O   UNL d   1      46.642 -17.710  41.438  0.00  0.00    -0.286 OA
ATOM     14  C   UNL d   1      46.430 -18.895  40.679  0.00  0.00     0.045 C 
ENDBRANCH   1  12
TORSDOF 1
ENDMDL
MODEL 2
REMARK VINA RESULT:       2.5      1.113      3.043
REMARK  1 active torsions:
REMARK  status: ('A' for Active; 'I' for Inactive)
REMARK    1  A    between atoms: C_7  and  C_1 
ROOT
ATOM      1  C   UNL d   1      46.494 -19.268  43.510  0.00  0.00     0.102 A 
ATOM      2  C   UNL d   1      46.498 -18.458  43.344  0.00  0.00     0.303 A 
ATOM      3  C   UNL d   1      46.530 -19.810  42.885  0.00  0.00     0.011 A 
ATOM      4  O   UNL d   1      46.537 -18.189  42.553  0.00  0.00    -0.273 OA
ATOM      5  C   UNL d   1      46.568 -19.555  42.110  0.00  0.00     0.023 A 
ATOM      6  C   UNL d   1      46.572 -18.744  41.944  0.00  0.00     0.103 A 
ATOM      7  O   UNL d   1      46.462 -17.897  43.976  0.00  0.00    -0.259 OA
ATOM      8  C   UNL d   1      46.602 -20.094  41.497  0.00  0.00     0.002 A 
ATOM      9  C   UNL d   1      46.610 -18.473  41.166  0.00  0.00     0.025 A 
ATOM     10  C   UNL d   1      46.640 -19.838  40.727  0.00  0.00     0.000 A 
ATOM     11  C   UNL d   1      46.644 -19.027  40.561  0.00  0.00     0.002 A 
ENDROOT
BRANCH   1  12
ATOM     12  C   UNL d   1      46.455 -19.519  44.308  0.00  0.00     0.201 C 
ATOM     13  O   UNL d   1      46.629 -18.977  44.908  0.00  0.00    -0.286 OA
ATOM     14  C   UNL d   1      46.248 -20.286  44.502  0.00  0.00     0.045 C 
ENDBRANCH   1  12
TORSDOF 1
ENDMDL
MODEL 3
REMARK VINA RESULT:       2.6      7.515      7.752
REMARK  1 active torsions:
REMARK  status: ('A' for Active; 'I' for Inactive)
REMARK    1  A    between atoms: C_7  and  C_1 
ROOT
ATOM      1  C   UNL d   1      43.761 -15.447  36.898  0.00  0.00     0.102 A 
ATOM      2  C   UNL d   1      44.138 -16.102  36.563  0.00  0.00     0.303 A 
ATOM      3  C   UNL d   1      44.211 -14.789  37.123  0.00  0.00     0.011 A 
ATOM      4  O   UNL d   1      44.967 -16.100  36.452  0.00  0.00    -0.273 OA
ATOM      5  C   UNL d   1      45.022 -14.780  37.017  0.00  0.00     0.023 A 
ATOM      6  C   UNL d   1      45.399 -15.435  36.681  0.00  0.00     0.103 A 
ATOM      7  O   UNL d   1      43.685 -16.777  36.331  0.00  0.00    -0.259 OA
ATOM      8  C   UNL d   1      45.461 -14.129  37.240  0.00  0.00     0.002 A 
ATOM      9  C   UNL d   1      46.216 -15.439  36.569  0.00  0.00     0.025 A 
ATOM     10  C   UNL d   1      46.267 -14.123  37.133  0.00  0.00     0.000 A 
ATOM     11  C   UNL d   1      46.644 -14.777  36.798  0.00  0.00     0.002 A 
ENDROOT
BRANCH   1  12
ATOM     12  C   UNL d   1      42.929 -15.466  37.003  0.00  0.00     0.201 C 
ATOM     13  O   UNL d   1      42.620 -15.402  37.767  0.00  0.00    -0.286 OA
ATOM     14  C   UNL d   1      42.424 -15.548  36.365  0.00  0.00     0.045 C 
ENDBRANCH   1  12
TORSDOF 1
ENDMDL
