MODEL 1
REMARK VINA RESULT:      75.9      0.000      0.000
REMARK  2 active torsions:
REMARK  status: ('A' for Active; 'I' for Inactive)
REMARK    1  A    between atoms: C_2  and  C_1 
REMARK       I    between atoms: N_3  and  C_1 
REMARK    2  A    between atoms: C_5  and  N_4 
ROOT
ATOM      1  C   UNL d   1     -49.131  26.046  33.997  0.00  0.00     0.267 C 
ATOM      2  N   UNL d   1     -49.844  25.639  33.915  0.00  0.00    -0.269 N 
ATOM      3  N   UNL d   1     -51.272  24.824  33.751  0.00  0.00    -0.301 N 
ATOM      4  O   UNL d   1     -48.420  25.672  33.824  0.00  0.00    -0.267 OA
ATOM      5  C   UNL d   1     -49.848  24.857  33.660  0.00  0.00     0.102 A 
ATOM      6  C   UNL d   1     -50.558  26.014  34.088  0.00  0.00     0.102 A 
ATOM      7  C   UNL d   1     -51.271  25.607  34.007  0.00  0.00     0.100 A 
ATOM      8  C   UNL d   1     -50.561  24.450  33.578  0.00  0.00     0.100 A 
ENDROOT
BRANCH   1   9
ATOM      9  C   UNL d   1     -49.130  26.830  34.252  0.00  0.00     0.084 A 
ATOM     10  C   UNL d   1     -48.502  27.330  34.053  0.00  0.00     0.145 A 
ATOM     11  F   UNL d   1     -47.877  27.046  33.598  0.00  0.00    -0.204 F 
ATOM     12  C   UNL d   1     -48.504  28.118  34.312  0.00  0.00     0.030 A 
ATOM     13  C   UNL d   1     -49.127  28.399  34.765  0.00  0.00     0.002 A 
ATOM     14  C   UNL d   1     -49.755  27.899  34.965  0.00  0.00     0.000 A 
ATOM     15  C   UNL d   1     -49.758  27.119  34.711  0.00  0.00     0.007 A 
ENDBRANCH   1   9
BRANCH   3  16
ATOM     16  C   UNL d   1     -51.987  24.416  33.669  0.00  0.00     0.064 A 
ATOM     17  C   UNL d   1     -52.682  24.830  33.525  0.00  0.00     0.016 A 
ATOM     18  C   UNL d   1     -53.396  24.422  33.443  0.00  0.00     0.001 A 
ATOM     19  C   UNL d   1     -52.669  25.651  33.462  0.00  0.00     0.002 C 
ATOM     20  C   UNL d   1     -53.413  23.602  33.505  0.00  0.00     0.000 A 
ATOM     21  C   UNL d   1     -52.716  23.188  33.650  0.00  0.00     0.002 A 
ATOM     22  C   UNL d   1     -54.126  23.195  33.424  0.00  0.00     0.000 C 
ATOM     23  C   UNL d   1     -52.001  23.596  33.732  0.00  0.00     0.018 A 
ENDBRANCH   3  16
TORSDOF 2
ENDMDL
MODEL 2
REMARK VINA RESULT:      76.2      1.784      2.971
REMARK  2 active torsions:
REMARK  status: ('A' for Active; 'I' for Inactive)
REMARK    1  A    between atoms: C_2  and  C_1 
REMARK       I    between atoms: N_3  and  C_1 
REMARK    2  A    between atoms: C_5  and  N_4 
ROOT
ATOM      1  C   UNL d   1     -48.600  29.247  34.410  0.00  0.00     0.267 C 
ATOM      2  N   UNL d   1     -49.042  28.569  34.253  0.00  0.00    -0.269 N 
ATOM      3  N   UNL d   1     -49.929  27.211  33.941  0.00  0.00    -0.301 N 
ATOM      4  O   UNL d   1     -48.570  29.857  33.859  0.00  0.00    -0.267 OA
ATOM      5  C   UNL d   1     -49.457  28.498  33.546  0.00  0.00     0.102 A 
ATOM      6  C   UNL d   1     -49.073  27.957  34.806  0.00  0.00     0.102 A 
ATOM      7  C   UNL d   1     -49.516  27.279  34.650  0.00  0.00     0.100 A 
ATOM      8  C   UNL d   1     -49.900  27.819  33.389  0.00  0.00     0.100 A 
ENDROOT
BRANCH   1   9
ATOM      9  C   UNL d   1     -48.186  29.316  35.119  0.00  0.00     0.084 A 
ATOM     10  C   UNL d   1     -47.378  29.493  35.112  0.00  0.00     0.145 A 
ATOM     11  F   UNL d   1     -46.985  29.601  34.396  0.00  0.00    -0.204 F 
ATOM     12  C   UNL d   1     -46.964  29.562  35.828  0.00  0.00     0.030 A 
ATOM     13  C   UNL d   1     -47.357  29.454  36.540  0.00  0.00     0.002 A 
ATOM     14  C   UNL d   1     -48.165  29.277  36.547  0.00  0.00     0.000 A 
ATOM     15  C   UNL d   1     -48.579  29.208  35.842  0.00  0.00     0.007 A 
ENDBRANCH   1   9
BRANCH   3  16
ATOM     16  C   UNL d   1     -50.373  26.530  33.784  0.00  0.00     0.064 A 
ATOM     17  C   UNL d   1     -50.009  25.866  33.469  0.00  0.00     0.016 A 
ATOM     18  C   UNL d   1     -50.452  25.186  33.312  0.00  0.00     0.001 A 
ATOM     19  C   UNL d   1     -49.200  25.874  33.308  0.00  0.00     0.002 C 
ATOM     20  C   UNL d   1     -51.259  25.173  33.471  0.00  0.00     0.000 A 
ATOM     21  C   UNL d   1     -51.624  25.841  33.787  0.00  0.00     0.002 A 
ATOM     22  C   UNL d   1     -51.702  24.495  33.315  0.00  0.00     0.000 C 
ATOM     23  C   UNL d   1     -51.180  26.521  33.944  0.00  0.00     0.018 A 
ENDBRANCH   3  16
TORSDOF 2
ENDMDL
MODEL 3
REMARK VINA RESULT:      77.6      2.409      3.896
REMARK  2 active torsions:
REMARK  status: ('A' for Active; 'I' for Inactive)
REMARK    1  A    between atoms: C_2  and  C_1 
REMARK       I    between atoms: N_3  and  C_1 
REMARK    2  A    between atoms: C_5  and  N_4 
ROOT
ATOM      1  C   UNL d   1     -47.645  29.573  35.184  0.00  0.00     0.267 C 
ATOM      2  N   UNL d   1     -48.197  29.021  34.917  0.00  0.00    -0.269 N 
ATOM      3  N   UNL d   1     -49.302  27.915  34.382  0.00  0.00    -0.301 N 
ATOM      4  O   UNL d   1     -47.024  29.335  35.667  0.00  0.00    -0.267 OA
ATOM      5  C   UNL d   1     -48.130  28.229  35.132  0.00  0.00     0.102 A 
ATOM      6  C   UNL d   1     -48.821  29.259  34.432  0.00  0.00     0.102 A 
ATOM      7  C   UNL d   1     -49.373  28.707  34.165  0.00  0.00     0.100 A 
ATOM      8  C   UNL d   1     -48.682  27.677  34.865  0.00  0.00     0.100 A 
ENDROOT
BRANCH   1   9
ATOM      9  C   UNL d   1     -47.715  30.365  34.967  0.00  0.00     0.084 A 
ATOM     10  C   UNL d   1     -47.362  30.953  35.428  0.00  0.00     0.145 A 
ATOM     11  F   UNL d   1     -46.939  30.749  36.106  0.00  0.00    -0.204 F 
ATOM     12  C   UNL d   1     -47.434  31.750  35.207  0.00  0.00     0.030 A 
ATOM     13  C   UNL d   1     -47.855  31.951  34.533  0.00  0.00     0.002 A 
ATOM     14  C   UNL d   1     -48.209  31.363  34.072  0.00  0.00     0.000 A 
ATOM     15  C   UNL d   1     -48.140  30.573  34.286  0.00  0.00     0.007 A 
ENDBRANCH   1   9
BRANCH   3  16
ATOM     16  C   UNL d   1     -49.856  27.361  34.114  0.00  0.00     0.064 A 
ATOM     17  C   UNL d   1     -49.629  26.779  33.582  0.00  0.00     0.016 A 
ATOM     18  C   UNL d   1     -50.182  26.226  33.314  0.00  0.00     0.001 A 
ATOM     19  C   UNL d   1     -48.851  26.743  33.314  0.00  0.00     0.002 C 
ATOM     20  C   UNL d   1     -50.960  26.258  33.580  0.00  0.00     0.000 A 
ATOM     21  C   UNL d   1     -51.187  26.843  34.113  0.00  0.00     0.002 A 
ATOM     22  C   UNL d   1     -51.512  25.706  33.312  0.00  0.00     0.000 C 
ATOM     23  C   UNL d   1     -50.633  27.396  34.381  0.00  0.00     0.018 A 
ENDBRANCH   3  16
TORSDOF 2
ENDMDL
