MODEL 1
REMARK VINA RESULT:      10.6      0.000      0.000
REMARK  4 active torsions:
REMARK  status: ('A' for Active; 'I' for Inactive)
REMARK    1  A    between atoms: C_10  and  C_1 
REMARK    2  A    between atoms: C_18  and  N_6 
REMARK       I    between atoms: N_13  and  C_10 
REMARK    3  A    between atoms: C_12  and  C_20 
REMARK    4  A    between atoms: C_20  and  N_13 
ROOT
ATOM      1  C   UNL d   1     -41.817-122.750 -52.504  0.00  0.00     0.077 A 
ATOM      2  C   UNL d   1     -41.723-121.417 -53.034  0.00  0.00     0.121 A 
ATOM      3  C   UNL d   1     -41.681-121.943 -52.396  0.00  0.00     0.028 A 
ATOM      4  C   UNL d   1     -41.905-121.705 -53.794  0.00  0.00     0.281 A 
ATOM      5  N   UNL d   1     -41.563-120.665 -52.748  0.00  0.00    -0.300 N 
ATOM      6  N   UNL d   1     -42.042-122.509 -53.914  0.00  0.00    -0.272 N 
ATOM      7  C   UNL d   1     -41.998-123.039 -53.262  0.00  0.00     0.088 A 
ATOM      8  C   UNL d   1     -41.493-121.499 -51.719  0.00  0.00     0.018 A 
ATOM      9  C   UNL d   1     -41.423-120.711 -51.953  0.00  0.00     0.064 A 
ATOM     10  O   UNL d   1     -41.947-121.173 -54.439  0.00  0.00    -0.265 OA
ATOM     11  C   UNL d   1     -41.551-119.977 -53.218  0.00  0.00     0.100 C 
ATOM     12  C   UNL d   1     -41.380-121.714 -50.941  0.00  0.00     0.002 A 
ATOM     13  C   UNL d   1     -41.237-120.145 -51.382  0.00  0.00     0.018 A 
ATOM     14  C   UNL d   1     -41.194-121.139 -50.379  0.00  0.00     0.000 A 
ATOM     15  C   UNL d   1     -41.123-120.361 -50.594  0.00  0.00     0.002 A 
ENDROOT
BRANCH   1  16
ATOM     16  C   UNL d   1     -41.775-123.270 -51.874  0.00  0.00     0.281 C 
ATOM     17  N   UNL d   1     -42.380-123.294 -51.315  0.00  0.00    -0.204 NA
ATOM     18  O   UNL d   1     -41.123-123.776 -51.796  0.00  0.00    -0.265 OA
BRANCH  17  19
ATOM     19  C   UNL d   1     -42.338-123.817 -50.681  0.00  0.00     0.127 C 
BRANCH  19  20
ATOM     20  C   UNL d   1     -42.832-123.708 -50.027  0.00  0.00     0.119 A 
ATOM     21  O   UNL d   1     -42.596-123.661 -49.240  0.00  0.00    -0.306 OA
ATOM     22  C   UNL d   1     -43.274-123.550 -48.779  0.00  0.00     0.100 A 
ATOM     23  C   UNL d   1     -43.294-123.474 -47.964  0.00  0.00     0.027 C 
ATOM     24  C   UNL d   1     -43.919-123.528 -49.270  0.00  0.00     0.027 A 
ATOM     25  C   UNL d   1     -43.655-123.625 -50.046  0.00  0.00     0.028 A 
ENDBRANCH  19  20
ENDBRANCH  17  19
ENDBRANCH   1  16
BRANCH   6  26
ATOM     26  C   UNL d   1     -42.221-122.789 -54.667  0.00  0.00     0.067 A 
ATOM     27  C   UNL d   1     -41.686-123.136 -55.189  0.00  0.00     0.018 A 
ATOM     28  C   UNL d   1     -42.096-123.331 -55.868  0.00  0.00     0.002 A 
ATOM     29  C   UNL d   1     -42.880-123.105 -55.766  0.00  0.00     0.002 A 
ATOM     30  C   UNL d   1     -42.954-122.769 -55.019  0.00  0.00     0.018 A 
ENDBRANCH   6  26
TORSDOF 4
ENDMDL
MODEL 2
REMARK VINA RESULT:      13.3      0.990      3.152
REMARK  4 active torsions:
REMARK  status: ('A' for Active; 'I' for Inactive)
REMARK    1  A    between atoms: C_10  and  C_1 
REMARK    2  A    between atoms: C_18  and  N_6 
REMARK       I    between atoms: N_13  and  C_10 
REMARK    3  A    between atoms: C_12  and  C_20 
REMARK    4  A    between atoms: C_20  and  N_13 
ROOT
ATOM      1  C   UNL d   1     -41.450-121.904 -52.631  0.00  0.00     0.077 A 
ATOM      2  C   UNL d   1     -41.680-121.191 -53.858  0.00  0.00     0.121 A 
ATOM      3  C   UNL d   1     -41.619-121.903 -53.439  0.00  0.00     0.028 A 
ATOM      4  C   UNL d   1     -41.568-120.469 -53.460  0.00  0.00     0.281 A 
ATOM      5  N   UNL d   1     -41.851-121.377 -54.639  0.00  0.00    -0.300 N 
ATOM      6  N   UNL d   1     -41.399-120.457 -52.654  0.00  0.00    -0.272 N 
ATOM      7  C   UNL d   1     -41.338-121.183 -52.232  0.00  0.00     0.088 A 
ATOM      8  C   UNL d   1     -41.756-122.521 -53.976  0.00  0.00     0.018 A 
ATOM      9  C   UNL d   1     -41.897-122.180 -54.714  0.00  0.00     0.064 A 
ATOM     10  O   UNL d   1     -41.630-119.749 -53.885  0.00  0.00    -0.265 OA
ATOM     11  C   UNL d   1     -41.956-120.811 -55.242  0.00  0.00     0.100 C 
ATOM     12  C   UNL d   1     -41.767-123.331 -53.883  0.00  0.00     0.002 A 
ATOM     13  C   UNL d   1     -42.051-122.676 -55.356  0.00  0.00     0.018 A 
ATOM     14  C   UNL d   1     -41.922-123.817 -54.533  0.00  0.00     0.000 A 
ATOM     15  C   UNL d   1     -42.063-123.495 -55.263  0.00  0.00     0.002 A 
ENDROOT
BRANCH   1  16
ATOM     16  C   UNL d   1     -41.390-122.606 -52.216  0.00  0.00     0.281 C 
ATOM     17  N   UNL d   1     -41.573-122.631 -51.413  0.00  0.00    -0.204 NA
ATOM     18  O   UNL d   1     -41.144-123.297 -52.604  0.00  0.00    -0.265 OA
BRANCH  17  19
ATOM     19  C   UNL d   1     -41.512-123.338 -50.996  0.00  0.00     0.127 C 
BRANCH  19  20
ATOM     20  C   UNL d   1     -41.780-123.377 -50.215  0.00  0.00     0.119 A 
ATOM     21  O   UNL d   1     -42.532-123.605 -49.967  0.00  0.00    -0.306 OA
ATOM     22  C   UNL d   1     -42.549-123.559 -49.141  0.00  0.00     0.100 A 
ATOM     23  C   UNL d   1     -43.191-123.738 -48.664  0.00  0.00     0.027 C 
ATOM     24  C   UNL d   1     -41.824-123.308 -48.880  0.00  0.00     0.027 A 
ATOM     25  C   UNL d   1     -41.341-123.192 -49.539  0.00  0.00     0.028 A 
ENDBRANCH  19  20
ENDBRANCH  17  19
ENDBRANCH   1  16
BRANCH   6  26
ATOM     26  C   UNL d   1     -41.290-119.740 -52.265  0.00  0.00     0.067 A 
ATOM     27  C   UNL d   1     -41.225-119.641 -51.450  0.00  0.00     0.018 A 
ATOM     28  C   UNL d   1     -41.123-118.844 -51.306  0.00  0.00     0.002 A 
ATOM     29  C   UNL d   1     -41.123-118.452 -52.029  0.00  0.00     0.002 A 
ATOM     30  C   UNL d   1     -41.227-119.012 -52.623  0.00  0.00     0.018 A 
ENDBRANCH   6  26
TORSDOF 4
ENDMDL
