MODEL 1
REMARK VINA RESULT:      -5.8      0.000      0.000
REMARK  1 active torsions:
REMARK  status: ('A' for Active; 'I' for Inactive)
REMARK    1  A    between atoms: C_8  and  N_3 
ROOT
ATOM      1  C   UNL d   1     -41.456-122.205 -52.574  0.00  0.00     0.292 A 
ATOM      2  C   UNL d   1     -41.305-122.456 -51.801  0.00  0.00     0.128 A 
ATOM      3  N   UNL d   1     -41.577-122.757 -53.165  0.00  0.00    -0.194 N 
ATOM      4  N   UNL d   1     -41.551-123.567 -52.997  0.00  0.00    -0.160 NA
ATOM      5  C   UNL d   1     -41.275-123.259 -51.616  0.00  0.00     0.094 A 
ATOM      6  C   UNL d   1     -41.400-123.817 -52.224  0.00  0.00     0.133 A 
ATOM      7  O   UNL d   1     -41.484-121.380 -52.753  0.00  0.00    -0.264 OA
ATOM      8 CL   UNL d   1     -41.175-121.893 -51.171  0.00  0.00    -0.076 Cl
ATOM      9 CL   UNL d   1     -41.124-123.509 -50.846  0.00  0.00    -0.080 Cl
ENDROOT
BRANCH   3  10
ATOM     10  C   UNL d   1     -41.730-122.503 -53.948  0.00  0.00     0.086 A 
ATOM     11  C   UNL d   1     -41.137-122.574 -54.515  0.00  0.00     0.019 A 
ATOM     12  C   UNL d   1     -41.291-122.317 -55.306  0.00  0.00     0.002 A 
ATOM     13  C   UNL d   1     -42.031-122.003 -55.488  0.00  0.00     0.000 A 
ATOM     14  C   UNL d   1     -42.614-121.935 -54.924  0.00  0.00     0.002 A 
ATOM     15  C   UNL d   1     -42.460-122.192 -54.133  0.00  0.00     0.019 A 
ENDBRANCH   3  10
TORSDOF 1
ENDMDL
MODEL 2
REMARK VINA RESULT:      -4.6      2.055      3.831
REMARK  1 active torsions:
REMARK  status: ('A' for Active; 'I' for Inactive)
REMARK    1  A    between atoms: C_8  and  N_3 
ROOT
ATOM      1  C   UNL d   1     -41.498-122.403 -51.156  0.00  0.00     0.292 A 
ATOM      2  C   UNL d   1     -41.313-122.366 -51.961  0.00  0.00     0.128 A 
ATOM      3  N   UNL d   1     -41.678-123.123 -50.813  0.00  0.00    -0.194 N 
ATOM      4  N   UNL d   1     -41.677-123.817 -51.264  0.00  0.00    -0.160 NA
ATOM      5  C   UNL d   1     -41.307-123.048 -52.426  0.00  0.00     0.094 A 
ATOM      6  C   UNL d   1     -41.492-123.779 -52.069  0.00  0.00     0.133 A 
ATOM      7  O   UNL d   1     -41.502-121.699 -50.690  0.00  0.00    -0.264 OA
ATOM      8 CL   UNL d   1     -41.123-121.622 -52.337  0.00  0.00    -0.076 Cl
ATOM      9 CL   UNL d   1     -41.123-123.010 -53.227  0.00  0.00    -0.080 Cl
ENDROOT
BRANCH   3  10
ATOM     10  C   UNL d   1     -41.866-123.162 -49.998  0.00  0.00     0.086 A 
ATOM     11  C   UNL d   1     -41.274-123.358 -49.460  0.00  0.00     0.019 A 
ATOM     12  C   UNL d   1     -41.464-123.397 -48.636  0.00  0.00     0.002 A 
ATOM     13  C   UNL d   1     -42.235-123.237 -48.395  0.00  0.00     0.000 A 
ATOM     14  C   UNL d   1     -42.816-123.043 -48.931  0.00  0.00     0.002 A 
ATOM     15  C   UNL d   1     -42.627-123.004 -49.755  0.00  0.00     0.019 A 
ENDBRANCH   3  10
TORSDOF 1
ENDMDL
MODEL 3
REMARK VINA RESULT:      -4.0      1.859      3.261
REMARK  1 active torsions:
REMARK  status: ('A' for Active; 'I' for Inactive)
REMARK    1  A    between atoms: C_8  and  N_3 
ROOT
ATOM      1  C   UNL d   1     -41.507-122.945 -53.839  0.00  0.00     0.292 A 
ATOM      2  C   UNL d   1     -41.662-122.811 -54.641  0.00  0.00     0.128 A 
ATOM      3  N   UNL d   1     -41.727-122.387 -53.284  0.00  0.00    -0.194 N 
ATOM      4  N   UNL d   1     -42.105-121.688 -53.514  0.00  0.00    -0.160 NA
ATOM      5  C   UNL d   1     -42.037-122.119 -54.888  0.00  0.00     0.094 A 
ATOM      6  C   UNL d   1     -42.259-121.554 -54.316  0.00  0.00     0.133 A 
ATOM      7  O   UNL d   1     -41.122-123.656 -53.596  0.00  0.00    -0.264 OA
ATOM      8 CL   UNL d   1     -41.439-123.383 -55.235  0.00  0.00    -0.076 Cl
ATOM      9 CL   UNL d   1     -42.191-121.986 -55.686  0.00  0.00    -0.080 Cl
ENDROOT
BRANCH   3  10
ATOM     10  C   UNL d   1     -41.571-122.523 -52.472  0.00  0.00     0.086 A 
ATOM     11  C   UNL d   1     -41.281-121.904 -52.012  0.00  0.00     0.019 A 
ATOM     12  C   UNL d   1     -41.122-122.041 -51.192  0.00  0.00     0.002 A 
ATOM     13  C   UNL d   1     -41.263-122.789 -50.877  0.00  0.00     0.000 A 
ATOM     14  C   UNL d   1     -41.549-123.397 -51.336  0.00  0.00     0.002 A 
ATOM     15  C   UNL d   1     -41.708-123.260 -52.156  0.00  0.00     0.019 A 
ENDBRANCH   3  10
TORSDOF 1
ENDMDL
MODEL 4
REMARK VINA RESULT:      -2.9      3.409      5.247
REMARK  1 active torsions:
REMARK  status: ('A' for Active; 'I' for Inactive)
REMARK    1  A    between atoms: C_8  and  N_3 
ROOT
ATOM      1  C   UNL d   1     -41.712-123.248 -49.628  0.00  0.00     0.292 A 
ATOM      2  C   UNL d   1     -41.693-123.027 -50.425  0.00  0.00     0.128 A 
ATOM      3  N   UNL d   1     -42.265-122.916 -49.126  0.00  0.00    -0.194 N 
ATOM      4  N   UNL d   1     -42.807-122.358 -49.406  0.00  0.00    -0.160 NA
ATOM      5  C   UNL d   1     -42.227-122.472 -50.721  0.00  0.00     0.094 A 
ATOM      6  C   UNL d   1     -42.788-122.136 -50.203  0.00  0.00     0.133 A 
ATOM      7  O   UNL d   1     -41.161-123.817 -49.334  0.00  0.00    -0.264 OA
ATOM      8 CL   UNL d   1     -41.123-123.364 -50.964  0.00  0.00    -0.076 Cl
ATOM      9 CL   UNL d   1     -42.208-122.251 -51.514  0.00  0.00    -0.080 Cl
ENDROOT
BRANCH   3  10
ATOM     10  C   UNL d   1     -42.284-123.140 -48.319  0.00  0.00     0.086 A 
ATOM     11  C   UNL d   1     -42.919-123.586 -48.043  0.00  0.00     0.019 A 
ATOM     12  C   UNL d   1     -42.938-123.813 -47.228  0.00  0.00     0.002 A 
ATOM     13  C   UNL d   1     -42.322-123.582 -46.734  0.00  0.00     0.000 A 
ATOM     14  C   UNL d   1     -41.696-123.140 -47.011  0.00  0.00     0.002 A 
ATOM     15  C   UNL d   1     -41.677-122.914 -47.826  0.00  0.00     0.019 A 
ENDBRANCH   3  10
TORSDOF 1
ENDMDL
