MODEL 1
REMARK VINA RESULT:      88.8      0.000      0.000
REMARK  5 active torsions:
REMARK  status: ('A' for Active; 'I' for Inactive)
REMARK    1  A    between atoms: N_9  and  C_3 
REMARK    2  A    between atoms: C_13  and  C_5 
REMARK    3  A    between atoms: C_12  and  N_10 
REMARK    4  A    between atoms: C_20  and  C_11 
REMARK    5  A    between atoms: C_25  and  C_20 
ROOT
ATOM      1  N   UNL d   1      45.171 -16.867  39.312  0.00  0.00    -0.196 N 
ATOM      2  C   UNL d   1      44.859 -16.439  38.679  0.00  0.00     0.167 A 
ATOM      3  C   UNL d   1      44.664 -17.276  39.785  0.00  0.00     0.152 A 
ATOM      4  N   UNL d   1      46.461 -16.452  38.956  0.00  0.00    -0.163 NA
ATOM      5  C   UNL d   1      45.345 -16.027  38.198  0.00  0.00     0.055 A 
ATOM      6  C   UNL d   1      46.149 -16.024  38.323  0.00  0.00     0.104 A 
ATOM      7  N   UNL d   1      44.055 -16.442  38.554  0.00  0.00    -0.227 NA
ATOM      8  C   UNL d   1      43.874 -17.285  39.670  0.00  0.00     0.057 A 
ATOM      9  C   UNL d   1      43.562 -16.857  39.037  0.00  0.00     0.086 A 
ATOM     10  C   UNL d   1      46.644 -15.612  37.843  0.00  0.00     0.023 C 
ENDROOT
BRANCH   3  11
ATOM     11  N   UNL d   1      44.986 -17.718  40.438  0.00  0.00    -0.286 N 
ATOM     12  C   UNL d   1      45.284 -18.495  40.319  0.00  0.00     0.101 A 
ATOM     13  C   UNL d   1      45.606 -18.937  40.971  0.00  0.00     0.101 A 
ATOM     14  N   UNL d   1      45.630 -18.600  41.742  0.00  0.00    -0.286 N 
ATOM     15  C   UNL d   1      45.329 -17.809  41.871  0.00  0.00     0.101 A 
ATOM     16  C   UNL d   1      45.007 -17.368  41.219  0.00  0.00     0.101 A 
BRANCH  14  17
ATOM     17  C   UNL d   1      45.951 -19.040  42.391  0.00  0.00     0.148 A 
ATOM     18  N   UNL d   1      45.887 -19.889  42.391  0.00  0.00    -0.227 NA
ATOM     19  C   UNL d   1      46.207 -20.328  43.040  0.00  0.00     0.101 A 
ATOM     20  C   UNL d   1      46.590 -19.915  43.685  0.00  0.00     0.021 A 
ATOM     21  C   UNL d   1      46.647 -19.078  43.674  0.00  0.00     0.005 A 
ATOM     22  C   UNL d   1      46.325 -18.637  43.022  0.00  0.00     0.037 A 
ENDBRANCH  14  17
ENDBRANCH   3  11
BRANCH   9  23
ATOM     23  C   UNL d   1      42.726 -16.856  38.902  0.00  0.00     0.019 C 
BRANCH  23  24
ATOM     24  C   UNL d   1      42.278 -16.130  38.945  0.00  0.00     0.002 C 
ATOM     25  C   UNL d   1      41.824 -15.873  38.288  0.00  0.00     0.000 C 
ENDBRANCH  23  24
ENDBRANCH   9  23
BRANCH   5  26
ATOM     26  C   UNL d   1      45.038 -15.606  37.575  0.00  0.00     0.004 A 
ATOM     27  C   UNL d   1      44.586 -15.989  37.017  0.00  0.00     0.000 A 
ATOM     28  C   UNL d   1      44.273 -15.561  36.385  0.00  0.00     0.000 A 
ATOM     29  C   UNL d   1      44.423 -14.763  36.331  0.00  0.00     0.000 A 
ATOM     30  C   UNL d   1      44.878 -14.390  36.896  0.00  0.00     0.000 A 
ATOM     31  C   UNL d   1      45.185 -14.811  37.519  0.00  0.00     0.000 A 
ENDBRANCH   5  26
TORSDOF 5
ENDMDL
MODEL 2
REMARK VINA RESULT:      89.4      3.945      5.631
REMARK  5 active torsions:
REMARK  status: ('A' for Active; 'I' for Inactive)
REMARK    1  A    between atoms: N_9  and  C_3 
REMARK    2  A    between atoms: C_13  and  C_5 
REMARK    3  A    between atoms: C_12  and  N_10 
REMARK    4  A    between atoms: C_20  and  C_11 
REMARK    5  A    between atoms: C_25  and  C_20 
ROOT
ATOM      1  N   UNL d   1      43.168 -15.793  36.985  0.00  0.00    -0.196 N 
ATOM      2  C   UNL d   1      43.872 -15.380  37.103  0.00  0.00     0.167 A 
ATOM      3  C   UNL d   1      42.477 -15.445  37.210  0.00  0.00     0.152 A 
ATOM      4  N   UNL d   1      43.887 -16.860  36.431  0.00  0.00    -0.163 NA
ATOM      5  C   UNL d   1      44.568 -15.707  36.887  0.00  0.00     0.055 A 
ATOM      6  C   UNL d   1      44.592 -16.447  36.550  0.00  0.00     0.104 A 
ATOM      7  N   UNL d   1      43.848 -14.640  37.441  0.00  0.00    -0.227 NA
ATOM      8  C   UNL d   1      42.444 -14.720  37.542  0.00  0.00     0.057 A 
ATOM      9  C   UNL d   1      43.148 -14.307  37.660  0.00  0.00     0.086 A 
ATOM     10  C   UNL d   1      45.288 -16.782  36.330  0.00  0.00     0.023 C 
ENDROOT
BRANCH   3  11
ATOM     11  N   UNL d   1      41.751 -15.872  37.087  0.00  0.00    -0.286 N 
ATOM     12  C   UNL d   1      41.237 -15.664  36.454  0.00  0.00     0.101 A 
ATOM     13  C   UNL d   1      40.511 -16.090  36.332  0.00  0.00     0.101 A 
ATOM     14  N   UNL d   1      40.299 -16.724  36.843  0.00  0.00    -0.286 N 
ATOM     15  C   UNL d   1      40.816 -16.942  37.489  0.00  0.00     0.101 A 
ATOM     16  C   UNL d   1      41.542 -16.515  37.612  0.00  0.00     0.101 A 
BRANCH  14  17
ATOM     17  C   UNL d   1      39.576 -17.148  36.721  0.00  0.00     0.148 A 
ATOM     18  N   UNL d   1      39.595 -17.998  36.670  0.00  0.00    -0.227 NA
ATOM     19  C   UNL d   1      38.873 -18.422  36.548  0.00  0.00     0.101 A 
ATOM     20  C   UNL d   1      38.135 -17.994  36.478  0.00  0.00     0.021 A 
ATOM     21  C   UNL d   1      38.128 -17.156  36.530  0.00  0.00     0.005 A 
ATOM     22  C   UNL d   1      38.854 -16.730  36.652  0.00  0.00     0.037 A 
ENDBRANCH  14  17
ENDBRANCH   3  11
BRANCH   9  23
ATOM     23  C   UNL d   1      43.130 -13.536  38.011  0.00  0.00     0.019 C 
BRANCH  23  24
ATOM     24  C   UNL d   1      43.241 -13.438  38.852  0.00  0.00     0.002 C 
ATOM     25  C   UNL d   1      43.096 -12.695  39.215  0.00  0.00     0.000 C 
ENDBRANCH  23  24
ENDBRANCH   9  23
BRANCH   5  26
ATOM     26  C   UNL d   1      45.261 -15.301  37.004  0.00  0.00     0.004 A 
ATOM     27  C   UNL d   1      45.421 -14.645  36.550  0.00  0.00     0.000 A 
ATOM     28  C   UNL d   1      46.125 -14.231  36.668  0.00  0.00     0.000 A 
ATOM     29  C   UNL d   1      46.647 -14.487  37.238  0.00  0.00     0.000 A 
ATOM     30  C   UNL d   1      46.476 -15.147  37.688  0.00  0.00     0.000 A 
ATOM     31  C   UNL d   1      45.783 -15.553  37.571  0.00  0.00     0.000 A 
ENDBRANCH   5  26
TORSDOF 5
ENDMDL
