MODEL 1
REMARK VINA RESULT:      35.0      0.000      0.000
REMARK  4 active torsions:
REMARK  status: ('A' for Active; 'I' for Inactive)
REMARK    1  A    between atoms: C_11  and  N_1 
REMARK    2  A    between atoms: S_7  and  C_2 
REMARK    3  A    between atoms: C_13  and  S_7 
REMARK    4  A    between atoms: C_8  and  C_13 
REMARK       I    between atoms: N_9  and  C_8 
ROOT
ATOM      1  N   UNL d   1      46.176 -18.496  42.736  0.00  0.00    -0.254 N 
ATOM      2  C   UNL d   1      46.245 -17.959  43.358  0.00  0.00     0.182 A 
ATOM      3  C   UNL d   1      46.255 -19.305  42.879  0.00  0.00     0.274 A 
ATOM      4  C   UNL d   1      46.403 -19.573  43.642  0.00  0.00     0.104 A 
ATOM      5  N   UNL d   1      46.394 -18.231  44.122  0.00  0.00    -0.222 NA
ATOM      6  C   UNL d   1      46.473 -19.036  44.263  0.00  0.00     0.095 A 
ATOM      7  S   UNL d   1      46.507 -20.328  43.949  0.00  0.00    -0.080 SA
ATOM      8  O   UNL d   1      46.186 -19.843  42.258  0.00  0.00    -0.266 OA
ATOM      9  C   UNL d   1      46.619 -19.460  44.954  0.00  0.00     0.027 A 
ATOM     10  C   UNL d   1      46.641 -20.253  44.762  0.00  0.00     0.037 A 
ENDROOT
BRANCH   2  11
ATOM     11  S   UNL d   1      46.166 -17.141  43.219  0.00  0.00    -0.044 SA
BRANCH  11  12
ATOM     12  C   UNL d   1      46.064 -16.627  43.857  0.00  0.00     0.099 C 
BRANCH  12  13
ATOM     13  C   UNL d   1      46.079 -15.810  43.736  0.00  0.00     0.271 C 
ATOM     14  N   UNL d   1      45.568 -15.321  44.159  0.00  0.00    -0.272 N 
ATOM     15  C   UNL d   1      44.994 -15.492  44.727  0.00  0.00     0.083 A 
ATOM     16  C   UNL d   1      45.582 -14.509  44.040  0.00  0.00     0.083 A 
ATOM     17  C   UNL d   1      44.656 -14.768  44.954  0.00  0.00     0.021 A 
ATOM     18  C   UNL d   1      45.016 -14.169  44.534  0.00  0.00     0.021 A 
ATOM     19  O   UNL d   1      46.607 -15.484  43.192  0.00  0.00    -0.266 OA
ENDBRANCH  12  13
ENDBRANCH  11  12
ENDBRANCH   2  11
BRANCH   1  20
ATOM     20  C   UNL d   1      46.028 -18.232  41.977  0.00  0.00     0.069 A 
ATOM     21  C   UNL d   1      46.639 -17.918  41.519  0.00  0.00     0.018 A 
ATOM     22  C   UNL d   1      46.486 -17.653  40.753  0.00  0.00     0.002 A 
ATOM     23  C   UNL d   1      45.722 -17.701  40.445  0.00  0.00     0.000 A 
ATOM     24  C   UNL d   1      45.111 -18.015  40.902  0.00  0.00     0.002 A 
ATOM     25  C   UNL d   1      45.559 -17.434  39.668  0.00  0.00     0.000 C 
ATOM     26  C   UNL d   1      45.265 -18.280  41.669  0.00  0.00     0.018 A 
ENDBRANCH   1  20
TORSDOF 4
ENDMDL
