MODEL 1
REMARK VINA RESULT:      -8.1      0.000      0.000
REMARK  5 active torsions:
REMARK  status: ('A' for Active; 'I' for Inactive)
REMARK       I    between atoms: C_3  and  N_1 
REMARK    1  A    between atoms: S_7  and  C_2 
REMARK    2  A    between atoms: C_6  and  C_3 
REMARK    3  A    between atoms: N_4  and  C_8 
REMARK    4  A    between atoms: C_17  and  S_7 
REMARK    5  A    between atoms: C_18  and  C_17 
ROOT
ATOM      1  N   UNL d   1      53.208  32.097  53.442  0.00  0.00    -0.251 N 
ATOM      2  C   UNL d   1      52.961  32.877  53.312  0.00  0.00     0.182 A 
ATOM      3  C   UNL d   1      52.763  31.415  53.308  0.00  0.00     0.266 C 
ATOM      4  N   UNL d   1      53.580  33.374  53.521  0.00  0.00    -0.219 NA
ATOM      5  O   UNL d   1      51.992  31.471  53.015  0.00  0.00    -0.267 OA
ATOM      6  C   UNL d   1      53.987  32.118  53.735  0.00  0.00     0.106 A 
ATOM      7  C   UNL d   1      54.214  32.915  53.782  0.00  0.00     0.120 A 
ENDROOT
BRANCH   2   8
ATOM      8  S   UNL d   1      52.223  33.101  53.024  0.00  0.00    -0.049 SA
BRANCH   8   9
ATOM      9  C   UNL d   1      52.047  33.893  52.927  0.00  0.00     0.038 C 
BRANCH   9  10
ATOM     10  C   UNL d   1      51.306  34.121  52.658  0.00  0.00     0.007 A 
ATOM     11  C   UNL d   1      51.158  34.166  51.842  0.00  0.00     0.002 A 
ATOM     12  C   UNL d   1      50.409  34.396  51.573  0.00  0.00     0.024 A 
ATOM     13  C   UNL d   1      49.821  34.578  52.116  0.00  0.00     0.127 A 
ATOM     14  C   UNL d   1      49.962  34.535  52.923  0.00  0.00     0.024 A 
ATOM     15  C   UNL d   1      50.707  34.306  53.191  0.00  0.00     0.002 A 
BRANCH  13  16
ATOM     16  N   UNL d   1      49.073  34.808  51.839  0.00  0.00    -0.114 N 
ATOM     17  O   UNL d   1      48.797  34.536  51.092  0.00  0.00    -0.532 OA
ATOM     18  O   UNL d   1      48.586  35.309  52.292  0.00  0.00    -0.532 OA
ENDBRANCH  13  16
ENDBRANCH   9  10
ENDBRANCH   8   9
ENDBRANCH   2   8
BRANCH   3  19
ATOM     19  C   UNL d   1      53.090  30.668  53.467  0.00  0.00     0.057 A 
ATOM     20  C   UNL d   1      52.930  30.298  54.192  0.00  0.00     0.005 A 
ATOM     21  C   UNL d   1      53.261  29.558  54.337  0.00  0.00     0.000 A 
ATOM     22  C   UNL d   1      53.103  29.186  55.060  0.00  0.00     0.000 C 
ATOM     23  C   UNL d   1      53.742  29.191  53.771  0.00  0.00     0.000 A 
ATOM     24  C   UNL d   1      53.896  29.562  53.057  0.00  0.00     0.000 A 
ATOM     25  C   UNL d   1      53.570  30.303  52.903  0.00  0.00     0.005 A 
ENDBRANCH   3  19
TORSDOF 5
ENDMDL
MODEL 2
REMARK VINA RESULT:      -7.8      1.439      5.201
REMARK  5 active torsions:
REMARK  status: ('A' for Active; 'I' for Inactive)
REMARK       I    between atoms: C_3  and  N_1 
REMARK    1  A    between atoms: S_7  and  C_2 
REMARK    2  A    between atoms: C_6  and  C_3 
REMARK    3  A    between atoms: N_4  and  C_8 
REMARK    4  A    between atoms: C_17  and  S_7 
REMARK    5  A    between atoms: C_18  and  C_17 
ROOT
ATOM      1  N   UNL d   1      51.657  33.988  52.962  0.00  0.00    -0.251 N 
ATOM      2  C   UNL d   1      52.343  33.547  53.111  0.00  0.00     0.182 A 
ATOM      3  C   UNL d   1      50.885  33.697  52.937  0.00  0.00     0.266 C 
ATOM      4  N   UNL d   1      52.982  34.061  53.082  0.00  0.00    -0.219 NA
ATOM      5  O   UNL d   1      50.738  32.894  53.068  0.00  0.00    -0.267 OA
ATOM      6  C   UNL d   1      51.880  34.781  52.841  0.00  0.00     0.106 A 
ATOM      7  C   UNL d   1      52.705  34.821  52.917  0.00  0.00     0.120 A 
ENDROOT
BRANCH   2   8
ATOM      8  S   UNL d   1      52.366  32.738  53.260  0.00  0.00    -0.049 SA
BRANCH   8   9
ATOM      9  C   UNL d   1      53.078  32.338  53.226  0.00  0.00     0.038 C 
BRANCH   9  10
ATOM     10  C   UNL d   1      53.112  31.541  53.415  0.00  0.00     0.007 A 
ATOM     11  C   UNL d   1      53.373  31.306  54.168  0.00  0.00     0.002 A 
ATOM     12  C   UNL d   1      53.406  30.501  54.359  0.00  0.00     0.024 A 
ATOM     13  C   UNL d   1      53.182  29.941  53.801  0.00  0.00     0.127 A 
ATOM     14  C   UNL d   1      52.924  30.168  53.056  0.00  0.00     0.024 A 
ATOM     15  C   UNL d   1      52.890  30.970  52.866  0.00  0.00     0.002 A 
BRANCH  13  16
ATOM     16  N   UNL d   1      53.218  29.137  53.999  0.00  0.00    -0.114 N 
ATOM     17  O   UNL d   1      52.941  28.555  53.458  0.00  0.00    -0.532 OA
ATOM     18  O   UNL d   1      53.528  28.891  54.733  0.00  0.00    -0.532 OA
ENDBRANCH  13  16
ENDBRANCH   9  10
ENDBRANCH   8   9
ENDBRANCH   2   8
BRANCH   3  19
ATOM     19  C   UNL d   1      50.252  34.211  52.781  0.00  0.00     0.057 A 
ATOM     20  C   UNL d   1      49.905  34.213  52.027  0.00  0.00     0.005 A 
ATOM     21  C   UNL d   1      49.278  34.728  51.885  0.00  0.00     0.000 A 
ATOM     22  C   UNL d   1      48.929  34.732  51.134  0.00  0.00     0.000 C 
ATOM     23  C   UNL d   1      49.001  35.233  52.481  0.00  0.00     0.000 A 
ATOM     24  C   UNL d   1      49.349  35.226  53.223  0.00  0.00     0.000 A 
ATOM     25  C   UNL d   1      49.977  34.714  53.374  0.00  0.00     0.005 A 
ENDBRANCH   3  19
TORSDOF 5
ENDMDL
MODEL 3
REMARK VINA RESULT:      -7.2      1.662      2.669
REMARK  5 active torsions:
REMARK  status: ('A' for Active; 'I' for Inactive)
REMARK       I    between atoms: C_3  and  N_1 
REMARK    1  A    between atoms: S_7  and  C_2 
REMARK    2  A    between atoms: C_6  and  C_3 
REMARK    3  A    between atoms: N_4  and  C_8 
REMARK    4  A    between atoms: C_17  and  S_7 
REMARK    5  A    between atoms: C_18  and  C_17 
ROOT
ATOM      1  N   UNL d   1      52.824  33.050  53.534  0.00  0.00    -0.251 N 
ATOM      2  C   UNL d   1      52.160  33.060  53.038  0.00  0.00     0.182 A 
ATOM      3  C   UNL d   1      53.059  33.650  54.050  0.00  0.00     0.266 C 
ATOM      4  N   UNL d   1      52.145  32.351  52.626  0.00  0.00    -0.219 NA
ATOM      5  O   UNL d   1      52.615  34.345  54.109  0.00  0.00    -0.267 OA
ATOM      6  C   UNL d   1      53.219  32.326  53.422  0.00  0.00     0.106 A 
ATOM      7  C   UNL d   1      52.793  31.895  52.856  0.00  0.00     0.120 A 
ENDROOT
BRANCH   2   8
ATOM      8  S   UNL d   1      51.619  33.678  52.980  0.00  0.00    -0.049 SA
BRANCH   8   9
ATOM      9  C   UNL d   1      50.997  33.626  52.453  0.00  0.00     0.038 C 
BRANCH   9  10
ATOM     10  C   UNL d   1      50.364  34.144  52.510  0.00  0.00     0.007 A 
ATOM     11  C   UNL d   1      49.934  34.348  51.829  0.00  0.00     0.002 A 
ATOM     12  C   UNL d   1      49.295  34.872  51.888  0.00  0.00     0.024 A 
ATOM     13  C   UNL d   1      49.093  35.185  52.619  0.00  0.00     0.127 A 
ATOM     14  C   UNL d   1      49.514  34.987  53.295  0.00  0.00     0.024 A 
ATOM     15  C   UNL d   1      50.151  34.466  53.237  0.00  0.00     0.002 A 
BRANCH  13  16
ATOM     16  N   UNL d   1      48.452  35.709  52.671  0.00  0.00    -0.114 N 
ATOM     17  O   UNL d   1      48.426  36.288  53.281  0.00  0.00    -0.532 OA
ATOM     18  O   UNL d   1      47.825  35.672  52.123  0.00  0.00    -0.532 OA
ENDBRANCH  13  16
ENDBRANCH   9  10
ENDBRANCH   8   9
ENDBRANCH   2   8
BRANCH   3  19
ATOM     19  C   UNL d   1      53.742  33.557  54.512  0.00  0.00     0.057 A 
ATOM     20  C   UNL d   1      54.458  33.890  54.255  0.00  0.00     0.005 A 
ATOM     21  C   UNL d   1      55.128  33.790  54.724  0.00  0.00     0.000 A 
ATOM     22  C   UNL d   1      55.843  34.120  54.470  0.00  0.00     0.000 C 
ATOM     23  C   UNL d   1      55.088  33.366  55.435  0.00  0.00     0.000 A 
ATOM     24  C   UNL d   1      54.378  33.040  55.683  0.00  0.00     0.000 A 
ATOM     25  C   UNL d   1      53.703  33.135  55.221  0.00  0.00     0.005 A 
ENDBRANCH   3  19
TORSDOF 5
ENDMDL
MODEL 4
REMARK VINA RESULT:      -6.8      2.487      6.049
REMARK  5 active torsions:
REMARK  status: ('A' for Active; 'I' for Inactive)
REMARK       I    between atoms: C_3  and  N_1 
REMARK    1  A    between atoms: S_7  and  C_2 
REMARK    2  A    between atoms: C_6  and  C_3 
REMARK    3  A    between atoms: N_4  and  C_8 
REMARK    4  A    between atoms: C_17  and  S_7 
REMARK    5  A    between atoms: C_18  and  C_17 
ROOT
ATOM      1  N   UNL d   1      48.957  35.001  52.247  0.00  0.00    -0.251 N 
ATOM      2  C   UNL d   1      49.665  34.591  52.112  0.00  0.00     0.182 A 
ATOM      3  C   UNL d   1      48.775  35.457  52.910  0.00  0.00     0.266 C 
ATOM      4  N   UNL d   1      49.601  34.216  51.385  0.00  0.00    -0.219 NA
ATOM      5  O   UNL d   1      49.324  35.538  53.523  0.00  0.00    -0.267 OA
ATOM      6  C   UNL d   1      48.456  34.874  51.594  0.00  0.00     0.106 A 
ATOM      7  C   UNL d   1      48.862  34.385  51.060  0.00  0.00     0.120 A 
ENDROOT
BRANCH   2   8
ATOM      8  S   UNL d   1      50.308  34.571  52.624  0.00  0.00    -0.049 SA
BRANCH   8   9
ATOM      9  C   UNL d   1      50.985  34.165  52.412  0.00  0.00     0.038 C 
BRANCH   9  10
ATOM     10  C   UNL d   1      51.628  34.142  52.920  0.00  0.00     0.007 A 
ATOM     11  C   UNL d   1      51.740  33.485  53.416  0.00  0.00     0.002 A 
ATOM     12  C   UNL d   1      52.389  33.462  53.929  0.00  0.00     0.024 A 
ATOM     13  C   UNL d   1      52.918  34.091  53.943  0.00  0.00     0.127 A 
ATOM     14  C   UNL d   1      52.812  34.742  53.455  0.00  0.00     0.024 A 
ATOM     15  C   UNL d   1      52.165  34.765  52.944  0.00  0.00     0.002 A 
BRANCH  13  16
ATOM     16  N   UNL d   1      53.566  34.062  54.459  0.00  0.00    -0.114 N 
ATOM     17  O   UNL d   1      53.652  34.641  55.063  0.00  0.00    -0.532 OA
ATOM     18  O   UNL d   1      54.141  33.462  54.389  0.00  0.00    -0.532 OA
ENDBRANCH  13  16
ENDBRANCH   9  10
ENDBRANCH   8   9
ENDBRANCH   2   8
BRANCH   3  19
ATOM     19  C   UNL d   1      48.038  35.836  52.964  0.00  0.00     0.057 A 
ATOM     20  C   UNL d   1      47.564  35.712  53.634  0.00  0.00     0.005 A 
ATOM     21  C   UNL d   1      46.835  36.094  53.675  0.00  0.00     0.000 A 
ATOM     22  C   UNL d   1      46.360  35.973  54.342  0.00  0.00     0.000 C 
ATOM     23  C   UNL d   1      46.582  36.591  53.062  0.00  0.00     0.000 A 
ATOM     24  C   UNL d   1      47.056  36.708  52.403  0.00  0.00     0.000 A 
ATOM     25  C   UNL d   1      47.786  36.330  52.354  0.00  0.00     0.005 A 
ENDBRANCH   3  19
TORSDOF 5
ENDMDL
MODEL 5
REMARK VINA RESULT:      -6.4      1.182      1.905
REMARK  5 active torsions:
REMARK  status: ('A' for Active; 'I' for Inactive)
REMARK       I    between atoms: C_3  and  N_1 
REMARK    1  A    between atoms: S_7  and  C_2 
REMARK    2  A    between atoms: C_6  and  C_3 
REMARK    3  A    between atoms: N_4  and  C_8 
REMARK    4  A    between atoms: C_17  and  S_7 
REMARK    5  A    between atoms: C_18  and  C_17 
ROOT
ATOM      1  N   UNL d   1      52.286  33.501  53.208  0.00  0.00    -0.251 N 
ATOM      2  C   UNL d   1      51.801  34.149  53.026  0.00  0.00     0.182 A 
ATOM      3  C   UNL d   1      52.060  32.707  53.211  0.00  0.00     0.266 C 
ATOM      4  N   UNL d   1      52.257  34.828  53.093  0.00  0.00    -0.219 NA
ATOM      5  O   UNL d   1      51.285  32.494  53.022  0.00  0.00    -0.267 OA
ATOM      6  C   UNL d   1      53.046  33.790  53.387  0.00  0.00     0.106 A 
ATOM      7  C   UNL d   1      53.022  34.616  53.314  0.00  0.00     0.120 A 
ENDROOT
BRANCH   2   8
ATOM      8  S   UNL d   1      51.006  34.104  52.817  0.00  0.00    -0.049 SA
BRANCH   8   9
ATOM      9  C   UNL d   1      50.512  34.739  52.961  0.00  0.00     0.038 C 
BRANCH   9  10
ATOM     10  C   UNL d   1      49.814  34.822  52.538  0.00  0.00     0.007 A 
ATOM     11  C   UNL d   1      49.155  35.182  52.893  0.00  0.00     0.002 A 
ATOM     12  C   UNL d   1      48.452  35.265  52.465  0.00  0.00     0.024 A 
ATOM     13  C   UNL d   1      48.412  34.991  51.692  0.00  0.00     0.127 A 
ATOM     14  C   UNL d   1      49.060  34.635  51.336  0.00  0.00     0.024 A 
ATOM     15  C   UNL d   1      49.761  34.552  51.763  0.00  0.00     0.002 A 
BRANCH  13  16
ATOM     16  N   UNL d   1      47.704  35.078  51.269  0.00  0.00    -0.114 N 
ATOM     17  O   UNL d   1      47.186  35.719  51.437  0.00  0.00    -0.532 OA
ATOM     18  O   UNL d   1      47.494  34.535  50.672  0.00  0.00    -0.532 OA
ENDBRANCH  13  16
ENDBRANCH   9  10
ENDBRANCH   8   9
ENDBRANCH   2   8
BRANCH   3  19
ATOM     19  C   UNL d   1      52.613  32.119  53.407  0.00  0.00     0.057 A 
ATOM     20  C   UNL d   1      52.669  31.439  52.934  0.00  0.00     0.005 A 
ATOM     21  C   UNL d   1      53.222  30.864  53.139  0.00  0.00     0.000 A 
ATOM     22  C   UNL d   1      53.281  30.184  52.669  0.00  0.00     0.000 C 
ATOM     23  C   UNL d   1      53.710  30.962  53.801  0.00  0.00     0.000 A 
ATOM     24  C   UNL d   1      53.649  31.636  54.263  0.00  0.00     0.000 A 
ATOM     25  C   UNL d   1      53.099  32.217  54.066  0.00  0.00     0.005 A 
ENDBRANCH   3  19
TORSDOF 5
ENDMDL
MODEL 6
REMARK VINA RESULT:      -5.3      2.154      5.184
REMARK  5 active torsions:
REMARK  status: ('A' for Active; 'I' for Inactive)
REMARK       I    between atoms: C_3  and  N_1 
REMARK    1  A    between atoms: S_7  and  C_2 
REMARK    2  A    between atoms: C_6  and  C_3 
REMARK    3  A    between atoms: N_4  and  C_8 
REMARK    4  A    between atoms: C_17  and  S_7 
REMARK    5  A    between atoms: C_18  and  C_17 
ROOT
ATOM      1  N   UNL d   1      52.558  33.370  53.185  0.00  0.00    -0.251 N 
ATOM      2  C   UNL d   1      52.434  32.593  52.927  0.00  0.00     0.182 A 
ATOM      3  C   UNL d   1      53.150  33.626  53.699  0.00  0.00     0.266 C 
ATOM      4  N   UNL d   1      51.785  32.597  52.424  0.00  0.00    -0.219 NA
ATOM      5  O   UNL d   1      53.694  33.087  54.009  0.00  0.00    -0.267 OA
ATOM      6  C   UNL d   1      51.977  33.855  52.835  0.00  0.00     0.106 A 
ATOM      7  C   UNL d   1      51.500  33.368  52.363  0.00  0.00     0.120 A 
ENDROOT
BRANCH   2   8
ATOM      8  S   UNL d   1      52.888  31.941  53.144  0.00  0.00    -0.049 SA
BRANCH   8   9
ATOM      9  C   UNL d   1      52.685  31.196  52.875  0.00  0.00     0.038 C 
BRANCH   9  10
ATOM     10  C   UNL d   1      52.867  30.534  53.323  0.00  0.00     0.007 A 
ATOM     11  C   UNL d   1      52.255  30.066  53.636  0.00  0.00     0.002 A 
ATOM     12  C   UNL d   1      52.440  29.397  54.087  0.00  0.00     0.024 A 
ATOM     13  C   UNL d   1      53.226  29.202  54.222  0.00  0.00     0.127 A 
ATOM     14  C   UNL d   1      53.834  29.660  53.915  0.00  0.00     0.024 A 
ATOM     15  C   UNL d   1      53.650  30.327  53.465  0.00  0.00     0.002 A 
BRANCH  13  16
ATOM     16  N   UNL d   1      53.404  28.530  54.675  0.00  0.00    -0.114 N 
ATOM     17  O   UNL d   1      53.655  27.821  54.300  0.00  0.00    -0.532 OA
ATOM     18  O   UNL d   1      53.337  28.546  55.506  0.00  0.00    -0.532 OA
ENDBRANCH  13  16
ENDBRANCH   9  10
ENDBRANCH   8   9
ENDBRANCH   2   8
BRANCH   3  19
ATOM     19  C   UNL d   1      53.202  34.429  53.906  0.00  0.00     0.057 A 
ATOM     20  C   UNL d   1      52.962  34.671  54.663  0.00  0.00     0.005 A 
ATOM     21  C   UNL d   1      53.019  35.470  54.856  0.00  0.00     0.000 A 
ATOM     22  C   UNL d   1      52.781  35.715  55.610  0.00  0.00     0.000 C 
ATOM     23  C   UNL d   1      53.309  36.019  54.307  0.00  0.00     0.000 A 
ATOM     24  C   UNL d   1      53.544  35.772  53.561  0.00  0.00     0.000 A 
ATOM     25  C   UNL d   1      53.491  34.975  53.360  0.00  0.00     0.005 A 
ENDBRANCH   3  19
TORSDOF 5
ENDMDL
