MODEL 1
REMARK VINA RESULT:      -7.8      0.000      0.000
REMARK  1 active torsions:
REMARK  status: ('A' for Active; 'I' for Inactive)
REMARK       I    between atoms: N_4  and  C_1 
REMARK    1  A    between atoms: C_9  and  N_4 
ROOT
ATOM      1  C   UNL d   1      53.545  31.296  53.429  0.00  0.00     0.121 A 
ATOM      2  C   UNL d   1      54.135  31.750  53.782  0.00  0.00     0.046 A 
ATOM      3  C   UNL d   1      52.925  31.666  53.033  0.00  0.00     0.119 A 
ATOM      4  O   UNL d   1      53.426  30.483  53.380  0.00  0.00    -0.299 OA
ATOM      5  O   UNL d   1      52.422  31.077  52.739  0.00  0.00    -0.300 OA
ATOM      6  C   UNL d   1      54.104  32.581  53.738  0.00  0.00     0.102 A 
ATOM      7  C   UNL d   1      52.729  30.352  52.951  0.00  0.00     0.304 A 
ATOM      8  C   UNL d   1      52.895  32.489  52.990  0.00  0.00     0.028 A 
ATOM      9  C   UNL d   1      53.484  32.951  53.342  0.00  0.00     0.022 A 
ENDROOT
BRANCH   6  10
ATOM     10  N   UNL d   1      54.704  33.040  54.097  0.00  0.00    -0.056 NA
ATOM     11  C   UNL d   1      54.621  33.299  54.882  0.00  0.00     0.787 C 
ATOM     12  N   UNL d   1      55.213  33.751  55.232  0.00  0.00     0.064 N 
ATOM     13  N   UNL d   1      53.945  33.105  55.311  0.00  0.00     0.064 N 
ENDBRANCH   6  10
TORSDOF 1
ENDMDL
MODEL 2
REMARK VINA RESULT:      -7.5      2.123      3.038
REMARK  1 active torsions:
REMARK  status: ('A' for Active; 'I' for Inactive)
REMARK       I    between atoms: N_4  and  C_1 
REMARK    1  A    between atoms: C_9  and  N_4 
ROOT
ATOM      1  C   UNL d   1      54.064  32.726  54.759  0.00  0.00     0.121 A 
ATOM      2  C   UNL d   1      53.504  32.213  54.441  0.00  0.00     0.046 A 
ATOM      3  C   UNL d   1      54.654  33.039  54.276  0.00  0.00     0.119 A 
ATOM      4  O   UNL d   1      54.177  33.022  55.518  0.00  0.00    -0.299 OA
ATOM      5  O   UNL d   1      55.131  33.531  54.742  0.00  0.00    -0.300 OA
ATOM      6  C   UNL d   1      53.534  32.011  53.633  0.00  0.00     0.102 A 
ATOM      7  C   UNL d   1      54.839  33.521  55.504  0.00  0.00     0.304 A 
ATOM      8  C   UNL d   1      54.683  32.839  53.477  0.00  0.00     0.028 A 
ATOM      9  C   UNL d   1      54.123  32.324  53.151  0.00  0.00     0.022 A 
ENDROOT
BRANCH   6  10
ATOM     10  N   UNL d   1      52.964  31.490  53.313  0.00  0.00    -0.056 NA
ATOM     11  C   UNL d   1      53.114  30.673  53.281  0.00  0.00     0.787 C 
ATOM     12  N   UNL d   1      52.551  30.162  52.965  0.00  0.00     0.064 N 
ATOM     13  N   UNL d   1      53.826  30.372  53.567  0.00  0.00     0.064 N 
ENDBRANCH   6  10
TORSDOF 1
ENDMDL
MODEL 3
REMARK VINA RESULT:      -7.4      1.132      1.582
REMARK  1 active torsions:
REMARK  status: ('A' for Active; 'I' for Inactive)
REMARK       I    between atoms: N_4  and  C_1 
REMARK    1  A    between atoms: C_9  and  N_4 
ROOT
ATOM      1  C   UNL d   1      53.003  31.700  53.048  0.00  0.00     0.121 A 
ATOM      2  C   UNL d   1      52.953  32.517  52.962  0.00  0.00     0.046 A 
ATOM      3  C   UNL d   1      53.536  31.377  53.587  0.00  0.00     0.119 A 
ATOM      4  O   UNL d   1      52.606  31.079  52.684  0.00  0.00    -0.299 OA
ATOM      5  O   UNL d   1      53.464  30.552  53.554  0.00  0.00    -0.300 OA
ATOM      6  C   UNL d   1      53.440  33.016  53.419  0.00  0.00     0.102 A 
ATOM      7  C   UNL d   1      52.894  30.369  53.000  0.00  0.00     0.304 A 
ATOM      8  C   UNL d   1      54.017  31.871  54.040  0.00  0.00     0.028 A 
ATOM      9  C   UNL d   1      53.971  32.693  53.958  0.00  0.00     0.022 A 
ENDROOT
BRANCH   6  10
ATOM     10  N   UNL d   1      53.387  33.846  53.329  0.00  0.00    -0.056 NA
ATOM     11  C   UNL d   1      52.926  34.296  53.855  0.00  0.00     0.787 C 
ATOM     12  N   UNL d   1      52.876  35.112  53.765  0.00  0.00     0.064 N 
ATOM     13  N   UNL d   1      52.519  33.925  54.468  0.00  0.00     0.064 N 
ENDBRANCH   6  10
TORSDOF 1
ENDMDL
MODEL 4
REMARK VINA RESULT:      -7.2      2.349      3.168
REMARK  1 active torsions:
REMARK  status: ('A' for Active; 'I' for Inactive)
REMARK       I    between atoms: N_4  and  C_1 
REMARK    1  A    between atoms: C_9  and  N_4 
ROOT
ATOM      1  C   UNL d   1      53.661  33.585  54.529  0.00  0.00     0.121 A 
ATOM      2  C   UNL d   1      52.872  33.708  54.327  0.00  0.00     0.046 A 
ATOM      3  C   UNL d   1      54.122  33.069  54.082  0.00  0.00     0.119 A 
ATOM      4  O   UNL d   1      54.133  33.889  55.129  0.00  0.00    -0.299 OA
ATOM      5  O   UNL d   1      54.882  33.056  54.411  0.00  0.00    -0.300 OA
ATOM      6  C   UNL d   1      52.541  33.312  53.673  0.00  0.00     0.102 A 
ATOM      7  C   UNL d   1      54.890  33.559  55.053  0.00  0.00     0.304 A 
ATOM      8  C   UNL d   1      53.794  32.676  53.434  0.00  0.00     0.028 A 
ATOM      9  C   UNL d   1      53.002  32.796  53.227  0.00  0.00     0.022 A 
ENDROOT
BRANCH   6  10
ATOM     10  N   UNL d   1      51.740  33.439  53.470  0.00  0.00    -0.056 NA
ATOM     11  C   UNL d   1      51.533  34.043  52.939  0.00  0.00     0.787 C 
ATOM     12  N   UNL d   1      50.743  34.166  52.742  0.00  0.00     0.064 N 
ATOM     13  N   UNL d   1      52.117  34.522  52.609  0.00  0.00     0.064 N 
ENDBRANCH   6  10
TORSDOF 1
ENDMDL
MODEL 5
REMARK VINA RESULT:      -6.9      2.065      2.526
REMARK  1 active torsions:
REMARK  status: ('A' for Active; 'I' for Inactive)
REMARK       I    between atoms: N_4  and  C_1 
REMARK    1  A    between atoms: C_9  and  N_4 
ROOT
ATOM      1  C   UNL d   1      51.818  33.726  53.521  0.00  0.00     0.121 A 
ATOM      2  C   UNL d   1      52.368  33.565  54.111  0.00  0.00     0.046 A 
ATOM      3  C   UNL d   1      51.932  34.370  53.020  0.00  0.00     0.119 A 
ATOM      4  O   UNL d   1      51.117  33.357  53.300  0.00  0.00    -0.299 OA
ATOM      5  O   UNL d   1      51.297  34.395  52.488  0.00  0.00    -0.300 OA
ATOM      6  C   UNL d   1      53.039  34.050  54.201  0.00  0.00     0.102 A 
ATOM      7  C   UNL d   1      50.797  33.775  52.659  0.00  0.00     0.304 A 
ATOM      8  C   UNL d   1      52.596  34.851  53.109  0.00  0.00     0.028 A 
ATOM      9  C   UNL d   1      53.154  34.693  53.701  0.00  0.00     0.022 A 
ENDROOT
BRANCH   6  10
ATOM     10  N   UNL d   1      53.597  33.883  54.802  0.00  0.00    -0.056 NA
ATOM     11  C   UNL d   1      54.252  33.398  54.642  0.00  0.00     0.787 C 
ATOM     12  N   UNL d   1      54.799  33.235  55.235  0.00  0.00     0.064 N 
ATOM     13  N   UNL d   1      54.355  33.078  53.890  0.00  0.00     0.064 N 
ENDBRANCH   6  10
TORSDOF 1
ENDMDL
