MODEL 1
REMARK VINA RESULT:      95.3      0.000      0.000
REMARK  4 active torsions:
REMARK  status: ('A' for Active; 'I' for Inactive)
REMARK    1  A    between atoms: C_11  and  C_1 
REMARK    2  A    between atoms: C_6  and  C_17 
REMARK       I    between atoms: N_10  and  C_6 
REMARK    3  A    between atoms: C_17  and  N_8 
REMARK    4  A    between atoms: C_15  and  N_10 
ROOT
ATOM      1  N   UNL d   1      60.908  48.311  50.601  0.00  0.00    -0.299 N 
ATOM      2  C   UNL d   1      61.449  46.788  50.318  0.00  0.00     0.039 A 
ATOM      3  C   UNL d   1      61.131  46.984  51.054  0.00  0.00     0.022 A 
ATOM      4  C   UNL d   1      61.498  47.348  49.722  0.00  0.00     0.022 A 
ATOM      5  C   UNL d   1      61.225  48.115  49.865  0.00  0.00     0.081 A 
ATOM      6  C   UNL d   1      60.863  47.739  51.194  0.00  0.00     0.081 A 
ENDROOT
BRANCH   1   7
ATOM      7  C   UNL d   1      60.635  49.079  50.743  0.00  0.00     0.144 C 
BRANCH   7   8
ATOM      8  C   UNL d   1      59.823  49.222  50.817  0.00  0.00     0.297 C 
ATOM      9  N   UNL d   1      59.357  49.191  50.155  0.00  0.00    -0.207 NA
ATOM     10  O   UNL d   1      59.496  49.391  51.543  0.00  0.00    -0.264 OA
BRANCH   9  11
ATOM     11  C   UNL d   1      58.545  49.331  50.216  0.00  0.00     0.087 A 
ATOM     12  C   UNL d   1      58.175  49.231  50.933  0.00  0.00     0.045 A 
ATOM     13  C   UNL d   1      57.363  49.372  50.993  0.00  0.00     0.121 A 
ATOM     14  O   UNL d   1      56.836  49.322  51.625  0.00  0.00    -0.299 OA
ATOM     15  C   UNL d   1      56.936  49.610  50.337  0.00  0.00     0.119 A 
ATOM     16  C   UNL d   1      56.086  49.529  51.357  0.00  0.00     0.304 A 
ATOM     17  O   UNL d   1      56.149  49.708  50.556  0.00  0.00    -0.300 OA
ATOM     18  C   UNL d   1      57.327  49.708  49.611  0.00  0.00     0.028 A 
ATOM     19  C   UNL d   1      58.131  49.568  49.556  0.00  0.00     0.021 A 
ENDBRANCH   9  11
ENDBRANCH   7   8
ENDBRANCH   1   7
BRANCH   2  20
ATOM     20  C   UNL d   1      61.721  46.021  50.175  0.00  0.00     0.163 A 
ATOM     21  N   UNL d   1      61.484  45.339  50.559  0.00  0.00    -0.225 NA
ATOM     22  C   UNL d   1      61.896  44.703  50.242  0.00  0.00     0.101 A 
ATOM     23  C   UNL d   1      61.880  43.896  50.414  0.00  0.00     0.021 A 
ATOM     24  C   UNL d   1      62.397  44.995  49.653  0.00  0.00     0.101 A 
ATOM     25  C   UNL d   1      62.365  43.381  49.997  0.00  0.00     0.002 A 
ATOM     26  C   UNL d   1      62.868  43.669  49.406  0.00  0.00     0.002 A 
ATOM     27  C   UNL d   1      62.885  44.472  49.234  0.00  0.00     0.021 A 
ATOM     28  N   UNL d   1      62.290  45.811  49.610  0.00  0.00    -0.225 NA
ENDBRANCH   2  20
TORSDOF 4
ENDMDL
