MODEL 1
REMARK VINA RESULT:      21.2      0.000      0.000
REMARK  6 active torsions:
REMARK  status: ('A' for Active; 'I' for Inactive)
REMARK    1  A    between atoms: S_3  and  N_1 
REMARK    2  A    between atoms: C_19  and  S_3 
REMARK    3  A    between atoms: S_4  and  N_8 
REMARK    4  A    between atoms: C_11  and  C_5 
REMARK    5  A    between atoms: C_12  and  C_6 
REMARK    6  A    between atoms: N_8  and  C_20 
ROOT
ATOM      1  N   UNL d   1      45.985 -18.338  44.222  0.00  0.00    -0.152 N 
ATOM      2  N   UNL d   1      45.855 -17.645  44.661  0.00  0.00    -0.155 NA
ATOM      3  C   UNL d   1      46.081 -18.117  43.425  0.00  0.00     0.096 A 
ATOM      4  C   UNL d   1      45.870 -17.002  44.142  0.00  0.00     0.104 A 
ATOM      5  C   UNL d   1      46.009 -17.298  43.381  0.00  0.00     0.041 A 
ENDROOT
BRANCH   4   6
ATOM      6  C   UNL d   1      45.766 -16.211  44.345  0.00  0.00     0.019 A 
ATOM      7  C   UNL d   1      45.047 -15.961  44.685  0.00  0.00     0.003 A 
ATOM      8  C   UNL d   1      44.945 -15.172  44.887  0.00  0.00     0.020 A 
ATOM      9  C   UNL d   1      45.551 -14.622  44.754  0.00  0.00     0.093 A 
ATOM     10  C   UNL d   1      46.265 -14.874  44.415  0.00  0.00     0.020 A 
ATOM     11  C   UNL d   1      46.371 -15.672  44.211  0.00  0.00     0.003 A 
BRANCH   9  12
ATOM     12  N   UNL d   1      45.454 -13.826  44.955  0.00  0.00    -0.162 NA
BRANCH  12  13
ATOM     13  S   UNL d   1      45.410 -13.247  44.375  0.00  0.00     0.266 S 
ATOM     14  O   UNL d   1      45.997 -12.900  44.849  0.00  0.00    -0.203 OA
ATOM     15  O   UNL d   1      45.602 -12.536  43.994  0.00  0.00    -0.203 OA
ATOM     16  C   UNL d   1      44.828 -13.571  43.887  0.00  0.00     0.165 C 
ENDBRANCH  12  13
ENDBRANCH   9  12
ENDBRANCH   4   6
BRANCH   1  17
ATOM     17  S   UNL d   1      46.012 -19.106  44.530  0.00  0.00     0.287 S 
ATOM     18  O   UNL d   1      46.407 -19.694  44.955  0.00  0.00    -0.198 OA
ATOM     19  O   UNL d   1      46.647 -18.587  44.652  0.00  0.00    -0.198 OA
BRANCH  17  20
ATOM     20  C   UNL d   1      45.354 -19.567  44.373  0.00  0.00     0.118 C 
ATOM     21  C   UNL d   1      45.281 -20.313  44.729  0.00  0.00     0.014 C 
ENDBRANCH  17  20
ENDBRANCH   1  17
BRANCH   3  22
ATOM     22  C   UNL d   1      46.220 -18.632  42.803  0.00  0.00     0.019 A 
ATOM     23  C   UNL d   1      46.240 -18.338  42.032  0.00  0.00     0.004 A 
ATOM     24  C   UNL d   1      46.381 -18.851  41.400  0.00  0.00     0.030 A 
ATOM     25  C   UNL d   1      46.498 -19.646  41.547  0.00  0.00     0.140 A 
ATOM     26  C   UNL d   1      46.479 -19.936  42.307  0.00  0.00     0.030 A 
ATOM     27  F   UNL d   1      46.640 -20.164  40.908  0.00  0.00    -0.204 F 
ATOM     28  C   UNL d   1      46.340 -19.435  42.940  0.00  0.00     0.004 A 
ENDBRANCH   3  22
TORSDOF 6
ENDMDL
