MODEL 1
REMARK VINA RESULT:      -4.1      0.000      0.000
REMARK  8 active torsions:
REMARK  status: ('A' for Active; 'I' for Inactive)
REMARK    1  A    between atoms: C_2  and  P_1 
REMARK    2  A    between atoms: O_5  and  P_1 
REMARK    3  A    between atoms: O_6  and  P_1 
REMARK    4  A    between atoms: N_3  and  C_2 
REMARK       I    between atoms: C_4  and  N_3 
REMARK    5  A    between atoms: C_9  and  C_4 
REMARK    6  A    between atoms: C_12  and  O_5 
REMARK    7  A    between atoms: C_11  and  O_6 
REMARK    8  A    between atoms: C_10  and  C_9 
ROOT
ATOM      1  C   UNL d   1      58.401   0.098  29.825  0.00  0.00     0.165 C 
ATOM      2  C   UNL d   1      57.942   0.628  29.389  0.00  0.00     0.029 C 
ENDROOT
BRANCH   1   3
ATOM      3  P   UNL d   1      58.884  -0.453  29.443  0.00  0.00     0.392 P 
ATOM      4  O   UNL d   1      58.193  -0.799  29.089  0.00  0.00    -0.251 OA
BRANCH   3   5
ATOM      5  O   UNL d   1      59.371  -1.024  29.046  0.00  0.00    -0.265 OA
BRANCH   5   6
ATOM      6  C   UNL d   1      59.112  -1.803  28.965  0.00  0.00     0.103 C 
ATOM      7  C   UNL d   1      58.496  -1.980  28.456  0.00  0.00     0.027 C 
ATOM      8  C   UNL d   1      59.462  -2.416  29.389  0.00  0.00     0.027 C 
ENDBRANCH   5   6
ENDBRANCH   3   5
BRANCH   3   9
ATOM      9  O   UNL d   1      59.551  -0.110  29.792  0.00  0.00    -0.265 OA
BRANCH   9  10
ATOM     10  C   UNL d   1      60.108   0.275  29.325  0.00  0.00     0.103 C 
ATOM     11  C   UNL d   1      59.885   0.604  28.615  0.00  0.00     0.027 C 
ATOM     12  C   UNL d   1      60.871   0.328  29.569  0.00  0.00     0.027 C 
ENDBRANCH   9  10
ENDBRANCH   3   9
ENDBRANCH   1   3
BRANCH   1  13
ATOM     13  N   UNL d   1      58.374   0.122  30.648  0.00  0.00    -0.200 NA
ATOM     14  C   UNL d   1      57.691   0.408  31.031  0.00  0.00     0.280 C 
ATOM     15  O   UNL d   1      57.042   0.667  30.589  0.00  0.00    -0.265 OA
BRANCH  14  16
ATOM     16  C   UNL d   1      57.677   0.427  31.875  0.00  0.00     0.062 C 
BRANCH  16  17
ATOM     17  C   UNL d   1      56.976   0.137  32.268  0.00  0.00     0.005 A 
ATOM     18  C   UNL d   1      56.953  -0.665  32.497  0.00  0.00     0.000 A 
ATOM     19  C   UNL d   1      56.281  -0.974  32.882  0.00  0.00     0.000 A 
ATOM     20  C   UNL d   1      55.642  -0.476  33.032  0.00  0.00     0.000 A 
ATOM     21  C   UNL d   1      55.677   0.332  32.796  0.00  0.00     0.000 A 
ATOM     22  C   UNL d   1      56.338   0.636  32.417  0.00  0.00     0.000 A 
ENDBRANCH  16  17
ENDBRANCH  14  16
ENDBRANCH   1  13
TORSDOF 8
ENDMDL
MODEL 2
REMARK VINA RESULT:      -4.0      0.539      1.745
REMARK  8 active torsions:
REMARK  status: ('A' for Active; 'I' for Inactive)
REMARK    1  A    between atoms: C_2  and  P_1 
REMARK    2  A    between atoms: O_5  and  P_1 
REMARK    3  A    between atoms: O_6  and  P_1 
REMARK    4  A    between atoms: N_3  and  C_2 
REMARK       I    between atoms: C_4  and  N_3 
REMARK    5  A    between atoms: C_9  and  C_4 
REMARK    6  A    between atoms: C_12  and  O_5 
REMARK    7  A    between atoms: C_11  and  O_6 
REMARK    8  A    between atoms: C_10  and  C_9 
ROOT
ATOM      1  C   UNL d   1      58.235   0.084  30.140  0.00  0.00     0.165 C 
ATOM      2  C   UNL d   1      57.583   0.305  29.685  0.00  0.00     0.029 C 
ENDROOT
BRANCH   1   3
ATOM      3  P   UNL d   1      58.945  -0.137  29.778  0.00  0.00     0.392 P 
ATOM      4  O   UNL d   1      59.167   0.682  29.734  0.00  0.00    -0.251 OA
BRANCH   3   5
ATOM      5  O   UNL d   1      59.677  -0.353  29.406  0.00  0.00    -0.265 OA
BRANCH   5   6
ATOM      6  C   UNL d   1      60.343   0.126  29.495  0.00  0.00     0.103 C 
ATOM      7  C   UNL d   1      60.713   0.182  30.223  0.00  0.00     0.027 C 
ATOM      8  C   UNL d   1      60.650   0.554  28.862  0.00  0.00     0.027 C 
ENDBRANCH   5   6
ENDBRANCH   3   5
BRANCH   3   9
ATOM      9  O   UNL d   1      58.720  -0.932  29.824  0.00  0.00    -0.265 OA
BRANCH   9  10
ATOM     10  C   UNL d   1      58.783  -1.416  29.162  0.00  0.00     0.103 C 
ATOM     11  C   UNL d   1      59.140  -2.144  29.222  0.00  0.00     0.027 C 
ATOM     12  C   UNL d   1      58.490  -1.171  28.455  0.00  0.00     0.027 C 
ENDBRANCH   9  10
ENDBRANCH   3   9
ENDBRANCH   1   3
BRANCH   1  13
ATOM     13  N   UNL d   1      58.175   0.086  30.961  0.00  0.00    -0.200 NA
ATOM     14  C   UNL d   1      57.464   0.328  31.322  0.00  0.00     0.280 C 
ATOM     15  O   UNL d   1      56.821   0.566  30.861  0.00  0.00    -0.265 OA
BRANCH  14  16
ATOM     16  C   UNL d   1      57.416   0.325  32.166  0.00  0.00     0.062 C 
BRANCH  16  17
ATOM     17  C   UNL d   1      56.701   0.023  32.522  0.00  0.00     0.005 A 
ATOM     18  C   UNL d   1      56.124   0.568  32.780  0.00  0.00     0.000 A 
ATOM     19  C   UNL d   1      55.417   0.301  33.131  0.00  0.00     0.000 A 
ATOM     20  C   UNL d   1      55.297  -0.510  33.219  0.00  0.00     0.000 A 
ATOM     21  C   UNL d   1      55.886  -1.052  32.955  0.00  0.00     0.000 A 
ATOM     22  C   UNL d   1      56.582  -0.787  32.610  0.00  0.00     0.000 A 
ENDBRANCH  16  17
ENDBRANCH  14  16
ENDBRANCH   1  13
TORSDOF 8
ENDMDL
MODEL 3
REMARK VINA RESULT:      -1.6      1.701      4.688
REMARK  8 active torsions:
REMARK  status: ('A' for Active; 'I' for Inactive)
REMARK    1  A    between atoms: C_2  and  P_1 
REMARK    2  A    between atoms: O_5  and  P_1 
REMARK    3  A    between atoms: O_6  and  P_1 
REMARK    4  A    between atoms: N_3  and  C_2 
REMARK       I    between atoms: C_4  and  N_3 
REMARK    5  A    between atoms: C_9  and  C_4 
REMARK    6  A    between atoms: C_12  and  O_5 
REMARK    7  A    between atoms: C_11  and  O_6 
REMARK    8  A    between atoms: C_10  and  C_9 
ROOT
ATOM      1  C   UNL d   1      56.780  -0.332  32.063  0.00  0.00     0.165 C 
ATOM      2  C   UNL d   1      56.533  -1.116  31.996  0.00  0.00     0.029 C 
ENDROOT
BRANCH   1   3
ATOM      3  P   UNL d   1      56.714   0.070  32.782  0.00  0.00     0.392 P 
ATOM      4  O   UNL d   1      57.507  -0.166  32.975  0.00  0.00    -0.251 OA
BRANCH   3   5
ATOM      5  O   UNL d   1      56.658   0.479  33.524  0.00  0.00    -0.265 OA
BRANCH   5   6
ATOM      6  C   UNL d   1      57.334   0.602  33.981  0.00  0.00     0.103 C 
ATOM      7  C   UNL d   1      57.274   0.646  34.796  0.00  0.00     0.027 C 
ATOM      8  C   UNL d   1      58.076   0.682  33.634  0.00  0.00     0.027 C 
ENDBRANCH   5   6
ENDBRANCH   3   5
BRANCH   3   9
ATOM      9  O   UNL d   1      55.943   0.295  32.586  0.00  0.00    -0.265 OA
BRANCH   9  10
ATOM     10  C   UNL d   1      55.318   0.103  33.086  0.00  0.00     0.103 C 
ATOM     11  C   UNL d   1      54.804   0.681  33.336  0.00  0.00     0.027 C 
ATOM     12  C   UNL d   1      55.216  -0.657  33.328  0.00  0.00     0.027 C 
ENDBRANCH   9  10
ENDBRANCH   3   9
ENDBRANCH   1   3
BRANCH   1  13
ATOM     13  N   UNL d   1      57.094   0.052  31.405  0.00  0.00    -0.200 NA
ATOM     14  C   UNL d   1      57.450  -0.396  30.798  0.00  0.00     0.280 C 
ATOM     15  O   UNL d   1      57.490  -1.220  30.854  0.00  0.00    -0.265 OA
BRANCH  14  16
ATOM     16  C   UNL d   1      57.769   0.009  30.129  0.00  0.00     0.062 C 
BRANCH  16  17
ATOM     17  C   UNL d   1      58.417  -0.358  29.713  0.00  0.00     0.005 A 
ATOM     18  C   UNL d   1      59.159   0.024  29.716  0.00  0.00     0.000 A 
ATOM     19  C   UNL d   1      59.810  -0.313  29.318  0.00  0.00     0.000 A 
ATOM     20  C   UNL d   1      59.708  -1.028  28.922  0.00  0.00     0.000 A 
ATOM     21  C   UNL d   1      58.955  -1.406  28.925  0.00  0.00     0.000 A 
ATOM     22  C   UNL d   1      58.315  -1.073  29.317  0.00  0.00     0.000 A 
ENDBRANCH  16  17
ENDBRANCH  14  16
ENDBRANCH   1  13
TORSDOF 8
ENDMDL
