MODEL 1
REMARK VINA RESULT:     117.6      0.000      0.000
REMARK  6 active torsions:
REMARK  status: ('A' for Active; 'I' for Inactive)
REMARK    1  A    between atoms: C_9  and  C_2 
REMARK    2  A    between atoms: C_13  and  C_8 
REMARK       I    between atoms: N_10  and  C_9 
REMARK    3  A    between atoms: C_15  and  N_10 
REMARK    4  A    between atoms: N_14  and  C_12 
REMARK    5  A    between atoms: C_21  and  N_14 
REMARK    6  A    between atoms: C_22  and  N_14 
ROOT
ATOM      1  C   UNL d   1      61.984  43.716  50.319  0.00  0.00     0.180 A 
ATOM      2  C   UNL d   1      61.881  45.015  50.061  0.00  0.00     0.106 A 
ATOM      3  N   UNL d   1      62.421  43.876  49.628  0.00  0.00    -0.283 N 
ATOM      4  S   UNL d   1      61.658  44.426  50.574  0.00  0.00    -0.044 SA
ATOM      5  N   UNL d   1      62.051  42.913  50.475  0.00  0.00    -0.221 NA
ATOM      6  C   UNL d   1      62.355  44.679  49.472  0.00  0.00     0.077 A 
ATOM      7  C   UNL d   1      62.748  43.167  49.373  0.00  0.00     0.101 A 
ATOM      8  C   UNL d   1      62.516  42.575  49.901  0.00  0.00     0.101 A 
ATOM      9  C   UNL d   1      62.708  45.079  48.828  0.00  0.00     0.020 C 
ENDROOT
BRANCH   2  10
ATOM     10  C   UNL d   1      61.664  45.817  50.126  0.00  0.00     0.287 C 
ATOM     11  N   UNL d   1      61.291  46.087  50.811  0.00  0.00    -0.208 NA
ATOM     12  O   UNL d   1      61.825  46.326  49.508  0.00  0.00    -0.265 OA
BRANCH  11  13
ATOM     13  C   UNL d   1      61.080  46.882  50.867  0.00  0.00     0.085 A 
ATOM     14  C   UNL d   1      61.385  47.438  50.329  0.00  0.00     0.021 A 
ATOM     15  C   UNL d   1      61.178  48.229  50.380  0.00  0.00     0.019 A 
ATOM     16  C   UNL d   1      60.657  48.465  50.981  0.00  0.00     0.064 A 
ATOM     17  C   UNL d   1      60.349  47.923  51.520  0.00  0.00     0.019 A 
ATOM     18  C   UNL d   1      60.564  47.135  51.457  0.00  0.00     0.021 A 
BRANCH  16  19
ATOM     19  N   UNL d   1      60.436  49.256  51.051  0.00  0.00    -0.304 N 
BRANCH  19  20
ATOM     20  C   UNL d   1      60.426  49.612  51.790  0.00  0.00     0.080 C 
ATOM     21  C   UNL d   1      61.130  49.706  52.210  0.00  0.00     0.021 C 
ENDBRANCH  19  20
BRANCH  19  22
ATOM     22  C   UNL d   1      60.225  49.693  50.388  0.00  0.00     0.080 C 
ATOM     23  C   UNL d   1      59.444  49.706  50.125  0.00  0.00     0.021 C 
ENDBRANCH  19  22
ENDBRANCH  16  19
ENDBRANCH  11  13
ENDBRANCH   2  10
BRANCH   8  24
ATOM     24  C   UNL d   1      62.698  41.779  49.884  0.00  0.00     0.019 A 
ATOM     25  C   UNL d   1      62.952  41.390  50.562  0.00  0.00     0.002 A 
ATOM     26  C   UNL d   1      63.137  40.586  50.545  0.00  0.00     0.000 A 
ATOM     27  C   UNL d   1      63.067  40.158  49.832  0.00  0.00     0.000 A 
ATOM     28  C   UNL d   1      62.812  40.547  49.153  0.00  0.00     0.000 A 
ATOM     29  C   UNL d   1      62.627  41.355  49.171  0.00  0.00     0.002 A 
ENDBRANCH   8  24
TORSDOF 6
ENDMDL
