MODEL 1
REMARK VINA RESULT:      41.3      0.000      0.000
REMARK  3 active torsions:
REMARK  status: ('A' for Active; 'I' for Inactive)
REMARK    1  A    between atoms: N_4  and  C_1 
REMARK       I    between atoms: C_7  and  N_4 
REMARK    2  A    between atoms: C_10  and  C_7 
REMARK    3  A    between atoms: O_16  and  C_15 
ROOT
ATOM      1  N   UNL d   1      14.223  14.330  -2.473  0.00  0.00    -0.183 NA
ATOM      2  C   UNL d   1      14.643  14.055  -1.815  0.00  0.00     0.281 C 
ATOM      3  O   UNL d   1      14.750  13.233  -1.707  0.00  0.00    -0.265 OA
ENDROOT
BRANCH   1   4
ATOM      4  C   UNL d   1      13.907  13.795  -3.025  0.00  0.00     0.197 A 
ATOM      5  N   UNL d   1      13.567  13.057  -2.844  0.00  0.00    -0.221 NA
ATOM      6  C   UNL d   1      13.325  12.706  -3.556  0.00  0.00     0.092 A 
ATOM      7  C   UNL d   1      12.958  11.985  -3.716  0.00  0.00     0.039 A 
ATOM      8  C   UNL d   1      13.514  13.226  -4.179  0.00  0.00     0.068 A 
ATOM      9  C   UNL d   1      12.778  11.780  -4.506  0.00  0.00     0.082 A 
ATOM     10  N   UNL d   1      12.967  12.296  -5.117  0.00  0.00    -0.301 N 
ATOM     11  C   UNL d   1      13.334  13.016  -4.953  0.00  0.00     0.088 A 
ATOM     12  C   UNL d   1      12.786  12.087  -5.905  0.00  0.00     0.100 C 
ATOM     13  S   UNL d   1      13.873  13.894  -3.845  0.00  0.00    -0.045 SA
ENDBRANCH   1   4
BRANCH   2  14
ATOM     14  C   UNL d   1      14.957  14.587  -1.267  0.00  0.00     0.060 A 
ATOM     15  C   UNL d   1      14.967  15.392  -1.434  0.00  0.00     0.029 A 
ATOM     16  C   UNL d   1      15.278  15.917  -0.889  0.00  0.00     0.094 A 
ATOM     17  C   UNL d   1      15.582  15.642  -0.175  0.00  0.00     0.024 A 
ATOM     18  C   UNL d   1      15.568  14.832  -0.014  0.00  0.00     0.002 A 
ATOM     19  C   UNL d   1      15.257  14.307  -0.559  0.00  0.00     0.005 A 
BRANCH  16  20
ATOM     20  O   UNL d   1      15.292  16.744  -1.054  0.00  0.00    -0.328 OA
ATOM     21  C   UNL d   1      14.931  17.043  -1.734  0.00  0.00     0.181 C 
ENDBRANCH  16  20
ENDBRANCH   2  14
TORSDOF 3
ENDMDL
MODEL 2
REMARK VINA RESULT:      43.1      1.420      4.803
REMARK  3 active torsions:
REMARK  status: ('A' for Active; 'I' for Inactive)
REMARK    1  A    between atoms: N_4  and  C_1 
REMARK       I    between atoms: C_7  and  N_4 
REMARK    2  A    between atoms: C_10  and  C_7 
REMARK    3  A    between atoms: O_16  and  C_15 
ROOT
ATOM      1  N   UNL d   1      14.328  13.359  -2.546  0.00  0.00    -0.183 NA
ATOM      2  C   UNL d   1      13.783  13.540  -3.143  0.00  0.00     0.281 C 
ATOM      3  O   UNL d   1      13.495  14.321  -3.217  0.00  0.00    -0.265 OA
ENDROOT
BRANCH   1   4
ATOM      4  C   UNL d   1      14.589  13.948  -2.022  0.00  0.00     0.197 A 
ATOM      5  N   UNL d   1      14.872  13.818  -1.250  0.00  0.00    -0.221 NA
ATOM      6  C   UNL d   1      15.072  14.555  -0.924  0.00  0.00     0.092 A 
ATOM      7  C   UNL d   1      15.376  14.765  -0.187  0.00  0.00     0.039 A 
ATOM      8  C   UNL d   1      14.912  15.142  -1.494  0.00  0.00     0.068 A 
ATOM      9  C   UNL d   1      15.523  15.570  -0.015  0.00  0.00     0.082 A 
ATOM     10  N   UNL d   1      15.364  16.146  -0.581  0.00  0.00    -0.301 N 
ATOM     11  C   UNL d   1      15.060  15.931  -1.316  0.00  0.00     0.088 A 
ATOM     12  C   UNL d   1      15.513  16.948  -0.406  0.00  0.00     0.100 C 
ATOM     13  S   UNL d   1      14.615  14.761  -2.167  0.00  0.00    -0.045 SA
ENDBRANCH   1   4
BRANCH   2  14
ATOM     14  C   UNL d   1      13.524  12.953  -3.664  0.00  0.00     0.060 A 
ATOM     15  C   UNL d   1      13.764  12.966  -4.450  0.00  0.00     0.029 A 
ATOM     16  C   UNL d   1      13.506  12.384  -4.964  0.00  0.00     0.094 A 
ATOM     17  C   UNL d   1      13.007  11.786  -4.697  0.00  0.00     0.024 A 
ATOM     18  C   UNL d   1      12.770  11.780  -3.906  0.00  0.00     0.002 A 
ATOM     19  C   UNL d   1      13.028  12.362  -3.392  0.00  0.00     0.005 A 
BRANCH  16  20
ATOM     20  O   UNL d   1      13.748  12.391  -5.772  0.00  0.00    -0.328 OA
ATOM     21  C   UNL d   1      13.409  11.871  -6.316  0.00  0.00     0.181 C 
ENDBRANCH  16  20
ENDBRANCH   2  14
TORSDOF 3
ENDMDL
