MODEL 1
REMARK VINA RESULT:      30.6      0.000      0.000
REMARK  4 active torsions:
REMARK  status: ('A' for Active; 'I' for Inactive)
REMARK    1  A    between atoms: C_9  and  N_2 
REMARK    2  A    between atoms: C_7  and  O_10 
REMARK    3  A    between atoms: C_11  and  C_9 
REMARK    4  A    between atoms: O_10  and  C_11 
ROOT
ATOM      1  C   UNL d   1     -58.295 -98.787 -44.935  0.00  0.00     0.296 A 
ATOM      2  N   UNL d   1     -57.838 -98.771 -44.252  0.00  0.00    -0.266 N 
ATOM      3  S   UNL d   1     -59.100 -98.795 -44.703  0.00  0.00    -0.025 SA
ATOM      4  C   UNL d   1     -58.350 -98.770 -43.599  0.00  0.00     0.074 A 
ATOM      5  C   UNL d   1     -59.123 -98.785 -43.875  0.00  0.00     0.050 A 
ATOM      6  O   UNL d   1     -58.018 -98.793 -45.708  0.00  0.00    -0.259 OA
ATOM      7  C   UNL d   1     -58.197 -98.757 -42.786  0.00  0.00     0.018 A 
ATOM      8  C   UNL d   1     -59.761 -98.787 -43.345  0.00  0.00     0.008 A 
ATOM      9  C   UNL d   1     -58.831 -98.759 -42.255  0.00  0.00     0.002 A 
ATOM     10  C   UNL d   1     -59.604 -98.774 -42.531  0.00  0.00     0.001 A 
ENDROOT
BRANCH   2  11
ATOM     11  C   UNL d   1     -57.014 -98.758 -44.219  0.00  0.00     0.110 C 
BRANCH  11  12
ATOM     12  C   UNL d   1     -56.578 -99.406 -44.479  0.00  0.00     0.142 C 
BRANCH  12  13
ATOM     13  O   UNL d   1     -56.117 -99.848 -43.953  0.00  0.00    -0.304 OA
BRANCH  13  14
ATOM     14  C   UNL d   1     -55.754-100.546 -44.202  0.00  0.00     0.100 A 
ATOM     15  C   UNL d   1     -55.073-100.512 -44.668  0.00  0.00     0.023 A 
ATOM     16  C   UNL d   1     -54.756 -99.780 -44.883  0.00  0.00     0.002 C 
ATOM     17  C   UNL d   1     -54.714-101.206 -44.915  0.00  0.00     0.002 A 
ATOM     18  C   UNL d   1     -55.034-101.934 -44.697  0.00  0.00     0.000 A 
ATOM     19  C   UNL d   1     -55.717-101.964 -44.230  0.00  0.00     0.002 A 
ATOM     20  C   UNL d   1     -56.072-101.264 -43.986  0.00  0.00     0.025 A 
ENDBRANCH  13  14
ENDBRANCH  12  13
ENDBRANCH  11  12
ENDBRANCH   2  11
TORSDOF 4
ENDMDL
