MODEL 1
REMARK VINA RESULT:      -7.4      0.000      0.000
REMARK  3 active torsions:
REMARK  status: ('A' for Active; 'I' for Inactive)
REMARK    1  A    between atoms: C_6  and  C_2 
REMARK    2  A    between atoms: O_7  and  C_6 
REMARK    3  A    between atoms: C_8  and  O_7 
ROOT
ATOM      1  N   UNL d   1      52.839  34.371  54.010  0.00  0.00    -0.224 NA
ATOM      2  C   UNL d   1      52.396  33.820  53.575  0.00  0.00     0.188 A 
ATOM      3  N   UNL d   1      52.755  33.083  53.702  0.00  0.00    -0.224 NA
ATOM      4  C   UNL d   1      53.445  33.984  54.388  0.00  0.00     0.101 A 
ATOM      5  C   UNL d   1      53.393  33.181  54.196  0.00  0.00     0.101 A 
ATOM      6  C   UNL d   1      54.051  34.226  54.884  0.00  0.00     0.021 A 
ATOM      7  C   UNL d   1      53.948  32.642  54.506  0.00  0.00     0.021 A 
ATOM      8  C   UNL d   1      54.527  32.918  54.990  0.00  0.00     0.002 A 
ATOM      9  C   UNL d   1      54.579  33.721  55.182  0.00  0.00     0.002 A 
ENDROOT
BRANCH   2  10
ATOM     10  C   UNL d   1      51.788  34.178  53.191  0.00  0.00     0.161 C 
BRANCH  10  11
ATOM     11  O   UNL d   1      51.110  33.739  52.969  0.00  0.00    -0.302 OA
BRANCH  11  12
ATOM     12  C   UNL d   1      50.463  34.111  52.598  0.00  0.00     0.100 A 
ATOM     13  C   UNL d   1      49.935  34.550  53.044  0.00  0.00     0.025 A 
ATOM     14  C   UNL d   1      49.286  34.928  52.702  0.00  0.00     0.002 A 
ATOM     15  C   UNL d   1      49.192  34.842  51.887  0.00  0.00     0.000 A 
ATOM     16  C   UNL d   1      49.720  34.401  51.436  0.00  0.00     0.002 A 
ATOM     17  C   UNL d   1      48.545  35.213  51.517  0.00  0.00     0.000 C 
ATOM     18  C   UNL d   1      50.365  34.027  51.782  0.00  0.00     0.025 A 
ENDBRANCH  11  12
ENDBRANCH  10  11
ENDBRANCH   2  10
TORSDOF 3
ENDMDL
MODEL 2
REMARK VINA RESULT:      -7.3      2.450      3.646
REMARK  3 active torsions:
REMARK  status: ('A' for Active; 'I' for Inactive)
REMARK    1  A    between atoms: C_6  and  C_2 
REMARK    2  A    between atoms: O_7  and  C_6 
REMARK    3  A    between atoms: C_8  and  O_7 
ROOT
ATOM      1  N   UNL d   1      53.499  31.368  53.886  0.00  0.00    -0.224 NA
ATOM      2  C   UNL d   1      53.125  31.828  53.305  0.00  0.00     0.188 A 
ATOM      3  N   UNL d   1      52.729  31.296  52.807  0.00  0.00    -0.224 NA
ATOM      4  C   UNL d   1      53.336  30.584  53.746  0.00  0.00     0.101 A 
ATOM      5  C   UNL d   1      52.856  30.539  53.074  0.00  0.00     0.101 A 
ATOM      6  C   UNL d   1      53.546  29.886  54.121  0.00  0.00     0.021 A 
ATOM      7  C   UNL d   1      52.598  29.797  52.795  0.00  0.00     0.021 A 
ATOM      8  C   UNL d   1      52.825  29.135  53.190  0.00  0.00     0.002 A 
ATOM      9  C   UNL d   1      53.305  29.180  53.862  0.00  0.00     0.002 A 
ENDROOT
BRANCH   2  10
ATOM     10  C   UNL d   1      53.270  32.610  53.420  0.00  0.00     0.161 C 
BRANCH  10  11
ATOM     11  O   UNL d   1      52.640  33.138  53.586  0.00  0.00    -0.302 OA
BRANCH  11  12
ATOM     12  C   UNL d   1      52.791  33.921  53.829  0.00  0.00     0.100 A 
ATOM     13  C   UNL d   1      53.043  34.068  54.594  0.00  0.00     0.025 A 
ATOM     14  C   UNL d   1      53.199  34.833  54.861  0.00  0.00     0.002 A 
ATOM     15  C   UNL d   1      53.090  35.445  54.319  0.00  0.00     0.000 A 
ATOM     16  C   UNL d   1      52.838  35.301  53.550  0.00  0.00     0.002 A 
ATOM     17  C   UNL d   1      53.241  36.228  54.562  0.00  0.00     0.000 C 
ATOM     18  C   UNL d   1      52.683  34.537  53.290  0.00  0.00     0.025 A 
ENDBRANCH  11  12
ENDBRANCH  10  11
ENDBRANCH   2  10
TORSDOF 3
ENDMDL
MODEL 3
REMARK VINA RESULT:      -7.1      1.036      4.700
REMARK  3 active torsions:
REMARK  status: ('A' for Active; 'I' for Inactive)
REMARK    1  A    between atoms: C_6  and  C_2 
REMARK    2  A    between atoms: O_7  and  C_6 
REMARK    3  A    between atoms: C_8  and  O_7 
ROOT
ATOM      1  N   UNL d   1      50.410  34.480  53.109  0.00  0.00    -0.224 NA
ATOM      2  C   UNL d   1      51.080  34.122  52.774  0.00  0.00     0.188 A 
ATOM      3  N   UNL d   1      50.905  34.009  51.971  0.00  0.00    -0.224 NA
ATOM      4  C   UNL d   1      49.848  34.581  52.532  0.00  0.00     0.101 A 
ATOM      5  C   UNL d   1      50.156  34.287  51.822  0.00  0.00     0.101 A 
ATOM      6  C   UNL d   1      49.091  34.896  52.525  0.00  0.00     0.021 A 
ATOM      7  C   UNL d   1      49.700  34.317  51.125  0.00  0.00     0.021 A 
ATOM      8  C   UNL d   1      48.962  34.633  51.160  0.00  0.00     0.002 A 
ATOM      9  C   UNL d   1      48.653  34.927  51.869  0.00  0.00     0.002 A 
ENDROOT
BRANCH   2  10
ATOM     10  C   UNL d   1      51.653  34.010  53.326  0.00  0.00     0.161 C 
BRANCH  10  11
ATOM     11  O   UNL d   1      52.439  33.836  53.092  0.00  0.00    -0.302 OA
BRANCH  11  12
ATOM     12  C   UNL d   1      53.037  33.716  53.659  0.00  0.00     0.100 A 
ATOM     13  C   UNL d   1      53.383  32.977  53.736  0.00  0.00     0.025 A 
ATOM     14  C   UNL d   1      53.978  32.831  54.290  0.00  0.00     0.002 A 
ATOM     15  C   UNL d   1      54.209  33.465  54.764  0.00  0.00     0.000 A 
ATOM     16  C   UNL d   1      53.864  34.208  54.689  0.00  0.00     0.002 A 
ATOM     17  C   UNL d   1      54.807  33.344  55.330  0.00  0.00     0.000 C 
ATOM     18  C   UNL d   1      53.272  34.347  54.136  0.00  0.00     0.025 A 
ENDBRANCH  11  12
ENDBRANCH  10  11
ENDBRANCH   2  10
TORSDOF 3
ENDMDL
MODEL 4
REMARK VINA RESULT:      -7.0      2.050      4.677
REMARK  3 active torsions:
REMARK  status: ('A' for Active; 'I' for Inactive)
REMARK    1  A    between atoms: C_6  and  C_2 
REMARK    2  A    between atoms: O_7  and  C_6 
REMARK    3  A    between atoms: C_8  and  O_7 
ROOT
ATOM      1  N   UNL d   1      51.519  33.262  53.414  0.00  0.00    -0.224 NA
ATOM      2  C   UNL d   1      52.041  32.975  52.836  0.00  0.00     0.188 A 
ATOM      3  N   UNL d   1      51.814  33.331  52.122  0.00  0.00    -0.224 NA
ATOM      4  C   UNL d   1      50.993  33.773  53.065  0.00  0.00     0.101 A 
ATOM      5  C   UNL d   1      51.177  33.816  52.260  0.00  0.00     0.101 A 
ATOM      6  C   UNL d   1      50.364  34.218  53.343  0.00  0.00     0.021 A 
ATOM      7  C   UNL d   1      50.727  34.303  51.755  0.00  0.00     0.021 A 
ATOM      8  C   UNL d   1      50.117  34.725  52.066  0.00  0.00     0.002 A 
ATOM      9  C   UNL d   1      49.934  34.682  52.872  0.00  0.00     0.002 A 
ENDROOT
BRANCH   2  10
ATOM     10  C   UNL d   1      52.573  32.465  53.156  0.00  0.00     0.161 C 
BRANCH  10  11
ATOM     11  O   UNL d   1      52.819  31.786  52.731  0.00  0.00    -0.302 OA
BRANCH  11  12
ATOM     12  C   UNL d   1      53.007  31.078  53.128  0.00  0.00     0.100 A 
ATOM     13  C   UNL d   1      52.588  30.394  52.962  0.00  0.00     0.025 A 
ATOM     14  C   UNL d   1      52.755  29.680  53.341  0.00  0.00     0.002 A 
ATOM     15  C   UNL d   1      53.365  29.686  53.896  0.00  0.00     0.000 A 
ATOM     16  C   UNL d   1      53.787  30.371  54.065  0.00  0.00     0.002 A 
ATOM     17  C   UNL d   1      53.553  28.979  54.293  0.00  0.00     0.000 C 
ATOM     18  C   UNL d   1      53.617  31.080  53.685  0.00  0.00     0.025 A 
ENDBRANCH  11  12
ENDBRANCH  10  11
ENDBRANCH   2  10
TORSDOF 3
ENDMDL
MODEL 5
REMARK VINA RESULT:      -6.9      2.304      4.445
REMARK  3 active torsions:
REMARK  status: ('A' for Active; 'I' for Inactive)
REMARK    1  A    between atoms: C_6  and  C_2 
REMARK    2  A    between atoms: O_7  and  C_6 
REMARK    3  A    between atoms: C_8  and  O_7 
ROOT
ATOM      1  N   UNL d   1      53.517  33.271  54.389  0.00  0.00    -0.224 NA
ATOM      2  C   UNL d   1      53.305  32.777  53.758  0.00  0.00     0.188 A 
ATOM      3  N   UNL d   1      52.913  33.258  53.208  0.00  0.00    -0.224 NA
ATOM      4  C   UNL d   1      53.263  34.026  54.230  0.00  0.00     0.101 A 
ATOM      5  C   UNL d   1      52.887  34.018  53.494  0.00  0.00     0.101 A 
ATOM      6  C   UNL d   1      53.310  34.738  54.635  0.00  0.00     0.021 A 
ATOM      7  C   UNL d   1      52.566  34.722  53.182  0.00  0.00     0.021 A 
ATOM      8  C   UNL d   1      52.632  35.399  53.610  0.00  0.00     0.002 A 
ATOM      9  C   UNL d   1      53.009  35.407  54.346  0.00  0.00     0.002 A 
ENDROOT
BRANCH   2  10
ATOM     10  C   UNL d   1      53.545  32.021  53.890  0.00  0.00     0.161 C 
BRANCH  10  11
ATOM     11  O   UNL d   1      53.274  31.398  53.400  0.00  0.00    -0.302 OA
BRANCH  11  12
ATOM     12  C   UNL d   1      53.274  30.610  53.670  0.00  0.00     0.100 A 
ATOM     13  C   UNL d   1      53.682  30.413  54.352  0.00  0.00     0.025 A 
ATOM     14  C   UNL d   1      53.698  29.640  54.641  0.00  0.00     0.002 A 
ATOM     15  C   UNL d   1      53.283  29.073  54.211  0.00  0.00     0.000 A 
ATOM     16  C   UNL d   1      52.872  29.267  53.525  0.00  0.00     0.002 A 
ATOM     17  C   UNL d   1      53.283  28.285  54.481  0.00  0.00     0.000 C 
ATOM     18  C   UNL d   1      52.860  30.038  53.242  0.00  0.00     0.025 A 
ENDBRANCH  11  12
ENDBRANCH  10  11
ENDBRANCH   2  10
TORSDOF 3
ENDMDL
MODEL 6
REMARK VINA RESULT:      -6.9      1.468      4.845
REMARK  3 active torsions:
REMARK  status: ('A' for Active; 'I' for Inactive)
REMARK    1  A    between atoms: C_6  and  C_2 
REMARK    2  A    between atoms: O_7  and  C_6 
REMARK    3  A    between atoms: C_8  and  O_7 
ROOT
ATOM      1  N   UNL d   1      49.536  34.997  53.011  0.00  0.00    -0.224 NA
ATOM      2  C   UNL d   1      49.982  34.495  52.524  0.00  0.00     0.188 A 
ATOM      3  N   UNL d   1      49.563  34.431  51.811  0.00  0.00    -0.224 NA
ATOM      4  C   UNL d   1      48.870  35.231  52.609  0.00  0.00     0.101 A 
ATOM      5  C   UNL d   1      48.886  34.878  51.862  0.00  0.00     0.101 A 
ATOM      6  C   UNL d   1      48.235  35.714  52.796  0.00  0.00     0.021 A 
ATOM      7  C   UNL d   1      48.268  35.018  51.320  0.00  0.00     0.021 A 
ATOM      8  C   UNL d   1      47.662  35.499  51.542  0.00  0.00     0.002 A 
ATOM      9  C   UNL d   1      47.646  35.851  52.290  0.00  0.00     0.002 A 
ENDROOT
BRANCH   2  10
ATOM     10  C   UNL d   1      50.649  34.248  52.898  0.00  0.00     0.161 C 
BRANCH  10  11
ATOM     11  O   UNL d   1      51.322  34.014  52.456  0.00  0.00    -0.302 OA
BRANCH  11  12
ATOM     12  C   UNL d   1      52.006  33.730  52.837  0.00  0.00     0.100 A 
ATOM     13  C   UNL d   1      52.151  32.925  52.869  0.00  0.00     0.025 A 
ATOM     14  C   UNL d   1      52.821  32.618  53.240  0.00  0.00     0.002 A 
ATOM     15  C   UNL d   1      53.341  33.161  53.578  0.00  0.00     0.000 A 
ATOM     16  C   UNL d   1      53.199  33.971  53.548  0.00  0.00     0.002 A 
ATOM     17  C   UNL d   1      54.025  32.878  53.959  0.00  0.00     0.000 C 
ATOM     18  C   UNL d   1      52.530  34.271  53.178  0.00  0.00     0.025 A 
ENDBRANCH  11  12
ENDBRANCH  10  11
ENDBRANCH   2  10
TORSDOF 3
ENDMDL
MODEL 7
REMARK VINA RESULT:      -6.7      1.942      2.568
REMARK  3 active torsions:
REMARK  status: ('A' for Active; 'I' for Inactive)
REMARK    1  A    between atoms: C_6  and  C_2 
REMARK    2  A    between atoms: O_7  and  C_6 
REMARK    3  A    between atoms: C_8  and  O_7 
ROOT
ATOM      1  N   UNL d   1      52.506  31.241  52.715  0.00  0.00    -0.224 NA
ATOM      2  C   UNL d   1      52.792  31.945  53.047  0.00  0.00     0.188 A 
ATOM      3  N   UNL d   1      53.315  31.721  53.650  0.00  0.00    -0.224 NA
ATOM      4  C   UNL d   1      52.841  30.611  53.102  0.00  0.00     0.101 A 
ATOM      5  C   UNL d   1      53.345  30.910  53.685  0.00  0.00     0.101 A 
ATOM      6  C   UNL d   1      52.776  29.797  53.026  0.00  0.00     0.021 A 
ATOM      7  C   UNL d   1      53.771  30.388  54.177  0.00  0.00     0.021 A 
ATOM      8  C   UNL d   1      53.679  29.596  54.071  0.00  0.00     0.002 A 
ATOM      9  C   UNL d   1      53.175  29.297  53.487  0.00  0.00     0.002 A 
ENDROOT
BRANCH   2  10
ATOM     10  C   UNL d   1      52.475  32.586  52.680  0.00  0.00     0.161 C 
BRANCH  10  11
ATOM     11  O   UNL d   1      52.188  33.233  53.129  0.00  0.00    -0.302 OA
BRANCH  11  12
ATOM     12  C   UNL d   1      51.513  33.656  52.887  0.00  0.00     0.100 A 
ATOM     13  C   UNL d   1      50.865  33.710  53.385  0.00  0.00     0.025 A 
ATOM     14  C   UNL d   1      50.184  34.123  53.169  0.00  0.00     0.002 A 
ATOM     15  C   UNL d   1      50.185  34.481  52.426  0.00  0.00     0.000 A 
ATOM     16  C   UNL d   1      50.834  34.429  51.924  0.00  0.00     0.002 A 
ATOM     17  C   UNL d   1      49.510  34.904  52.183  0.00  0.00     0.000 C 
ATOM     18  C   UNL d   1      51.510  34.016  52.144  0.00  0.00     0.025 A 
ENDBRANCH  11  12
ENDBRANCH  10  11
ENDBRANCH   2  10
TORSDOF 3
ENDMDL
MODEL 8
REMARK VINA RESULT:      -6.4      1.590      2.579
REMARK  3 active torsions:
REMARK  status: ('A' for Active; 'I' for Inactive)
REMARK    1  A    between atoms: C_6  and  C_2 
REMARK    2  A    between atoms: O_7  and  C_6 
REMARK    3  A    between atoms: C_8  and  O_7 
ROOT
ATOM      1  N   UNL d   1      50.536  33.772  52.937  0.00  0.00    -0.224 NA
ATOM      2  C   UNL d   1      50.400  34.590  52.970  0.00  0.00     0.188 A 
ATOM      3  N   UNL d   1      51.137  34.942  53.112  0.00  0.00    -0.224 NA
ATOM      4  C   UNL d   1      51.327  33.631  53.053  0.00  0.00     0.101 A 
ATOM      5  C   UNL d   1      51.702  34.360  53.162  0.00  0.00     0.101 A 
ATOM      6  C   UNL d   1      51.785  32.952  53.080  0.00  0.00     0.021 A 
ATOM      7  C   UNL d   1      52.525  34.390  53.296  0.00  0.00     0.021 A 
ATOM      8  C   UNL d   1      52.938  33.701  53.315  0.00  0.00     0.002 A 
ATOM      9  C   UNL d   1      52.564  32.972  53.205  0.00  0.00     0.002 A 
ENDROOT
BRANCH   2  10
ATOM     10  C   UNL d   1      49.622  34.757  52.858  0.00  0.00     0.161 C 
BRANCH  10  11
ATOM     11  O   UNL d   1      49.326  35.525  53.016  0.00  0.00    -0.302 OA
BRANCH  11  12
ATOM     12  C   UNL d   1      48.532  35.719  52.855  0.00  0.00     0.100 A 
ATOM     13  C   UNL d   1      48.064  36.040  53.446  0.00  0.00     0.025 A 
ATOM     14  C   UNL d   1      47.274  36.241  53.313  0.00  0.00     0.002 A 
ATOM     15  C   UNL d   1      46.977  36.104  52.557  0.00  0.00     0.000 A 
ATOM     16  C   UNL d   1      47.444  35.782  51.961  0.00  0.00     0.002 A 
ATOM     17  C   UNL d   1      46.183  36.298  52.396  0.00  0.00     0.000 C 
ATOM     18  C   UNL d   1      48.230  35.583  52.099  0.00  0.00     0.025 A 
ENDBRANCH  11  12
ENDBRANCH  10  11
ENDBRANCH   2  10
TORSDOF 3
ENDMDL
MODEL 9
REMARK VINA RESULT:      -5.5     10.326     11.003
REMARK  3 active torsions:
REMARK  status: ('A' for Active; 'I' for Inactive)
REMARK    1  A    between atoms: C_6  and  C_2 
REMARK    2  A    between atoms: O_7  and  C_6 
REMARK    3  A    between atoms: C_8  and  O_7 
ROOT
ATOM      1  N   UNL d   1      44.329  30.258  61.588  0.00  0.00    -0.224 NA
ATOM      2  C   UNL d   1      44.332  30.825  60.982  0.00  0.00     0.188 A 
ATOM      3  N   UNL d   1      44.329  31.565  61.358  0.00  0.00    -0.224 NA
ATOM      4  C   UNL d   1      44.324  30.638  62.306  0.00  0.00     0.101 A 
ATOM      5  C   UNL d   1      44.324  31.452  62.162  0.00  0.00     0.101 A 
ATOM      6  C   UNL d   1      44.319  30.381  63.084  0.00  0.00     0.021 A 
ATOM      7  C   UNL d   1      44.319  31.988  62.801  0.00  0.00     0.021 A 
ATOM      8  C   UNL d   1      44.314  31.697  63.550  0.00  0.00     0.002 A 
ATOM      9  C   UNL d   1      44.314  30.882  63.693  0.00  0.00     0.002 A 
ENDROOT
BRANCH   2  10
ATOM     10  C   UNL d   1      44.338  30.475  60.259  0.00  0.00     0.161 C 
BRANCH  10  11
ATOM     11  O   UNL d   1      44.940  30.655  59.705  0.00  0.00    -0.302 OA
BRANCH  11  12
ATOM     12  C   UNL d   1      44.883  30.401  58.913  0.00  0.00     0.100 A 
ATOM     13  C   UNL d   1      45.057  29.624  58.721  0.00  0.00     0.025 A 
ATOM     14  C   UNL d   1      45.009  29.347  57.945  0.00  0.00     0.002 A 
ATOM     15  C   UNL d   1      44.775  29.890  57.370  0.00  0.00     0.000 A 
ATOM     16  C   UNL d   1      44.599  30.670  57.560  0.00  0.00     0.002 A 
ATOM     17  C   UNL d   1      44.718  29.636  56.579  0.00  0.00     0.000 C 
ATOM     18  C   UNL d   1      44.649  30.941  58.334  0.00  0.00     0.025 A 
ENDBRANCH  11  12
ENDBRANCH  10  11
ENDBRANCH   2  10
TORSDOF 3
ENDMDL
