MODEL 1
REMARK VINA RESULT:      -3.5      0.000      0.000
REMARK  4 active torsions:
REMARK  status: ('A' for Active; 'I' for Inactive)
REMARK       I    between atoms: N_3  and  C_1 
REMARK    1  A    between atoms: C_13  and  C_1 
REMARK    2  A    between atoms: C_2  and  N_5 
REMARK    3  A    between atoms: C_14  and  N_3 
REMARK    4  A    between atoms: C_4  and  C_14 
REMARK       I    between atoms: N_5  and  C_4 
ROOT
ATOM      1  C   UNL d   1      32.933  18.802 -23.021  0.00  0.00     0.299 C 
ATOM      2  N   UNL d   1      32.538  18.081 -22.972  0.00  0.00    -0.207 NA
ATOM      3  O   UNL d   1      33.141  19.120 -23.754  0.00  0.00    -0.263 OA
ENDROOT
BRANCH   1   4
ATOM      4  C   UNL d   1      33.123  19.211 -22.330  0.00  0.00     0.165 C 
BRANCH   4   5
ATOM      5  N   UNL d   1      32.948  20.018 -22.269  0.00  0.00    -0.201 NA
ATOM      6  C   UNL d   1      32.993  20.381 -21.527  0.00  0.00     0.279 C 
ATOM      7  O   UNL d   1      33.209  19.944 -20.862  0.00  0.00    -0.265 OA
BRANCH   6   8
ATOM      8  C   UNL d   1      32.820  21.191 -21.455  0.00  0.00     0.058 A 
ATOM      9  C   UNL d   1      33.223  21.743 -21.915  0.00  0.00     0.005 A 
ATOM     10  C   UNL d   1      33.047  22.536 -21.838  0.00  0.00     0.000 A 
ATOM     11  C   UNL d   1      32.470  22.786 -21.304  0.00  0.00     0.000 A 
ATOM     12  C   UNL d   1      32.069  22.242 -20.847  0.00  0.00     0.000 A 
ATOM     13  C   UNL d   1      32.243  21.440 -20.921  0.00  0.00     0.005 A 
ENDBRANCH   6   8
ENDBRANCH   4   5
ENDBRANCH   1   4
BRANCH   2  14
ATOM     14  C   UNL d   1      32.349  17.674 -23.667  0.00  0.00     0.086 A 
ATOM     15  C   UNL d   1      32.885  17.133 -23.985  0.00  0.00     0.031 A 
ATOM     16  C   UNL d   1      32.686  16.734 -24.679  0.00  0.00     0.060 A 
ATOM     17 CL   UNL d   1      33.234  16.228 -24.939  0.00  0.00    -0.082 Cl
ATOM     18  C   UNL d   1      31.964  16.868 -25.052  0.00  0.00     0.023 A 
ATOM     19  C   UNL d   1      31.431  17.414 -24.725  0.00  0.00     0.060 A 
ATOM     20  C   UNL d   1      31.623  17.818 -24.032  0.00  0.00     0.031 A 
ATOM     21 CL   UNL d   1      30.704  17.554 -25.096  0.00  0.00    -0.082 Cl
ENDBRANCH   2  14
TORSDOF 4
ENDMDL
MODEL 2
REMARK VINA RESULT:      -3.4      0.073      1.083
REMARK  4 active torsions:
REMARK  status: ('A' for Active; 'I' for Inactive)
REMARK       I    between atoms: N_3  and  C_1 
REMARK    1  A    between atoms: C_13  and  C_1 
REMARK    2  A    between atoms: C_2  and  N_5 
REMARK    3  A    between atoms: C_14  and  N_3 
REMARK    4  A    between atoms: C_4  and  C_14 
REMARK       I    between atoms: N_5  and  C_4 
ROOT
ATOM      1  C   UNL d   1      32.997  18.857 -23.037  0.00  0.00     0.299 C 
ATOM      2  N   UNL d   1      32.604  18.136 -22.970  0.00  0.00    -0.207 NA
ATOM      3  O   UNL d   1      33.177  19.171 -23.778  0.00  0.00    -0.263 OA
ENDROOT
BRANCH   1   4
ATOM      4  C   UNL d   1      33.212  19.269 -22.356  0.00  0.00     0.165 C 
BRANCH   4   5
ATOM      5  N   UNL d   1      33.017  20.070 -22.280  0.00  0.00    -0.201 NA
ATOM      6  C   UNL d   1      33.034  20.416 -21.529  0.00  0.00     0.279 C 
ATOM      7  O   UNL d   1      33.241  19.967 -20.869  0.00  0.00    -0.265 OA
BRANCH   6   8
ATOM      8  C   UNL d   1      32.840  21.219 -21.443  0.00  0.00     0.058 A 
ATOM      9  C   UNL d   1      33.182  21.782 -21.937  0.00  0.00     0.005 A 
ATOM     10  C   UNL d   1      32.987  22.569 -21.845  0.00  0.00     0.000 A 
ATOM     11  C   UNL d   1      32.450  22.801 -21.263  0.00  0.00     0.000 A 
ATOM     12  C   UNL d   1      32.109  22.246 -20.772  0.00  0.00     0.000 A 
ATOM     13  C   UNL d   1      32.303  21.451 -20.860  0.00  0.00     0.005 A 
ENDBRANCH   6   8
ENDBRANCH   4   5
ENDBRANCH   1   4
BRANCH   2  14
ATOM     14  C   UNL d   1      32.390  17.726 -23.656  0.00  0.00     0.086 A 
ATOM     15  C   UNL d   1      31.653  17.859 -24.002  0.00  0.00     0.031 A 
ATOM     16  C   UNL d   1      31.451  17.445 -24.685  0.00  0.00     0.060 A 
ATOM     17 CL   UNL d   1      30.735  17.611 -24.975  0.00  0.00    -0.082 Cl
ATOM     18  C   UNL d   1      31.972  16.903 -25.022  0.00  0.00     0.023 A 
ATOM     19  C   UNL d   1      32.712  16.775 -24.668  0.00  0.00     0.060 A 
ATOM     20  C   UNL d   1      32.922  17.186 -23.984  0.00  0.00     0.031 A 
ATOM     21 CL   UNL d   1      33.241  16.232 -25.001  0.00  0.00    -0.082 Cl
ENDBRANCH   2  14
TORSDOF 4
ENDMDL
MODEL 3
REMARK VINA RESULT:      -3.1      2.687      5.313
REMARK  4 active torsions:
REMARK  status: ('A' for Active; 'I' for Inactive)
REMARK       I    between atoms: N_3  and  C_1 
REMARK    1  A    between atoms: C_13  and  C_1 
REMARK    2  A    between atoms: C_2  and  N_5 
REMARK    3  A    between atoms: C_14  and  N_3 
REMARK    4  A    between atoms: C_4  and  C_14 
REMARK       I    between atoms: N_5  and  C_4 
ROOT
ATOM      1  C   UNL d   1      32.998  20.904 -21.570  0.00  0.00     0.299 C 
ATOM      2  N   UNL d   1      32.764  21.105 -20.806  0.00  0.00    -0.207 NA
ATOM      3  O   UNL d   1      33.116  21.487 -22.141  0.00  0.00    -0.263 OA
ENDROOT
BRANCH   1   4
ATOM      4  C   UNL d   1      33.115  20.111 -21.765  0.00  0.00     0.165 C 
BRANCH   4   5
ATOM      5  N   UNL d   1      32.931  19.843 -22.527  0.00  0.00    -0.201 NA
ATOM      6  C   UNL d   1      32.996  19.036 -22.693  0.00  0.00     0.279 C 
ATOM      7  O   UNL d   1      33.240  18.509 -22.107  0.00  0.00    -0.265 OA
BRANCH   6   8
ATOM      8  C   UNL d   1      32.814  18.757 -23.454  0.00  0.00     0.058 A 
ATOM      9  C   UNL d   1      33.218  19.051 -24.109  0.00  0.00     0.005 A 
ATOM     10  C   UNL d   1      33.033  18.772 -24.854  0.00  0.00     0.000 A 
ATOM     11  C   UNL d   1      32.447  18.200 -24.952  0.00  0.00     0.000 A 
ATOM     12  C   UNL d   1      32.046  17.906 -24.305  0.00  0.00     0.000 A 
ATOM     13  C   UNL d   1      32.228  18.184 -23.552  0.00  0.00     0.005 A 
ENDBRANCH   6   8
ENDBRANCH   4   5
ENDBRANCH   1   4
BRANCH   2  14
ATOM     14  C   UNL d   1      32.647  21.901 -20.614  0.00  0.00     0.086 A 
ATOM     15  C   UNL d   1      32.183  22.378 -21.101  0.00  0.00     0.031 A 
ATOM     16  C   UNL d   1      32.074  23.170 -20.899  0.00  0.00     0.060 A 
ATOM     17 CL   UNL d   1      31.621  23.581 -21.399  0.00  0.00    -0.082 Cl
ATOM     18  C   UNL d   1      32.422  23.486 -20.223  0.00  0.00     0.023 A 
ATOM     19  C   UNL d   1      32.888  22.999 -19.738  0.00  0.00     0.060 A 
ATOM     20  C   UNL d   1      33.002  22.206 -19.933  0.00  0.00     0.031 A 
ATOM     21 CL   UNL d   1      33.241  23.310 -19.057  0.00  0.00    -0.082 Cl
ENDBRANCH   2  14
TORSDOF 4
ENDMDL
MODEL 4
REMARK VINA RESULT:      -2.4      2.288      5.077
REMARK  4 active torsions:
REMARK  status: ('A' for Active; 'I' for Inactive)
REMARK       I    between atoms: N_3  and  C_1 
REMARK    1  A    between atoms: C_13  and  C_1 
REMARK    2  A    between atoms: C_2  and  N_5 
REMARK    3  A    between atoms: C_14  and  N_3 
REMARK    4  A    between atoms: C_4  and  C_14 
REMARK       I    between atoms: N_5  and  C_4 
ROOT
ATOM      1  C   UNL d   1      32.956  19.877 -22.364  0.00  0.00     0.299 C 
ATOM      2  N   UNL d   1      33.239  20.647 -22.445  0.00  0.00    -0.207 NA
ATOM      3  O   UNL d   1      32.508  19.660 -21.706  0.00  0.00    -0.263 OA
ENDROOT
BRANCH   1   4
ATOM      4  C   UNL d   1      33.122  19.318 -22.947  0.00  0.00     0.165 C 
BRANCH   4   5
ATOM      5  N   UNL d   1      32.609  18.678 -23.062  0.00  0.00    -0.201 NA
ATOM      6  C   UNL d   1      32.673  18.235 -23.758  0.00  0.00     0.279 C 
ATOM      7  O   UNL d   1      33.240  18.431 -24.325  0.00  0.00    -0.265 OA
BRANCH   6   8
ATOM      8  C   UNL d   1      32.163  17.592 -23.883  0.00  0.00     0.058 A 
ATOM      9  C   UNL d   1      32.251  16.902 -23.439  0.00  0.00     0.005 A 
ATOM     10  C   UNL d   1      31.746  16.274 -23.568  0.00  0.00     0.000 A 
ATOM     11  C   UNL d   1      31.151  16.327 -24.137  0.00  0.00     0.000 A 
ATOM     12  C   UNL d   1      31.061  17.008 -24.578  0.00  0.00     0.000 A 
ATOM     13  C   UNL d   1      31.568  17.644 -24.452  0.00  0.00     0.005 A 
ENDBRANCH   6   8
ENDBRANCH   4   5
ENDBRANCH   1   4
BRANCH   2  14
ATOM     14  C   UNL d   1      33.070  21.205 -21.858  0.00  0.00     0.086 A 
ATOM     15  C   UNL d   1      33.231  21.032 -21.067  0.00  0.00     0.031 A 
ATOM     16  C   UNL d   1      33.058  21.596 -20.491  0.00  0.00     0.060 A 
ATOM     17 CL   UNL d   1      33.233  21.380 -19.752  0.00  0.00    -0.082 Cl
ATOM     18  C   UNL d   1      32.729  22.323 -20.696  0.00  0.00     0.023 A 
ATOM     19  C   UNL d   1      32.570  22.488 -21.493  0.00  0.00     0.060 A 
ATOM     20  C   UNL d   1      32.740  21.929 -22.076  0.00  0.00     0.031 A 
ATOM     21 CL   UNL d   1      32.239  23.217 -21.706  0.00  0.00    -0.082 Cl
ENDBRANCH   2  14
TORSDOF 4
ENDMDL
MODEL 5
REMARK VINA RESULT:      -1.2      2.232      5.100
REMARK  4 active torsions:
REMARK  status: ('A' for Active; 'I' for Inactive)
REMARK       I    between atoms: N_3  and  C_1 
REMARK    1  A    between atoms: C_13  and  C_1 
REMARK    2  A    between atoms: C_2  and  N_5 
REMARK    3  A    between atoms: C_14  and  N_3 
REMARK    4  A    between atoms: C_4  and  C_14 
REMARK       I    between atoms: N_5  and  C_4 
ROOT
ATOM      1  C   UNL d   1      32.492  18.625 -23.207  0.00  0.00     0.299 C 
ATOM      2  N   UNL d   1      33.050  19.220 -23.326  0.00  0.00    -0.207 NA
ATOM      3  O   UNL d   1      32.000  18.636 -22.545  0.00  0.00    -0.263 OA
ENDROOT
BRANCH   1   4
ATOM      4  C   UNL d   1      32.425  18.013 -23.756  0.00  0.00     0.165 C 
BRANCH   4   5
ATOM      5  N   UNL d   1      31.682  17.688 -23.921  0.00  0.00    -0.201 NA
ATOM      6  C   UNL d   1      31.642  16.953 -24.299  0.00  0.00     0.279 C 
ATOM      7  O   UNL d   1      32.334  16.554 -24.507  0.00  0.00    -0.265 OA
BRANCH   6   8
ATOM      8  C   UNL d   1      30.901  16.618 -24.469  0.00  0.00     0.058 A 
ATOM      9  C   UNL d   1      30.350  17.039 -24.915  0.00  0.00     0.005 A 
ATOM     10  C   UNL d   1      29.624  16.703 -25.078  0.00  0.00     0.000 A 
ATOM     11  C   UNL d   1      29.442  15.948 -24.799  0.00  0.00     0.000 A 
ATOM     12  C   UNL d   1      29.985  15.529 -24.358  0.00  0.00     0.000 A 
ATOM     13  C   UNL d   1      30.719  15.863 -24.191  0.00  0.00     0.005 A 
ENDBRANCH   6   8
ENDBRANCH   4   5
ENDBRANCH   1   4
BRANCH   2  14
ATOM     14  C   UNL d   1      33.113  19.832 -22.774  0.00  0.00     0.086 A 
ATOM     15  C   UNL d   1      33.145  20.616 -23.030  0.00  0.00     0.031 A 
ATOM     16  C   UNL d   1      33.208  21.217 -22.469  0.00  0.00     0.060 A 
ATOM     17 CL   UNL d   1      33.234  21.948 -22.768  0.00  0.00    -0.082 Cl
ATOM     18  C   UNL d   1      33.241  21.045 -21.665  0.00  0.00     0.023 A 
ATOM     19  C   UNL d   1      33.209  20.254 -21.416  0.00  0.00     0.060 A 
ATOM     20  C   UNL d   1      33.145  19.646 -21.970  0.00  0.00     0.031 A 
ATOM     21 CL   UNL d   1      33.241  20.073 -20.608  0.00  0.00    -0.082 Cl
ENDBRANCH   2  14
TORSDOF 4
ENDMDL
