MODEL 1
REMARK VINA RESULT:      -7.9      0.000      0.000
REMARK  2 active torsions:
REMARK  status: ('A' for Active; 'I' for Inactive)
REMARK    1  A    between atoms: C_2  and  C_1 
REMARK       I    between atoms: N_3  and  C_2 
REMARK    2  A    between atoms: C_6  and  N_3 
ROOT
ATOM      1  C   UNL d   1     -47.639  13.449  22.997  0.00  0.00     0.303 C 
ATOM      2  N   UNL d   1     -48.419  13.206  22.848  0.00  0.00    -0.206 NA
ATOM      3  O   UNL d   1     -47.443  14.247  22.952  0.00  0.00    -0.263 OA
ENDROOT
BRANCH   2   4
ATOM      4  C   UNL d   1     -48.993  13.768  22.655  0.00  0.00     0.086 A 
ATOM      5  C   UNL d   1     -49.070  14.455  23.114  0.00  0.00     0.031 A 
ATOM      6  C   UNL d   1     -49.644  15.005  22.911  0.00  0.00     0.059 A 
ATOM      7 CL   UNL d   1     -49.717  15.687  23.371  0.00  0.00    -0.082 Cl
ATOM      8  C   UNL d   1     -50.131  14.877  22.268  0.00  0.00     0.011 A 
ATOM      9  C   UNL d   1     -50.062  14.204  21.812  0.00  0.00     0.002 A 
ATOM     10  C   UNL d   1     -49.488  13.642  22.005  0.00  0.00     0.018 A 
ATOM     11  C   UNL d   1     -49.412  12.969  21.555  0.00  0.00     0.002 C 
ENDBRANCH   2   4
BRANCH   1  12
ATOM     12  C   UNL d   1     -47.065  12.888  23.191  0.00  0.00     0.176 A 
ATOM     13  C   UNL d   1     -46.269  12.911  22.963  0.00  0.00     0.110 A 
ATOM     14  N   UNL d   1     -45.893  12.246  23.274  0.00  0.00    -0.233 NA
ATOM     15  C   UNL d   1     -45.918  13.495  22.508  0.00  0.00     0.023 C 
ATOM     16  C   UNL d   1     -46.462  11.807  23.698  0.00  0.00     0.259 A 
ATOM     17  O   UNL d   1     -47.183  12.210  23.641  0.00  0.00    -0.296 OA
ENDBRANCH   1  12
TORSDOF 2
ENDMDL
MODEL 2
REMARK VINA RESULT:      -7.8      1.645      3.561
REMARK  2 active torsions:
REMARK  status: ('A' for Active; 'I' for Inactive)
REMARK    1  A    between atoms: C_2  and  C_1 
REMARK       I    between atoms: N_3  and  C_2 
REMARK    2  A    between atoms: C_6  and  N_3 
ROOT
ATOM      1  C   UNL d   1     -48.886  14.184  22.700  0.00  0.00     0.303 C 
ATOM      2  N   UNL d   1     -48.704  13.375  22.666  0.00  0.00    -0.206 NA
ATOM      3  O   UNL d   1     -48.312  14.724  22.936  0.00  0.00    -0.263 OA
ENDROOT
BRANCH   2   4
ATOM      4  C   UNL d   1     -47.945  13.118  22.869  0.00  0.00     0.086 A 
ATOM      5  C   UNL d   1     -47.280  13.529  22.589  0.00  0.00     0.031 A 
ATOM      6  C   UNL d   1     -46.532  13.263  22.798  0.00  0.00     0.059 A 
ATOM      7 CL   UNL d   1     -45.875  13.675  22.517  0.00  0.00    -0.082 Cl
ATOM      8  C   UNL d   1     -46.446  12.605  23.274  0.00  0.00     0.011 A 
ATOM      9  C   UNL d   1     -47.093  12.196  23.553  0.00  0.00     0.002 A 
ATOM     10  C   UNL d   1     -47.852  12.452  23.351  0.00  0.00     0.018 A 
ATOM     11  C   UNL d   1     -48.503  12.050  23.625  0.00  0.00     0.002 C 
ENDBRANCH   2   4
BRANCH   1  12
ATOM     12  C   UNL d   1     -49.644  14.442  22.497  0.00  0.00     0.176 A 
ATOM     13  C   UNL d   1     -50.052  15.072  22.848  0.00  0.00     0.110 A 
ATOM     14  N   UNL d   1     -50.787  15.139  22.480  0.00  0.00    -0.233 NA
ATOM     15  C   UNL d   1     -49.771  15.545  23.455  0.00  0.00     0.023 C 
ATOM     16  C   UNL d   1     -50.834  14.544  21.896  0.00  0.00     0.259 A 
ATOM     17  O   UNL d   1     -50.125  14.118  21.914  0.00  0.00    -0.296 OA
ENDBRANCH   1  12
TORSDOF 2
ENDMDL
MODEL 3
REMARK VINA RESULT:      -7.7      1.668      3.669
REMARK  2 active torsions:
REMARK  status: ('A' for Active; 'I' for Inactive)
REMARK    1  A    between atoms: C_2  and  C_1 
REMARK       I    between atoms: N_3  and  C_2 
REMARK    2  A    between atoms: C_6  and  N_3 
ROOT
ATOM      1  C   UNL d   1     -48.829  13.911  22.925  0.00  0.00     0.303 C 
ATOM      2  N   UNL d   1     -48.054  14.071  23.175  0.00  0.00    -0.206 NA
ATOM      3  O   UNL d   1     -49.035  13.150  22.690  0.00  0.00    -0.263 OA
ENDROOT
BRANCH   2   4
ATOM      4  C   UNL d   1     -47.493  13.463  23.186  0.00  0.00     0.086 A 
ATOM      5  C   UNL d   1     -47.713  12.703  23.439  0.00  0.00     0.031 A 
ATOM      6  C   UNL d   1     -47.147  12.109  23.444  0.00  0.00     0.059 A 
ATOM      7 CL   UNL d   1     -47.370  11.355  23.696  0.00  0.00    -0.082 Cl
ATOM      8  C   UNL d   1     -46.382  12.265  23.206  0.00  0.00     0.011 A 
ATOM      9  C   UNL d   1     -46.158  13.009  22.957  0.00  0.00     0.002 A 
ATOM     10  C   UNL d   1     -46.718  13.617  22.946  0.00  0.00     0.018 A 
ATOM     11  C   UNL d   1     -46.504  14.361  22.699  0.00  0.00     0.002 C 
ENDBRANCH   2   4
BRANCH   1  12
ATOM     12  C   UNL d   1     -49.389  14.518  22.914  0.00  0.00     0.176 A 
ATOM     13  C   UNL d   1     -49.974  14.627  22.338  0.00  0.00     0.110 A 
ATOM     14  N   UNL d   1     -50.412  15.296  22.539  0.00  0.00    -0.233 NA
ATOM     15  C   UNL d   1     -50.094  14.151  21.682  0.00  0.00     0.023 C 
ATOM     16  C   UNL d   1     -50.095  15.603  23.248  0.00  0.00     0.259 A 
ATOM     17  O   UNL d   1     -49.464  15.117  23.472  0.00  0.00    -0.296 OA
ENDBRANCH   1  12
TORSDOF 2
ENDMDL
