MODEL 1
REMARK VINA RESULT:      -8.5      0.000      0.000
REMARK  4 active torsions:
REMARK  status: ('A' for Active; 'I' for Inactive)
REMARK    1  A    between atoms: C_4  and  C_1 
REMARK    2  A    between atoms: N_8  and  C_4 
REMARK    3  A    between atoms: C_12  and  C_4 
REMARK    4  A    between atoms: C_5  and  N_8 
ROOT
ATOM      1  C   UNL d   1     -49.121  13.537  23.041  0.00  0.00     0.085 C 
ENDROOT
BRANCH   1   2
ATOM      2  C   UNL d   1     -48.533  13.333  22.497  0.00  0.00     0.037 A 
ATOM      3  C   UNL d   1     -48.659  13.023  21.731  0.00  0.00     0.083 A 
ATOM      4  N   UNL d   1     -47.925  12.904  21.392  0.00  0.00    -0.245 NA
ATOM      5  C   UNL d   1     -49.391  12.866  21.382  0.00  0.00     0.021 C 
ATOM      6  C   UNL d   1     -47.354  13.138  21.941  0.00  0.00     0.081 A 
ATOM      7  C   UNL d   1     -47.733  13.398  22.611  0.00  0.00     0.021 A 
ATOM      8  C   UNL d   1     -46.526  13.139  21.896  0.00  0.00     0.019 A 
ATOM      9  C   UNL d   1     -47.293  13.664  23.251  0.00  0.00     0.002 A 
ATOM     10  C   UNL d   1     -46.468  13.672  23.221  0.00  0.00     0.000 A 
ATOM     11  C   UNL d   1     -46.089  13.412  22.550  0.00  0.00     0.002 A 
ENDBRANCH   1   2
BRANCH   1  12
ATOM     12  N   UNL d   1     -49.231  13.124  23.693  0.00  0.00    -0.221 NA
BRANCH  12  13
ATOM     13  C   UNL d   1     -49.761  12.561  23.693  0.00  0.00     0.194 A 
ATOM     14  N   UNL d   1     -50.547  12.651  23.687  0.00  0.00    -0.219 NA
ATOM     15  C   UNL d   1     -50.860  11.966  23.688  0.00  0.00     0.108 A 
ATOM     16  C   UNL d   1     -50.297  11.436  23.695  0.00  0.00     0.059 A 
ATOM     17  S   UNL d   1     -49.610  11.801  23.698  0.00  0.00    -0.046 SA
ENDBRANCH  12  13
ENDBRANCH   1  12
BRANCH   1  18
ATOM     18  C   UNL d   1     -49.612  14.188  22.909  0.00  0.00     0.021 A 
ATOM     19  C   UNL d   1     -49.578  14.823  23.435  0.00  0.00     0.022 A 
ATOM     20  C   UNL d   1     -50.066  15.482  23.315  0.00  0.00     0.099 A 
ATOM     21  N   UNL d   1     -50.581  15.499  22.674  0.00  0.00    -0.242 NA
ATOM     22  C   UNL d   1     -50.613  14.859  22.147  0.00  0.00     0.099 A 
ATOM     23  C   UNL d   1     -50.127  14.204  22.268  0.00  0.00     0.022 A 
ENDBRANCH   1  18
TORSDOF 4
ENDMDL
MODEL 2
REMARK VINA RESULT:      -8.1      1.191      2.920
REMARK  4 active torsions:
REMARK  status: ('A' for Active; 'I' for Inactive)
REMARK    1  A    between atoms: C_4  and  C_1 
REMARK    2  A    between atoms: N_8  and  C_4 
REMARK    3  A    between atoms: C_12  and  C_4 
REMARK    4  A    between atoms: C_5  and  N_8 
ROOT
ATOM      1  C   UNL d   1     -48.005  13.389  22.955  0.00  0.00     0.085 C 
ENDROOT
BRANCH   1   2
ATOM      2  C   UNL d   1     -48.610  13.644  22.453  0.00  0.00     0.037 A 
ATOM      3  C   UNL d   1     -48.787  13.331  21.698  0.00  0.00     0.083 A 
ATOM      4  N   UNL d   1     -49.424  13.749  21.403  0.00  0.00    -0.245 NA
ATOM      5  C   UNL d   1     -48.390  12.712  21.321  0.00  0.00     0.021 C 
ATOM      6  C   UNL d   1     -49.637  14.312  21.968  0.00  0.00     0.081 A 
ATOM      7  C   UNL d   1     -49.136  14.241  22.604  0.00  0.00     0.021 A 
ATOM      8  C   UNL d   1     -50.238  14.883  21.966  0.00  0.00     0.019 A 
ATOM      9  C   UNL d   1     -49.225  14.739  23.251  0.00  0.00     0.002 A 
ATOM     10  C   UNL d   1     -49.819  15.312  23.263  0.00  0.00     0.000 A 
ATOM     11  C   UNL d   1     -50.321  15.383  22.627  0.00  0.00     0.002 A 
ENDBRANCH   1   2
BRANCH   1  12
ATOM     12  N   UNL d   1     -48.162  13.032  23.631  0.00  0.00    -0.221 NA
BRANCH  12  13
ATOM     13  C   UNL d   1     -48.169  12.259  23.651  0.00  0.00     0.194 A 
ATOM     14  N   UNL d   1     -47.541  11.780  23.687  0.00  0.00    -0.219 NA
ATOM     15  C   UNL d   1     -47.790  11.070  23.696  0.00  0.00     0.108 A 
ATOM     16  C   UNL d   1     -48.563  11.077  23.667  0.00  0.00     0.059 A 
ATOM     17  S   UNL d   1     -48.805  11.815  23.638  0.00  0.00    -0.046 SA
ENDBRANCH  12  13
ENDBRANCH   1  12
BRANCH   1  18
ATOM     18  C   UNL d   1     -47.212  13.504  22.756  0.00  0.00     0.021 A 
ATOM     19  C   UNL d   1     -46.774  14.063  23.177  0.00  0.00     0.022 A 
ATOM     20  C   UNL d   1     -45.977  14.189  22.987  0.00  0.00     0.099 A 
ATOM     21  N   UNL d   1     -45.628  13.756  22.381  0.00  0.00    -0.242 NA
ATOM     22  C   UNL d   1     -46.069  13.194  21.960  0.00  0.00     0.099 A 
ATOM     23  C   UNL d   1     -46.862  13.071  22.150  0.00  0.00     0.022 A 
ENDBRANCH   1  18
TORSDOF 4
ENDMDL
MODEL 3
REMARK VINA RESULT:      -7.9      0.959      2.124
REMARK  4 active torsions:
REMARK  status: ('A' for Active; 'I' for Inactive)
REMARK    1  A    between atoms: C_4  and  C_1 
REMARK    2  A    between atoms: N_8  and  C_4 
REMARK    3  A    between atoms: C_12  and  C_4 
REMARK    4  A    between atoms: C_5  and  N_8 
ROOT
ATOM      1  C   UNL d   1     -48.855  13.395  22.961  0.00  0.00     0.085 C 
ENDROOT
BRANCH   1   2
ATOM      2  C   UNL d   1     -48.215  13.299  22.447  0.00  0.00     0.037 A 
ATOM      3  C   UNL d   1     -48.256  13.262  21.613  0.00  0.00     0.083 A 
ATOM      4  N   UNL d   1     -47.494  13.165  21.335  0.00  0.00    -0.245 NA
ATOM      5  C   UNL d   1     -48.942  13.314  21.155  0.00  0.00     0.021 C 
ATOM      6  C   UNL d   1     -46.989  13.142  21.988  0.00  0.00     0.081 A 
ATOM      7  C   UNL d   1     -47.437  13.225  22.662  0.00  0.00     0.021 A 
ATOM      8  C   UNL d   1     -46.166  13.055  22.035  0.00  0.00     0.019 A 
ATOM      9  C   UNL d   1     -47.071  13.222  23.397  0.00  0.00     0.002 A 
ATOM     10  C   UNL d   1     -46.253  13.135  23.460  0.00  0.00     0.000 A 
ATOM     11  C   UNL d   1     -45.805  13.053  22.786  0.00  0.00     0.002 A 
ENDBRANCH   1   2
BRANCH   1  12
ATOM     12  N   UNL d   1     -48.903  14.011  23.438  0.00  0.00    -0.221 NA
BRANCH  12  13
ATOM     13  C   UNL d   1     -49.340  14.613  23.225  0.00  0.00     0.194 A 
ATOM     14  N   UNL d   1     -49.266  15.043  22.566  0.00  0.00    -0.219 NA
ATOM     15  C   UNL d   1     -49.799  15.574  22.573  0.00  0.00     0.108 A 
ATOM     16  C   UNL d   1     -50.216  15.498  23.219  0.00  0.00     0.059 A 
ATOM     17  S   UNL d   1     -49.935  14.901  23.630  0.00  0.00    -0.046 SA
ENDBRANCH  12  13
ENDBRANCH   1  12
BRANCH   1  18
ATOM     18  C   UNL d   1     -49.466  12.840  22.986  0.00  0.00     0.021 A 
ATOM     19  C   UNL d   1     -49.548  12.370  23.660  0.00  0.00     0.022 A 
ATOM     20  C   UNL d   1     -50.156  11.809  23.698  0.00  0.00     0.099 A 
ATOM     21  N   UNL d   1     -50.674  11.723  23.064  0.00  0.00    -0.242 NA
ATOM     22  C   UNL d   1     -50.589  12.196  22.388  0.00  0.00     0.099 A 
ATOM     23  C   UNL d   1     -49.983  12.754  22.352  0.00  0.00     0.022 A 
ENDBRANCH   1  18
TORSDOF 4
ENDMDL
MODEL 4
REMARK VINA RESULT:      -6.1      1.283      2.737
REMARK  4 active torsions:
REMARK  status: ('A' for Active; 'I' for Inactive)
REMARK    1  A    between atoms: C_4  and  C_1 
REMARK    2  A    between atoms: N_8  and  C_4 
REMARK    3  A    between atoms: C_12  and  C_4 
REMARK    4  A    between atoms: C_5  and  N_8 
ROOT
ATOM      1  C   UNL d   1     -48.433  13.735  22.846  0.00  0.00     0.085 C 
ENDROOT
BRANCH   1   2
ATOM      2  C   UNL d   1     -48.699  13.066  22.441  0.00  0.00     0.037 A 
ATOM      3  C   UNL d   1     -48.581  12.904  21.629  0.00  0.00     0.083 A 
ATOM      4  N   UNL d   1     -48.937  12.187  21.468  0.00  0.00    -0.245 NA
ATOM      5  C   UNL d   1     -48.178  13.382  21.090  0.00  0.00     0.021 C 
ATOM      6  C   UNL d   1     -49.271  11.909  22.172  0.00  0.00     0.081 A 
ATOM      7  C   UNL d   1     -49.121  12.451  22.758  0.00  0.00     0.021 A 
ATOM      8  C   UNL d   1     -49.696  11.216  22.334  0.00  0.00     0.019 A 
ATOM      9  C   UNL d   1     -49.393  12.312  23.520  0.00  0.00     0.002 A 
ATOM     10  C   UNL d   1     -49.818  11.627  23.698  0.00  0.00     0.000 A 
ATOM     11  C   UNL d   1     -49.968  11.085  23.111  0.00  0.00     0.002 A 
ENDBRANCH   1   2
BRANCH   1  12
ATOM     12  N   UNL d   1     -47.822  13.699  23.331  0.00  0.00    -0.221 NA
BRANCH  12  13
ATOM     13  C   UNL d   1     -47.114  13.829  23.048  0.00  0.00     0.194 A 
ATOM     14  N   UNL d   1     -46.821  14.522  22.806  0.00  0.00    -0.219 NA
ATOM     15  C   UNL d   1     -46.115  14.407  22.571  0.00  0.00     0.108 A 
ATOM     16  C   UNL d   1     -45.944  13.657  22.656  0.00  0.00     0.059 A 
ATOM     17  S   UNL d   1     -46.563  13.292  22.953  0.00  0.00    -0.046 SA
ENDBRANCH  12  13
ENDBRANCH   1  12
BRANCH   1  18
ATOM     18  C   UNL d   1     -48.806  14.465  22.751  0.00  0.00     0.021 A 
ATOM     19  C   UNL d   1     -49.157  14.821  23.408  0.00  0.00     0.022 A 
ATOM     20  C   UNL d   1     -49.534  15.553  23.326  0.00  0.00     0.099 A 
ATOM     21  N   UNL d   1     -49.557  15.922  22.591  0.00  0.00    -0.242 NA
ATOM     22  C   UNL d   1     -49.204  15.563  21.932  0.00  0.00     0.099 A 
ATOM     23  C   UNL d   1     -48.829  14.834  22.016  0.00  0.00     0.022 A 
ENDBRANCH   1  18
TORSDOF 4
ENDMDL
