MODEL 1
REMARK VINA RESULT:     -10.9      0.000      0.000
REMARK  2 active torsions:
REMARK  status: ('A' for Active; 'I' for Inactive)
REMARK    1  A    between atoms: N_2  and  S_1 
REMARK    2  A    between atoms: C_3  and  S_1 
ROOT
ATOM      1  S   UNL d   1      53.489  32.325  53.807  0.00  0.00     0.273 S 
ATOM      2  O   UNL d   1      54.172  32.366  53.320  0.00  0.00    -0.200 OA
ATOM      3  O   UNL d   1      52.811  32.277  54.282  0.00  0.00    -0.200 OA
ENDROOT
BRANCH   1   4
ATOM      4  N   UNL d   1      53.202  31.684  53.354  0.00  0.00    -0.231 N 
ATOM      5  C   UNL d   1      53.255  30.913  53.657  0.00  0.00     0.075 A 
ATOM      6  C   UNL d   1      52.933  30.408  53.095  0.00  0.00     0.018 A 
ATOM      7  C   UNL d   1      53.547  30.625  54.352  0.00  0.00     0.018 A 
ATOM      8  C   UNL d   1      52.907  29.614  53.235  0.00  0.00     0.002 A 
ATOM      9  C   UNL d   1      52.691  30.837  52.471  0.00  0.00     0.021 A 
ATOM     10  C   UNL d   1      53.203  29.306  53.945  0.00  0.00     0.000 A 
ATOM     11  C   UNL d   1      53.522  29.831  54.496  0.00  0.00     0.002 A 
ATOM     12  C   UNL d   1      52.856  31.635  52.626  0.00  0.00     0.092 A 
ENDBRANCH   1   4
BRANCH   1  13
ATOM     13  C   UNL d   1      53.778  32.958  54.249  0.00  0.00     0.121 A 
ATOM     14  C   UNL d   1      53.456  33.714  54.178  0.00  0.00     0.093 A 
ATOM     15  N   UNL d   1      52.830  33.846  53.654  0.00  0.00    -0.243 NA
ATOM     16  C   UNL d   1      53.763  34.336  54.633  0.00  0.00     0.018 A 
ATOM     17  C   UNL d   1      52.509  34.599  53.583  0.00  0.00     0.099 A 
ATOM     18  C   UNL d   1      52.812  35.226  54.036  0.00  0.00     0.021 A 
ATOM     19  C   UNL d   1      53.443  35.089  54.563  0.00  0.00     0.003 A 
ATOM     20  C   UNL d   1      54.390  34.204  55.157  0.00  0.00     0.002 A 
ATOM     21  C   UNL d   1      54.712  33.447  55.228  0.00  0.00     0.001 A 
ATOM     22  C   UNL d   1      54.405  32.830  54.775  0.00  0.00     0.014 A 
ENDBRANCH   1  13
TORSDOF 2
ENDMDL
MODEL 2
REMARK VINA RESULT:      -9.5      0.622      3.959
REMARK  2 active torsions:
REMARK  status: ('A' for Active; 'I' for Inactive)
REMARK    1  A    between atoms: N_2  and  S_1 
REMARK    2  A    between atoms: C_3  and  S_1 
ROOT
ATOM      1  S   UNL d   1      53.530  32.132  53.941  0.00  0.00     0.273 S 
ATOM      2  O   UNL d   1      54.280  32.106  53.565  0.00  0.00    -0.200 OA
ATOM      3  O   UNL d   1      52.792  32.167  54.317  0.00  0.00    -0.200 OA
ENDROOT
BRANCH   1   4
ATOM      4  N   UNL d   1      53.766  32.809  54.370  0.00  0.00    -0.231 N 
ATOM      5  C   UNL d   1      53.434  33.547  54.186  0.00  0.00     0.075 A 
ATOM      6  C   UNL d   1      53.769  34.099  54.693  0.00  0.00     0.018 A 
ATOM      7  C   UNL d   1      52.886  33.770  53.636  0.00  0.00     0.018 A 
ATOM      8  C   UNL d   1      53.552  34.874  54.645  0.00  0.00     0.002 A 
ATOM      9  C   UNL d   1      54.285  33.730  55.171  0.00  0.00     0.021 A 
ATOM     10  C   UNL d   1      52.990  35.116  54.085  0.00  0.00     0.000 A 
ATOM     11  C   UNL d   1      52.666  34.546  53.586  0.00  0.00     0.002 A 
ATOM     12  C   UNL d   1      54.289  32.924  54.975  0.00  0.00     0.092 A 
ENDBRANCH   1   4
BRANCH   1  13
ATOM     13  C   UNL d   1      53.304  31.464  53.514  0.00  0.00     0.121 A 
ATOM     14  C   UNL d   1      53.295  30.716  53.861  0.00  0.00     0.093 A 
ATOM     15  N   UNL d   1      53.518  30.627  54.653  0.00  0.00    -0.243 NA
ATOM     16  C   UNL d   1      53.064  30.057  53.412  0.00  0.00     0.018 A 
ATOM     17  C   UNL d   1      53.509  29.882  54.998  0.00  0.00     0.099 A 
ATOM     18  C   UNL d   1      53.279  29.219  54.554  0.00  0.00     0.021 A 
ATOM     19  C   UNL d   1      53.056  29.312  53.757  0.00  0.00     0.003 A 
ATOM     20  C   UNL d   1      52.842  30.146  52.620  0.00  0.00     0.002 A 
ATOM     21  C   UNL d   1      52.850  30.894  52.273  0.00  0.00     0.001 A 
ATOM     22  C   UNL d   1      53.081  31.548  52.721  0.00  0.00     0.014 A 
ENDBRANCH   1  13
TORSDOF 2
ENDMDL
MODEL 3
REMARK VINA RESULT:      -9.0      1.922      3.613
REMARK  2 active torsions:
REMARK  status: ('A' for Active; 'I' for Inactive)
REMARK    1  A    between atoms: N_2  and  S_1 
REMARK    2  A    between atoms: C_3  and  S_1 
ROOT
ATOM      1  S   UNL d   1      52.133  34.123  53.223  0.00  0.00     0.273 S 
ATOM      2  O   UNL d   1      52.571  34.728  52.841  0.00  0.00    -0.200 OA
ATOM      3  O   UNL d   1      51.693  33.525  53.593  0.00  0.00    -0.200 OA
ENDROOT
BRANCH   1   4
ATOM      4  N   UNL d   1      51.561  34.150  52.614  0.00  0.00    -0.231 N 
ATOM      5  C   UNL d   1      50.800  34.438  52.780  0.00  0.00     0.075 A 
ATOM      6  C   UNL d   1      50.367  34.397  52.084  0.00  0.00     0.018 A 
ATOM      7  C   UNL d   1      50.466  34.721  53.459  0.00  0.00     0.018 A 
ATOM      8  C   UNL d   1      49.599  34.642  52.073  0.00  0.00     0.002 A 
ATOM      9  C   UNL d   1      50.829  34.100  51.510  0.00  0.00     0.021 A 
ATOM     10  C   UNL d   1      49.244  34.934  52.763  0.00  0.00     0.000 A 
ATOM     11  C   UNL d   1      49.697  34.966  53.451  0.00  0.00     0.002 A 
ATOM     12  C   UNL d   1      51.576  33.943  51.834  0.00  0.00     0.092 A 
ENDBRANCH   1   4
BRANCH   1  13
ATOM     13  C   UNL d   1      52.701  34.102  53.820  0.00  0.00     0.121 A 
ATOM     14  C   UNL d   1      53.206  33.456  53.909  0.00  0.00     0.093 A 
ATOM     15  N   UNL d   1      53.147  32.813  53.392  0.00  0.00    -0.243 NA
ATOM     16  C   UNL d   1      53.771  33.457  54.518  0.00  0.00     0.018 A 
ATOM     17  C   UNL d   1      53.650  32.170  53.481  0.00  0.00     0.099 A 
ATOM     18  C   UNL d   1      54.217  32.164  54.088  0.00  0.00     0.021 A 
ATOM     19  C   UNL d   1      54.274  32.814  54.606  0.00  0.00     0.003 A 
ATOM     20  C   UNL d   1      53.831  34.100  55.035  0.00  0.00     0.002 A 
ATOM     21  C   UNL d   1      53.326  34.746  54.945  0.00  0.00     0.001 A 
ATOM     22  C   UNL d   1      52.765  34.743  54.340  0.00  0.00     0.014 A 
ENDBRANCH   1  13
TORSDOF 2
ENDMDL
MODEL 4
REMARK VINA RESULT:      -8.0      2.077      3.625
REMARK  2 active torsions:
REMARK  status: ('A' for Active; 'I' for Inactive)
REMARK    1  A    between atoms: N_2  and  S_1 
REMARK    2  A    between atoms: C_3  and  S_1 
ROOT
ATOM      1  S   UNL d   1      52.273  34.340  53.471  0.00  0.00     0.273 S 
ATOM      2  O   UNL d   1      52.621  35.011  53.105  0.00  0.00    -0.200 OA
ATOM      3  O   UNL d   1      51.936  33.679  53.840  0.00  0.00    -0.200 OA
ENDROOT
BRANCH   1   4
ATOM      4  N   UNL d   1      52.812  34.405  54.106  0.00  0.00    -0.231 N 
ATOM      5  C   UNL d   1      53.441  33.867  54.166  0.00  0.00     0.075 A 
ATOM      6  C   UNL d   1      53.870  34.067  54.837  0.00  0.00     0.018 A 
ATOM      7  C   UNL d   1      53.662  33.242  53.704  0.00  0.00     0.018 A 
ATOM      8  C   UNL d   1      54.521  33.637  55.041  0.00  0.00     0.002 A 
ATOM      9  C   UNL d   1      53.530  34.697  55.182  0.00  0.00     0.021 A 
ATOM     10  C   UNL d   1      54.759  32.993  54.575  0.00  0.00     0.000 A 
ATOM     11  C   UNL d   1      54.314  32.810  53.906  0.00  0.00     0.002 A 
ATOM     12  C   UNL d   1      52.869  34.914  54.731  0.00  0.00     0.092 A 
ENDBRANCH   1   4
BRANCH   1  13
ATOM     13  C   UNL d   1      51.745  34.283  52.840  0.00  0.00     0.121 A 
ATOM     14  C   UNL d   1      50.958  34.519  52.917  0.00  0.00     0.093 A 
ATOM     15  N   UNL d   1      50.687  34.820  53.638  0.00  0.00    -0.243 NA
ATOM     16  C   UNL d   1      50.444  34.452  52.269  0.00  0.00     0.018 A 
ATOM     17  C   UNL d   1      49.904  35.055  53.714  0.00  0.00     0.099 A 
ATOM     18  C   UNL d   1      49.384  34.991  53.070  0.00  0.00     0.021 A 
ATOM     19  C   UNL d   1      49.661  34.687  52.345  0.00  0.00     0.003 A 
ATOM     20  C   UNL d   1      50.714  34.150  51.547  0.00  0.00     0.002 A 
ATOM     21  C   UNL d   1      51.501  33.914  51.471  0.00  0.00     0.001 A 
ATOM     22  C   UNL d   1      52.011  33.982  52.117  0.00  0.00     0.014 A 
ENDBRANCH   1  13
TORSDOF 2
ENDMDL
