MODEL 1
REMARK VINA RESULT:      21.1      0.000      0.000
REMARK  4 active torsions:
REMARK  status: ('A' for Active; 'I' for Inactive)
REMARK    1  A    between atoms: S_7  and  C_3 
REMARK    2  A    between atoms: C_12  and  S_7 
REMARK    3  A    between atoms: C_9  and  C_12 
REMARK    4  A    between atoms: C_11  and  C_9 
ROOT
ATOM      1  S   UNL d   1     -56.651 -98.767 -44.870  0.00  0.00    -0.043 SA
ENDROOT
BRANCH   1   2
ATOM      2  C   UNL d   1     -57.427 -98.766 -44.593  0.00  0.00     0.220 A 
ATOM      3  N   UNL d   1     -58.056 -98.764 -45.127  0.00  0.00    -0.149 N 
ATOM      4  C   UNL d   1     -58.841 -98.763 -44.859  0.00  0.00     0.303 A 
ATOM      5  N   UNL d   1     -57.910 -98.762 -45.938  0.00  0.00    -0.037 N 
ATOM      6  C   UNL d   1     -58.978 -98.764 -44.040  0.00  0.00     0.161 A 
ATOM      7  O   UNL d   1     -59.464 -98.760 -45.387  0.00  0.00    -0.263 OA
ATOM      8  C   UNL d   1     -59.753 -98.763 -43.764  0.00  0.00     0.028 C 
ATOM      9  N   UNL d   1     -58.349 -98.766 -43.506  0.00  0.00    -0.141 NA
ATOM     10  N   UNL d   1     -57.576 -98.767 -43.786  0.00  0.00    -0.121 NA
ENDBRANCH   1   2
BRANCH   1  11
ATOM     11  C   UNL d   1     -56.027 -98.837 -44.342  0.00  0.00     0.080 C 
BRANCH  11  12
ATOM     12  C   UNL d   1     -55.325 -99.181 -44.590  0.00  0.00     0.202 C 
ATOM     13  O   UNL d   1     -54.778 -98.761 -45.035  0.00  0.00    -0.286 OA
BRANCH  12  14
ATOM     14  C   UNL d   1     -55.169 -99.974 -44.384  0.00  0.00     0.040 A 
ATOM     15  C   UNL d   1     -55.268-100.568 -44.955  0.00  0.00     0.004 A 
ATOM     16  C   UNL d   1     -55.115-101.355 -44.758  0.00  0.00     0.011 A 
ATOM     17  C   UNL d   1     -54.862-101.546 -43.986  0.00  0.00     0.058 A 
ATOM     18  C   UNL d   1     -54.767-100.954 -43.427  0.00  0.00     0.011 A 
ATOM     19 CL   UNL d   1     -54.711-102.324 -43.792  0.00  0.00    -0.082 Cl
ATOM     20  C   UNL d   1     -54.918-100.167 -43.620  0.00  0.00     0.004 A 
ENDBRANCH  12  14
ENDBRANCH  11  12
ENDBRANCH   1  11
TORSDOF 4
ENDMDL
