MODEL 1
REMARK VINA RESULT:      63.0      0.000      0.000
REMARK  1 active torsions:
REMARK  status: ('A' for Active; 'I' for Inactive)
REMARK    1  A    between atoms: C_6  and  C_1 
REMARK       I    between atoms: N_9  and  C_6 
ROOT
ATOM      1  C   UNL d   1     -51.316  25.299  33.386  0.00  0.00     0.107 A 
ATOM      2  C   UNL d   1     -50.628  26.440  33.365  0.00  0.00     0.044 A 
ATOM      3  S   UNL d   1     -51.853  25.922  33.378  0.00  0.00    -0.061 SA
ATOM      4  C   UNL d   1     -51.428  26.627  33.364  0.00  0.00     0.112 A 
ATOM      5  C   UNL d   1     -50.555  25.624  33.378  0.00  0.00     0.116 A 
ATOM      6  N   UNL d   1     -51.664  27.426  33.352  0.00  0.00    -0.239 NA
ATOM      7  C   UNL d   1     -50.061  27.042  33.352  0.00  0.00     0.005 A 
ATOM      8  C   UNL d   1     -51.098  28.021  33.340  0.00  0.00     0.082 A 
ATOM      9  C   UNL d   1     -50.297  27.820  33.340  0.00  0.00     0.018 A 
ATOM     10  N   UNL d   1     -49.865  25.202  33.383  0.00  0.00    -0.147 N 
ATOM     11  C   UNL d   1     -51.528  28.726  33.329  0.00  0.00     0.019 A 
ATOM     12  C   UNL d   1     -49.584  28.247  33.331  0.00  0.00     0.002 A 
ATOM     13  C   UNL d   1     -51.326  29.527  33.315  0.00  0.00     0.002 A 
ATOM     14  C   UNL d   1     -49.389  29.059  33.316  0.00  0.00     0.000 A 
ATOM     15  C   UNL d   1     -49.819  29.763  33.306  0.00  0.00     0.000 A 
ATOM     16  C   UNL d   1     -50.622  29.956  33.306  0.00  0.00     0.000 A 
ENDROOT
BRANCH   1  17
ATOM     17  C   UNL d   1     -51.499  24.518  33.400  0.00  0.00     0.272 C 
ATOM     18  N   UNL d   1     -52.261  24.291  33.371  0.00  0.00    -0.272 N 
ATOM     19  C   UNL d   1     -52.902  24.764  33.329  0.00  0.00     0.083 A 
ATOM     20  C   UNL d   1     -52.522  23.525  33.381  0.00  0.00     0.083 A 
ATOM     21  C   UNL d   1     -53.550  24.304  33.312  0.00  0.00     0.021 A 
ATOM     22  C   UNL d   1     -53.323  23.546  33.344  0.00  0.00     0.021 A 
ATOM     23  O   UNL d   1     -50.913  23.973  33.442  0.00  0.00    -0.266 OA
ENDBRANCH   1  17
TORSDOF 1
ENDMDL
