MODEL 1
REMARK VINA RESULT:      -7.9      0.000      0.000
REMARK  4 active torsions:
REMARK  status: ('A' for Active; 'I' for Inactive)
REMARK    1  A    between atoms: C_4  and  S_1 
REMARK    2  A    between atoms: N_5  and  S_1 
REMARK    3  A    between atoms: C_3  and  C_12 
REMARK    4  A    between atoms: C_12  and  N_5 
ROOT
ATOM      1  S   UNL d   1     -46.554  13.139  23.024  0.00  0.00     0.285 S 
ATOM      2  O   UNL d   1     -46.829  12.700  22.382  0.00  0.00    -0.198 OA
ATOM      3  O   UNL d   1     -46.267  13.579  23.679  0.00  0.00    -0.198 OA
ENDROOT
BRANCH   1   4
ATOM      4  C   UNL d   1     -47.154  13.690  22.915  0.00  0.00     0.105 A 
ATOM      5  C   UNL d   1     -47.948  13.470  23.056  0.00  0.00     0.013 A 
ATOM      6  C   UNL d   1     -48.535  14.041  22.940  0.00  0.00     0.001 A 
ATOM      7  C   UNL d   1     -49.324  13.820  23.080  0.00  0.00     0.000 A 
ATOM      8  C   UNL d   1     -48.349  14.804  22.694  0.00  0.00     0.000 A 
ATOM      9  C   UNL d   1     -49.919  14.382  22.968  0.00  0.00     0.000 A 
ATOM     10  C   UNL d   1     -49.738  15.146  22.722  0.00  0.00     0.000 A 
ATOM     11  C   UNL d   1     -48.948  15.350  22.586  0.00  0.00     0.000 A 
ATOM     12  C   UNL d   1     -47.572  15.000  22.562  0.00  0.00     0.001 A 
ATOM     13  C   UNL d   1     -46.972  14.449  22.671  0.00  0.00     0.013 A 
ENDBRANCH   1   4
BRANCH   1  14
ATOM     14  N   UNL d   1     -45.941  12.584  23.142  0.00  0.00    -0.155 NA
BRANCH  14  15
ATOM     15  C   UNL d   1     -46.113  11.794  23.291  0.00  0.00     0.132 C 
BRANCH  15  16
ATOM     16  C   UNL d   1     -45.498  11.240  23.394  0.00  0.00     0.108 A 
ATOM     17  N   UNL d   1     -44.708  11.366  23.213  0.00  0.00    -0.237 NA
ATOM     18  C   UNL d   1     -44.285  10.671  23.402  0.00  0.00     0.111 A 
ATOM     19  C   UNL d   1     -43.466  10.553  23.307  0.00  0.00     0.028 C 
ATOM     20  S   UNL d   1     -44.829  10.126  23.698  0.00  0.00    -0.066 SA
ATOM     21  C   UNL d   1     -45.580  10.478  23.694  0.00  0.00     0.058 A 
ENDBRANCH  15  16
ENDBRANCH  14  15
ENDBRANCH   1  14
TORSDOF 4
ENDMDL
MODEL 2
REMARK VINA RESULT:      -6.6      1.506      2.132
REMARK  4 active torsions:
REMARK  status: ('A' for Active; 'I' for Inactive)
REMARK    1  A    between atoms: C_4  and  S_1 
REMARK    2  A    between atoms: N_5  and  S_1 
REMARK    3  A    between atoms: C_3  and  C_12 
REMARK    4  A    between atoms: C_12  and  N_5 
ROOT
ATOM      1  S   UNL d   1     -48.065  13.377  22.675  0.00  0.00     0.285 S 
ATOM      2  O   UNL d   1     -47.968  13.107  23.449  0.00  0.00    -0.198 OA
ATOM      3  O   UNL d   1     -48.155  13.649  21.886  0.00  0.00    -0.198 OA
ENDROOT
BRANCH   1   4
ATOM      4  C   UNL d   1     -48.797  13.698  22.871  0.00  0.00     0.105 A 
ATOM      5  C   UNL d   1     -48.852  14.506  23.079  0.00  0.00     0.013 A 
ATOM      6  C   UNL d   1     -49.598  14.806  23.271  0.00  0.00     0.001 A 
ATOM      7  C   UNL d   1     -49.650  15.610  23.478  0.00  0.00     0.000 A 
ATOM      8  C   UNL d   1     -50.268  14.330  23.260  0.00  0.00     0.000 A 
ATOM      9  C   UNL d   1     -50.390  15.922  23.672  0.00  0.00     0.000 A 
ATOM     10  C   UNL d   1     -51.064  15.449  23.663  0.00  0.00     0.000 A 
ATOM     11  C   UNL d   1     -50.994  14.652  23.455  0.00  0.00     0.000 A 
ATOM     12  C   UNL d   1     -50.196  13.547  23.056  0.00  0.00     0.001 A 
ATOM     13  C   UNL d   1     -49.465  13.226  22.860  0.00  0.00     0.013 A 
ENDBRANCH   1   4
BRANCH   1  14
ATOM     14  N   UNL d   1     -47.324  13.055  22.468  0.00  0.00    -0.155 NA
BRANCH  14  15
ATOM     15  C   UNL d   1     -46.633  13.323  22.826  0.00  0.00     0.132 C 
BRANCH  15  16
ATOM     16  C   UNL d   1     -45.893  13.012  22.603  0.00  0.00     0.108 A 
ATOM     17  N   UNL d   1     -45.363  13.368  22.088  0.00  0.00    -0.237 NA
ATOM     18  C   UNL d   1     -44.695  12.871  22.019  0.00  0.00     0.111 A 
ATOM     19  C   UNL d   1     -44.020  13.015  21.553  0.00  0.00     0.028 C 
ATOM     20  S   UNL d   1     -44.829  12.214  22.499  0.00  0.00    -0.066 SA
ATOM     21  C   UNL d   1     -45.571  12.301  22.860  0.00  0.00     0.058 A 
ENDBRANCH  15  16
ENDBRANCH  14  15
ENDBRANCH   1  14
TORSDOF 4
ENDMDL
MODEL 3
REMARK VINA RESULT:      -6.5      1.679      4.802
REMARK  4 active torsions:
REMARK  status: ('A' for Active; 'I' for Inactive)
REMARK    1  A    between atoms: C_4  and  S_1 
REMARK    2  A    between atoms: N_5  and  S_1 
REMARK    3  A    between atoms: C_3  and  C_12 
REMARK    4  A    between atoms: C_12  and  N_5 
ROOT
ATOM      1  S   UNL d   1     -47.348  13.480  22.805  0.00  0.00     0.285 S 
ATOM      2  O   UNL d   1     -46.982  14.040  23.288  0.00  0.00    -0.198 OA
ATOM      3  O   UNL d   1     -47.730  12.917  22.314  0.00  0.00    -0.198 OA
ENDROOT
BRANCH   1   4
ATOM      4  C   UNL d   1     -46.680  13.003  22.837  0.00  0.00     0.105 A 
ATOM      5  C   UNL d   1     -46.711  12.274  23.246  0.00  0.00     0.013 A 
ATOM      6  C   UNL d   1     -46.027  11.811  23.264  0.00  0.00     0.001 A 
ATOM      7  C   UNL d   1     -46.061  11.086  23.671  0.00  0.00     0.000 A 
ATOM      8  C   UNL d   1     -45.334  12.053  22.895  0.00  0.00     0.000 A 
ATOM      9  C   UNL d   1     -45.383  10.614  23.697  0.00  0.00     0.000 A 
ATOM     10  C   UNL d   1     -44.686  10.853  23.328  0.00  0.00     0.000 A 
ATOM     11  C   UNL d   1     -44.670  11.577  22.928  0.00  0.00     0.000 A 
ATOM     12  C   UNL d   1     -45.321  12.765  22.502  0.00  0.00     0.001 A 
ATOM     13  C   UNL d   1     -45.989  13.243  22.470  0.00  0.00     0.013 A 
ENDBRANCH   1   4
BRANCH   1  14
ATOM     14  N   UNL d   1     -48.032  13.959  22.767  0.00  0.00    -0.155 NA
BRANCH  14  15
ATOM     15  C   UNL d   1     -48.759  13.674  23.024  0.00  0.00     0.132 C 
BRANCH  15  16
ATOM     16  C   UNL d   1     -49.427  14.172  23.039  0.00  0.00     0.108 A 
ATOM     17  N   UNL d   1     -49.512  14.842  23.505  0.00  0.00    -0.237 NA
ATOM     18  C   UNL d   1     -50.261  15.174  23.348  0.00  0.00     0.111 A 
ATOM     19  C   UNL d   1     -50.578  15.860  23.698  0.00  0.00     0.028 C 
ATOM     20  S   UNL d   1     -50.626  14.697  22.782  0.00  0.00    -0.066 SA
ATOM     21  C   UNL d   1     -50.110  14.077  22.591  0.00  0.00     0.058 A 
ENDBRANCH  15  16
ENDBRANCH  14  15
ENDBRANCH   1  14
TORSDOF 4
ENDMDL
MODEL 4
REMARK VINA RESULT:      -6.3      1.603      1.871
REMARK  4 active torsions:
REMARK  status: ('A' for Active; 'I' for Inactive)
REMARK    1  A    between atoms: C_4  and  S_1 
REMARK    2  A    between atoms: N_5  and  S_1 
REMARK    3  A    between atoms: C_3  and  C_12 
REMARK    4  A    between atoms: C_12  and  N_5 
ROOT
ATOM      1  S   UNL d   1     -46.404  13.388  22.787  0.00  0.00     0.285 S 
ATOM      2  O   UNL d   1     -46.536  13.188  21.998  0.00  0.00    -0.198 OA
ATOM      3  O   UNL d   1     -46.261  13.589  23.590  0.00  0.00    -0.198 OA
ENDROOT
BRANCH   1   4
ATOM      4  C   UNL d   1     -47.202  13.561  22.885  0.00  0.00     0.105 A 
ATOM      5  C   UNL d   1     -47.484  14.328  22.708  0.00  0.00     0.013 A 
ATOM      6  C   UNL d   1     -48.289  14.479  22.814  0.00  0.00     0.001 A 
ATOM      7  C   UNL d   1     -48.567  15.243  22.636  0.00  0.00     0.000 A 
ATOM      8  C   UNL d   1     -48.803  13.898  23.085  0.00  0.00     0.000 A 
ATOM      9  C   UNL d   1     -49.370  15.406  22.738  0.00  0.00     0.000 A 
ATOM     10  C   UNL d   1     -49.889  14.827  23.010  0.00  0.00     0.000 A 
ATOM     11  C   UNL d   1     -49.596  14.073  23.182  0.00  0.00     0.000 A 
ATOM     12  C   UNL d   1     -48.513  13.158  23.253  0.00  0.00     0.001 A 
ATOM     13  C   UNL d   1     -47.715  12.984  23.155  0.00  0.00     0.013 A 
ENDBRANCH   1   4
BRANCH   1  14
ATOM     14  N   UNL d   1     -45.593  13.214  22.697  0.00  0.00    -0.155 NA
BRANCH  14  15
ATOM     15  C   UNL d   1     -45.294  12.966  21.971  0.00  0.00     0.132 C 
BRANCH  15  16
ATOM     16  C   UNL d   1     -44.484  12.792  21.885  0.00  0.00     0.108 A 
ATOM     17  N   UNL d   1     -43.944  13.236  21.456  0.00  0.00    -0.237 NA
ATOM     18  C   UNL d   1     -43.198  12.866  21.516  0.00  0.00     0.111 A 
ATOM     19  C   UNL d   1     -42.489  13.128  21.165  0.00  0.00     0.028 C 
ATOM     20  S   UNL d   1     -43.295  12.195  21.986  0.00  0.00    -0.066 SA
ATOM     21  C   UNL d   1     -44.090  12.149  22.215  0.00  0.00     0.058 A 
ENDBRANCH  15  16
ENDBRANCH  14  15
ENDBRANCH   1  14
TORSDOF 4
ENDMDL
