MODEL 1
REMARK VINA RESULT:     164.0      0.000      0.000
REMARK  3 active torsions:
REMARK  status: ('A' for Active; 'I' for Inactive)
REMARK    1  A    between atoms: N_9  and  C_2 
REMARK    2  A    between atoms: C_15  and  C_7 
REMARK    3  A    between atoms: C_11  and  C_14 
ROOT
ATOM      1  C   UNL d   1     -58.555 -99.983 -44.093  0.00  0.00     0.152 A 
ATOM      2  C   UNL d   1     -58.081-100.313 -44.690  0.00  0.00     0.174 A 
ATOM      3  C   UNL d   1     -59.222 -99.530 -44.294  0.00  0.00     0.111 A 
ATOM      4  N   UNL d   1     -58.282-100.183 -45.492  0.00  0.00    -0.207 NA
ATOM      5  N   UNL d   1     -59.421 -99.403 -45.082  0.00  0.00    -0.225 NA
ATOM      6  O   UNL d   1     -58.356-100.111 -43.297  0.00  0.00    -0.302 OA
ATOM      7  C   UNL d   1     -58.954 -99.727 -45.686  0.00  0.00     0.164 A 
ATOM      8  C   UNL d   1     -59.492 -99.332 -42.895  0.00  0.00     0.043 A 
ATOM      9  C   UNL d   1     -58.825 -99.785 -42.694  0.00  0.00     0.102 A 
ATOM     10  C   UNL d   1     -59.958 -99.009 -42.295  0.00  0.00     0.004 A 
ATOM     11  C   UNL d   1     -58.627 -99.912 -41.911  0.00  0.00     0.025 A 
ATOM     12  C   UNL d   1     -59.760 -99.136 -41.508  0.00  0.00     0.000 A 
ATOM     13  C   UNL d   1     -59.091 -99.590 -41.315  0.00  0.00     0.002 A 
ENDROOT
BRANCH   2  14
ATOM     14  N   UNL d   1     -57.419-100.762 -44.499  0.00  0.00    -0.287 N 
ATOM     15  C   UNL d   1     -57.397-101.167 -43.789  0.00  0.00     0.082 A 
ATOM     16  C   UNL d   1     -56.734-101.615 -43.602  0.00  0.00     0.025 A 
ATOM     17  C   UNL d   1     -56.099-101.654 -44.126  0.00  0.00     0.067 A 
ATOM     18  C   UNL d   1     -56.128-101.246 -44.834  0.00  0.00     0.025 A 
ATOM     19  C   UNL d   1     -56.790-100.797 -45.025  0.00  0.00     0.082 A 
BRANCH  17  20
ATOM     20  C   UNL d   1     -55.416-102.117 -43.929  0.00  0.00     0.211 C 
ATOM     21  O   UNL d   1     -55.011-101.985 -43.198  0.00  0.00    -0.644 OA
ATOM     22  O   UNL d   1     -55.143-102.711 -44.464  0.00  0.00    -0.644 OA
ENDBRANCH  17  20
ENDBRANCH   2  14
BRANCH   7  23
ATOM     23  C   UNL d   1     -59.153 -99.599 -46.469  0.00  0.00     0.036 A 
ATOM     24  C   UNL d   1     -58.963 -98.896 -46.831  0.00  0.00     0.003 A 
ATOM     25  C   UNL d   1     -59.163 -98.764 -47.624  0.00  0.00     0.000 A 
ATOM     26  C   UNL d   1     -59.557 -99.349 -48.045  0.00  0.00     0.000 A 
ATOM     27  C   UNL d   1     -59.751-100.068 -47.676  0.00  0.00     0.000 A 
ATOM     28  C   UNL d   1     -59.550-100.188 -46.897  0.00  0.00     0.003 A 
ENDBRANCH   7  23
TORSDOF 3
ENDMDL
