MODEL 1
REMARK VINA RESULT:      -2.9      0.000      0.000
REMARK  3 active torsions:
REMARK  status: ('A' for Active; 'I' for Inactive)
REMARK    1  A    between atoms: N_2  and  S_1 
REMARK    2  A    between atoms: C_5  and  S_1 
REMARK    3  A    between atoms: C_3  and  N_4 
ROOT
ATOM      1  N   UNL d   1      32.888  20.249 -22.145  0.00  0.00    -0.226 N 
ATOM      2  N   UNL d   1      32.803  21.627 -21.247  0.00  0.00    -0.134 N 
ATOM      3  C   UNL d   1      33.239  20.941 -22.422  0.00  0.00     0.111 A 
ATOM      4  C   UNL d   1      32.494  20.246 -21.420  0.00  0.00     0.111 A 
ATOM      5  C   UNL d   1      32.452  20.936 -20.971  0.00  0.00     0.118 A 
ATOM      6  C   UNL d   1      33.197  21.629 -21.972  0.00  0.00     0.118 A 
ENDROOT
BRANCH   1   7
ATOM      7  S   UNL d   1      32.935  19.555 -22.605  0.00  0.00     0.271 S 
ATOM      8  O   UNL d   1      32.651  19.975 -23.263  0.00  0.00    -0.200 OA
ATOM      9  O   UNL d   1      33.221  19.141 -21.940  0.00  0.00    -0.200 OA
BRANCH   7  10
ATOM     10  C   UNL d   1      32.985  18.859 -23.058  0.00  0.00     0.104 A 
ATOM     11  C   UNL d   1      32.825  18.901 -23.879  0.00  0.00     0.015 A 
ATOM     12  C   UNL d   1      32.874  18.205 -24.340  0.00  0.00     0.030 A 
ATOM     13  C   UNL d   1      33.080  17.482 -23.978  0.00  0.00     0.140 A 
ATOM     14  C   UNL d   1      33.238  17.447 -23.157  0.00  0.00     0.030 A 
ATOM     15  F   UNL d   1      33.128  16.793 -24.435  0.00  0.00    -0.204 F 
ATOM     16  C   UNL d   1      33.187  18.148 -22.704  0.00  0.00     0.015 A 
ENDBRANCH   7  10
ENDBRANCH   1   7
BRANCH   2  17
ATOM     17  C   UNL d   1      32.758  22.303 -20.801  0.00  0.00     0.735 A 
ATOM     18  N   UNL d   1      32.380  22.975 -21.095  0.00  0.00    -0.059 NA
ATOM     19  C   UNL d   1      32.337  23.657 -20.641  0.00  0.00     0.120 A 
ATOM     20  C   UNL d   1      32.673  23.668 -19.889  0.00  0.00     0.043 A 
ATOM     21  C   UNL d   1      33.051  22.997 -19.595  0.00  0.00     0.120 A 
ATOM     22  N   UNL d   1      33.091  22.322 -20.052  0.00  0.00    -0.059 NA
ENDBRANCH   2  17
TORSDOF 3
ENDMDL
MODEL 2
REMARK VINA RESULT:      -2.7      2.218      4.939
REMARK  3 active torsions:
REMARK  status: ('A' for Active; 'I' for Inactive)
REMARK    1  A    between atoms: N_2  and  S_1 
REMARK    2  A    between atoms: C_5  and  S_1 
REMARK    3  A    between atoms: C_3  and  N_4 
ROOT
ATOM      1  N   UNL d   1      32.920  20.395 -21.960  0.00  0.00    -0.226 N 
ATOM      2  N   UNL d   1      33.050  19.087 -22.951  0.00  0.00    -0.134 N 
ATOM      3  C   UNL d   1      33.097  19.656 -21.642  0.00  0.00     0.111 A 
ATOM      4  C   UNL d   1      32.808  20.480 -22.773  0.00  0.00     0.111 A 
ATOM      5  C   UNL d   1      32.873  19.825 -23.268  0.00  0.00     0.118 A 
ATOM      6  C   UNL d   1      33.162  19.002 -22.138  0.00  0.00     0.118 A 
ENDROOT
BRANCH   1   7
ATOM      7  S   UNL d   1      32.856  21.053 -21.452  0.00  0.00     0.271 S 
ATOM      8  O   UNL d   1      32.669  20.545 -20.822  0.00  0.00    -0.200 OA
ATOM      9  O   UNL d   1      33.044  21.556 -22.090  0.00  0.00    -0.200 OA
BRANCH   7  10
ATOM     10  C   UNL d   1      32.794  21.714 -20.951  0.00  0.00     0.104 A 
ATOM     11  C   UNL d   1      32.268  22.331 -21.162  0.00  0.00     0.015 A 
ATOM     12  C   UNL d   1      32.200  22.999 -20.663  0.00  0.00     0.030 A 
ATOM     13  C   UNL d   1      32.655  23.042 -19.965  0.00  0.00     0.140 A 
ATOM     14  C   UNL d   1      33.179  22.422 -19.760  0.00  0.00     0.030 A 
ATOM     15  F   UNL d   1      32.589  23.702 -19.471  0.00  0.00    -0.204 F 
ATOM     16  C   UNL d   1      33.240  21.758 -20.265  0.00  0.00     0.015 A 
ENDBRANCH   7  10
ENDBRANCH   1   7
BRANCH   2  17
ATOM     17  C   UNL d   1      33.113  18.445 -23.445  0.00  0.00     0.735 A 
ATOM     18  N   UNL d   1      33.119  18.545 -24.264  0.00  0.00    -0.059 NA
ATOM     19  C   UNL d   1      33.183  17.894 -24.759  0.00  0.00     0.120 A 
ATOM     20  C   UNL d   1      33.241  17.140 -24.435  0.00  0.00     0.043 A 
ATOM     21  C   UNL d   1      33.235  17.039 -23.616  0.00  0.00     0.120 A 
ATOM     22  N   UNL d   1      33.171  17.690 -23.130  0.00  0.00    -0.059 NA
ENDBRANCH   2  17
TORSDOF 3
ENDMDL
MODEL 3
REMARK VINA RESULT:      -1.8      2.231      5.155
REMARK  3 active torsions:
REMARK  status: ('A' for Active; 'I' for Inactive)
REMARK    1  A    between atoms: N_2  and  S_1 
REMARK    2  A    between atoms: C_5  and  S_1 
REMARK    3  A    between atoms: C_3  and  N_4 
ROOT
ATOM      1  N   UNL d   1      32.843  19.263 -22.820  0.00  0.00    -0.226 N 
ATOM      2  N   UNL d   1      32.776  17.779 -23.531  0.00  0.00    -0.134 N 
ATOM      3  C   UNL d   1      33.241  18.627 -22.480  0.00  0.00     0.111 A 
ATOM      4  C   UNL d   1      32.412  19.157 -23.516  0.00  0.00     0.111 A 
ATOM      5  C   UNL d   1      32.379  18.415 -23.871  0.00  0.00     0.118 A 
ATOM      6  C   UNL d   1      33.207  17.885 -22.836  0.00  0.00     0.118 A 
ENDROOT
BRANCH   1   7
ATOM      7  S   UNL d   1      32.883  20.011 -22.454  0.00  0.00     0.271 S 
ATOM      8  O   UNL d   1      33.241  20.323 -23.135  0.00  0.00    -0.200 OA
ATOM      9  O   UNL d   1      32.522  19.690 -21.774  0.00  0.00    -0.200 OA
BRANCH   7  10
ATOM     10  C   UNL d   1      32.918  20.754 -22.082  0.00  0.00     0.104 A 
ATOM     11  C   UNL d   1      32.657  20.820 -21.289  0.00  0.00     0.015 A 
ATOM     12  C   UNL d   1      32.690  21.564 -20.908  0.00  0.00     0.030 A 
ATOM     13  C   UNL d   1      32.981  22.228 -21.322  0.00  0.00     0.140 A 
ATOM     14  C   UNL d   1      33.240  22.155 -22.114  0.00  0.00     0.030 A 
ATOM     15  F   UNL d   1      33.014  22.964 -20.945  0.00  0.00    -0.204 F 
ATOM     16  C   UNL d   1      33.204  21.407 -22.486  0.00  0.00     0.015 A 
ENDBRANCH   7  10
ENDBRANCH   1   7
BRANCH   2  17
ATOM     17  C   UNL d   1      32.739  17.050 -23.886  0.00  0.00     0.735 A 
ATOM     18  N   UNL d   1      33.154  16.902 -24.584  0.00  0.00    -0.059 NA
ATOM     19  C   UNL d   1      33.114  16.164 -24.940  0.00  0.00     0.120 A 
ATOM     20  C   UNL d   1      32.658  15.571 -24.597  0.00  0.00     0.043 A 
ATOM     21  C   UNL d   1      32.244  15.718 -23.899  0.00  0.00     0.120 A 
ATOM     22  N   UNL d   1      32.287  16.454 -23.551  0.00  0.00    -0.059 NA
ENDBRANCH   2  17
TORSDOF 3
ENDMDL
