MODEL 1
REMARK VINA RESULT:      76.7      0.000      0.000
REMARK  5 active torsions:
REMARK  status: ('A' for Active; 'I' for Inactive)
REMARK    1  A    between atoms: N_12  and  C_5 
REMARK    2  A    between atoms: C_21  and  N_9 
REMARK    3  A    between atoms: C_10  and  S_20 
REMARK    4  A    between atoms: S_20  and  C_26 
REMARK    5  A    between atoms: C_26  and  C_21 
ROOT
ATOM      1  C   UNL d   1      15.163  16.161  -1.197  0.00  0.00     0.191 A 
ATOM      2  C   UNL d   1      14.914  15.965  -1.953  0.00  0.00     0.173 A 
ATOM      3  N   UNL d   1      15.138  15.480  -0.734  0.00  0.00    -0.042 NA
ATOM      4  N   UNL d   1      15.383  16.934  -1.025  0.00  0.00    -0.240 N 
ATOM      5  C   UNL d   1      14.871  14.865  -1.210  0.00  0.00     0.722 A 
ATOM      6  N   UNL d   1      15.103  17.320  -2.366  0.00  0.00    -0.223 N 
ATOM      7  C   UNL d   1      15.353  17.516  -1.610  0.00  0.00     0.343 A 
ATOM      8  C   UNL d   1      14.882  16.542  -2.541  0.00  0.00     0.288 A 
ATOM      9  N   UNL d   1      14.730  15.161  -1.967  0.00  0.00    -0.132 N 
ATOM     10  O   UNL d   1      15.577  18.299  -1.429  0.00  0.00    -0.245 OA
ATOM     11  O   UNL d   1      14.629  16.344  -3.305  0.00  0.00    -0.265 OA
ATOM     12  C   UNL d   1      15.632  17.130  -0.269  0.00  0.00     0.105 C 
ATOM     13  C   UNL d   1      15.072  17.897  -2.950  0.00  0.00     0.107 C 
ENDROOT
BRANCH   9  14
ATOM     14  C   UNL d   1      14.458  14.730  -2.615  0.00  0.00     0.105 C 
BRANCH  14  15
ATOM     15  C   UNL d   1      13.877  15.050  -3.116  0.00  0.00     0.057 C 
BRANCH  15  16
ATOM     16  S   UNL d   1      13.158  14.643  -3.222  0.00  0.00    -0.059 SA
BRANCH  16  17
ATOM     17  C   UNL d   1      13.124  14.004  -3.758  0.00  0.00     0.141 A 
ATOM     18  N   UNL d   1      12.956  14.143  -4.546  0.00  0.00    -0.232 NA
ATOM     19  C   UNL d   1      12.958  13.428  -4.937  0.00  0.00     0.088 A 
ATOM     20  C   UNL d   1      12.825  13.241  -5.733  0.00  0.00     0.020 A 
ATOM     21  C   UNL d   1      13.125  12.841  -4.403  0.00  0.00     0.049 A 
ATOM     22  C   UNL d   1      12.862  12.452  -5.983  0.00  0.00     0.002 A 
ATOM     23  C   UNL d   1      13.029  11.867  -5.446  0.00  0.00     0.001 A 
ATOM     24  C   UNL d   1      13.162  12.059  -4.649  0.00  0.00     0.008 A 
ATOM     25  S   UNL d   1      13.231  13.204  -3.652  0.00  0.00    -0.060 SA
ENDBRANCH  16  17
ENDBRANCH  15  16
ENDBRANCH  14  15
ENDBRANCH   9  14
BRANCH   5  26
ATOM     26  N   UNL d   1      14.776  14.098  -0.931  0.00  0.00    -0.139 N 
ATOM     27  C   UNL d   1      15.374  13.548  -1.015  0.00  0.00     0.098 A 
ATOM     28  C   UNL d   1      15.278  12.770  -0.732  0.00  0.00     0.020 A 
ATOM     29  C   UNL d   1      14.563  12.559  -0.362  0.00  0.00     0.003 A 
ATOM     30  C   UNL d   1      13.965  13.113  -0.280  0.00  0.00     0.020 A 
ATOM     31  C   UNL d   1      14.467  11.789  -0.082  0.00  0.00     0.000 C 
ATOM     32  C   UNL d   1      14.072  13.881  -0.564  0.00  0.00     0.098 A 
ENDBRANCH   5  26
TORSDOF 5
ENDMDL
MODEL 2
REMARK VINA RESULT:      77.7      1.963      3.807
REMARK  5 active torsions:
REMARK  status: ('A' for Active; 'I' for Inactive)
REMARK    1  A    between atoms: N_12  and  C_5 
REMARK    2  A    between atoms: C_21  and  N_9 
REMARK    3  A    between atoms: C_10  and  S_20 
REMARK    4  A    between atoms: S_20  and  C_26 
REMARK    5  A    between atoms: C_26  and  C_21 
ROOT
ATOM      1  C   UNL d   1      14.556  14.668  -1.907  0.00  0.00     0.191 A 
ATOM      2  C   UNL d   1      14.500  15.274  -2.456  0.00  0.00     0.173 A 
ATOM      3  N   UNL d   1      14.277  13.976  -2.258  0.00  0.00    -0.042 NA
ATOM      4  N   UNL d   1      14.853  14.821  -1.157  0.00  0.00    -0.240 N 
ATOM      5  C   UNL d   1      14.049  14.161  -3.026  0.00  0.00     0.722 A 
ATOM      6  N   UNL d   1      15.040  16.189  -1.502  0.00  0.00    -0.223 N 
ATOM      7  C   UNL d   1      15.096  15.583  -0.952  0.00  0.00     0.343 A 
ATOM      8  C   UNL d   1      14.741  16.036  -2.258  0.00  0.00     0.288 A 
ATOM      9  N   UNL d   1      14.186  14.965  -3.154  0.00  0.00    -0.132 N 
ATOM     10  O   UNL d   1      15.398  15.732  -0.188  0.00  0.00    -0.245 OA
ATOM     11  O   UNL d   1      14.684  16.649  -2.813  0.00  0.00    -0.265 OA
ATOM     12  C   UNL d   1      14.909  14.214  -0.607  0.00  0.00     0.105 C 
ATOM     13  C   UNL d   1      15.282  16.948  -1.301  0.00  0.00     0.107 C 
ENDROOT
BRANCH   9  14
ATOM     14  C   UNL d   1      14.035  15.379  -3.851  0.00  0.00     0.105 C 
BRANCH  14  15
ATOM     15  C   UNL d   1      14.518  16.018  -4.071  0.00  0.00     0.057 C 
BRANCH  15  16
ATOM     16  S   UNL d   1      14.669  16.159  -4.878  0.00  0.00    -0.059 SA
BRANCH  16  17
ATOM     17  C   UNL d   1      14.453  16.891  -5.214  0.00  0.00     0.141 A 
ATOM     18  N   UNL d   1      14.830  17.576  -4.975  0.00  0.00    -0.232 NA
ATOM     19  C   UNL d   1      14.511  18.200  -5.390  0.00  0.00     0.088 A 
ATOM     20  C   UNL d   1      14.681  19.011  -5.371  0.00  0.00     0.020 A 
ATOM     21  C   UNL d   1      13.937  17.916  -5.887  0.00  0.00     0.049 A 
ATOM     22  C   UNL d   1      14.262  19.532  -5.862  0.00  0.00     0.002 A 
ATOM     23  C   UNL d   1      13.689  19.243  -6.358  0.00  0.00     0.001 A 
ATOM     24  C   UNL d   1      13.522  18.430  -6.373  0.00  0.00     0.008 A 
ATOM     25  S   UNL d   1      13.897  17.084  -5.778  0.00  0.00    -0.060 SA
ENDBRANCH  16  17
ENDBRANCH  15  16
ENDBRANCH  14  15
ENDBRANCH   9  14
BRANCH   5  26
ATOM     26  N   UNL d   1      13.742  13.602  -3.544  0.00  0.00    -0.139 N 
ATOM     27  C   UNL d   1      13.749  12.808  -3.351  0.00  0.00     0.098 A 
ATOM     28  C   UNL d   1      13.437  12.241  -3.876  0.00  0.00     0.020 A 
ATOM     29  C   UNL d   1      13.118  12.494  -4.602  0.00  0.00     0.003 A 
ATOM     30  C   UNL d   1      13.113  13.291  -4.792  0.00  0.00     0.020 A 
ATOM     31  C   UNL d   1      12.809  11.933  -5.123  0.00  0.00     0.000 C 
ATOM     32  C   UNL d   1      13.425  13.844  -4.264  0.00  0.00     0.098 A 
ENDBRANCH   5  26
TORSDOF 5
ENDMDL
