MODEL 1
REMARK VINA RESULT:      -2.9      0.000      0.000
REMARK  8 active torsions:
REMARK  status: ('A' for Active; 'I' for Inactive)
REMARK    1  A    between atoms: C_6  and  C_1 
REMARK    2  A    between atoms: C_7  and  C_3 
REMARK       I    between atoms: N_10  and  C_6 
REMARK    3  A    between atoms: O_12  and  C_7 
REMARK    4  A    between atoms: C_20  and  N_10 
REMARK    5  A    between atoms: C_23  and  O_12 
REMARK    6  A    between atoms: O_21  and  C_14 
REMARK    7  A    between atoms: C_15  and  C_22 
REMARK    8  A    between atoms: C_22  and  C_20 
ROOT
ATOM      1  C   UNL d   1     -41.503-122.601 -52.791  0.00  0.00     0.075 A 
ATOM      2  C   UNL d   1     -41.625-122.904 -53.549  0.00  0.00     0.027 A 
ATOM      3  C   UNL d   1     -41.708-122.273 -54.070  0.00  0.00     0.121 A 
ATOM      4  N   UNL d   1     -41.637-121.568 -53.631  0.00  0.00    -0.349 N 
ATOM      5  C   UNL d   1     -41.511-121.776 -52.844  0.00  0.00     0.061 A 
ATOM      6  C   UNL d   1     -41.658-123.703 -53.749  0.00  0.00     0.002 C 
ATOM      7  C   UNL d   1     -41.409-121.250 -52.212  0.00  0.00     0.019 C 
ATOM      8  H   UNL d   1     -41.685-120.802 -53.934  0.00  0.00     0.166 HD
ENDROOT
BRANCH   1   9
ATOM      9  C   UNL d   1     -41.394-123.041 -52.106  0.00  0.00     0.281 C 
ATOM     10  O   UNL d   1     -41.124-123.817 -52.153  0.00  0.00    -0.265 OA
ATOM     11  N   UNL d   1     -41.553-122.708 -51.367  0.00  0.00    -0.206 NA
BRANCH  11  12
ATOM     12  C   UNL d   1     -41.443-123.148 -50.682  0.00  0.00     0.102 C 
BRANCH  12  13
ATOM     13  C   UNL d   1     -41.270-122.773 -49.972  0.00  0.00     0.021 C 
BRANCH  13  14
ATOM     14  C   UNL d   1     -41.606-123.032 -49.272  0.00  0.00     0.002 A 
ATOM     15  C   UNL d   1     -42.414-123.215 -49.231  0.00  0.00     0.002 A 
ATOM     16  C   UNL d   1     -42.749-123.474 -48.531  0.00  0.00     0.024 A 
ATOM     17  C   UNL d   1     -42.282-123.556 -47.849  0.00  0.00     0.094 A 
ATOM     18  C   UNL d   1     -41.475-123.376 -47.877  0.00  0.00     0.024 A 
ATOM     19  C   UNL d   1     -41.138-123.114 -48.590  0.00  0.00     0.002 A 
BRANCH  17  20
ATOM     20  O   UNL d   1     -42.621-123.817 -47.144  0.00  0.00    -0.328 OA
ATOM     21  C   UNL d   1     -43.439-123.754 -47.031  0.00  0.00     0.181 C 
ENDBRANCH  17  20
ENDBRANCH  13  14
ENDBRANCH  12  13
ENDBRANCH  11  12
ENDBRANCH   1   9
BRANCH   3  22
ATOM     22  C   UNL d   1     -41.840-122.319 -54.887  0.00  0.00     0.316 C 
ATOM     23  O   UNL d   1     -41.204-122.337 -55.411  0.00  0.00    -0.257 OA
BRANCH  22  24
ATOM     24  O   UNL d   1     -42.612-122.345 -55.167  0.00  0.00    -0.270 OA
BRANCH  24  25
ATOM     25  C   UNL d   1     -42.807-121.953 -55.868  0.00  0.00     0.126 C 
ATOM     26  C   UNL d   1     -43.302-122.309 -56.417  0.00  0.00     0.029 C 
ENDBRANCH  24  25
ENDBRANCH  22  24
ENDBRANCH   3  22
TORSDOF 8
ENDMDL
