MODEL 1
REMARK VINA RESULT:       4.7      0.000      0.000
REMARK  9 active torsions:
REMARK  status: ('A' for Active; 'I' for Inactive)
REMARK    1  A    between atoms: C_21  and  N_1 
REMARK    2  A    between atoms: S_7  and  C_2 
REMARK       I    between atoms: C_6  and  N_18 
REMARK    3  A    between atoms: C_15  and  C_6 
REMARK    4  A    between atoms: C_19  and  S_7 
REMARK    5  A    between atoms: C_8  and  C_19 
REMARK       I    between atoms: N_11  and  C_8 
REMARK    6  A    between atoms: C_9  and  C_20 
REMARK    7  A    between atoms: C_20  and  N_11 
REMARK    8  A    between atoms: N_18  and  C_23 
REMARK    9  A    between atoms: C_23  and  C_21 
ROOT
ATOM      1  N   UNL d   1     -41.228-123.000 -51.432  0.00  0.00    -0.302 N 
ATOM      2  C   UNL d   1     -41.430-122.527 -52.669  0.00  0.00     0.049 A 
ATOM      3  C   UNL d   1     -41.357-123.217 -52.231  0.00  0.00     0.087 A 
ATOM      4  C   UNL d   1     -41.349-121.879 -52.156  0.00  0.00     0.024 A 
ATOM      5  C   UNL d   1     -41.224-122.174 -51.394  0.00  0.00     0.065 A 
ATOM      6  C   UNL d   1     -41.374-121.068 -52.292  0.00  0.00     0.002 A 
ATOM      7  C   UNL d   1     -41.125-121.650 -50.770  0.00  0.00     0.018 A 
ATOM      8  C   UNL d   1     -41.273-120.545 -51.660  0.00  0.00     0.000 A 
ATOM      9  C   UNL d   1     -41.148-120.832 -50.898  0.00  0.00     0.002 A 
ENDROOT
BRANCH   1  10
ATOM     10  C   UNL d   1     -41.123-123.511 -50.795  0.00  0.00     0.101 C 
BRANCH  10  11
ATOM     11  C   UNL d   1     -41.779-123.814 -50.395  0.00  0.00     0.121 C 
BRANCH  11  12
ATOM     12  N   UNL d   1     -41.790-123.817 -49.564  0.00  0.00    -0.205 NA
ATOM     13  C   UNL d   1     -42.492-123.642 -49.159  0.00  0.00     0.279 C 
ATOM     14  O   UNL d   1     -43.183-123.463 -49.586  0.00  0.00    -0.265 OA
BRANCH  13  15
ATOM     15  C   UNL d   1     -42.502-123.645 -48.336  0.00  0.00     0.058 A 
ATOM     16  C   UNL d   1     -43.188-123.799 -47.934  0.00  0.00     0.005 A 
ATOM     17  C   UNL d   1     -43.216-123.806 -47.109  0.00  0.00     0.000 A 
ATOM     18  C   UNL d   1     -42.527-123.653 -46.677  0.00  0.00     0.000 A 
ATOM     19  C   UNL d   1     -41.816-123.494 -47.082  0.00  0.00     0.000 A 
ATOM     20  C   UNL d   1     -41.805-123.491 -47.910  0.00  0.00     0.005 A 
ENDBRANCH  13  15
ENDBRANCH  11  12
ENDBRANCH  10  11
ENDBRANCH   1  10
BRANCH   2  21
ATOM     21  S   UNL d   1     -41.563-122.481 -53.485  0.00  0.00    -0.080 SA
BRANCH  21  22
ATOM     22  C   UNL d   1     -41.876-123.133 -53.884  0.00  0.00     0.098 C 
BRANCH  22  23
ATOM     23  C   UNL d   1     -42.553-123.058 -54.341  0.00  0.00     0.286 C 
ATOM     24  N   UNL d   1     -42.532-122.681 -55.070  0.00  0.00    -0.204 NA
ATOM     25  O   UNL d   1     -43.267-123.367 -54.061  0.00  0.00    -0.265 OA
BRANCH  24  26
ATOM     26  C   UNL d   1     -41.823-122.376 -55.345  0.00  0.00     0.127 C 
BRANCH  26  27
ATOM     27  C   UNL d   1     -41.824-121.825 -55.960  0.00  0.00     0.119 A 
ATOM     28  O   UNL d   1     -42.284-121.866 -56.636  0.00  0.00    -0.304 OA
ATOM     29  C   UNL d   1     -42.111-121.209 -57.098  0.00  0.00     0.123 A 
ATOM     30  C   UNL d   1     -41.549-120.765 -56.710  0.00  0.00     0.029 A 
ATOM     31  C   UNL d   1     -41.369-121.144 -56.006  0.00  0.00     0.028 A 
ENDBRANCH  26  27
ENDBRANCH  24  26
ENDBRANCH  22  23
ENDBRANCH  21  22
ENDBRANCH   2  21
TORSDOF 9
ENDMDL
