MODEL 1
REMARK VINA RESULT:      75.5      0.000      0.000
REMARK  6 active torsions:
REMARK  status: ('A' for Active; 'I' for Inactive)
REMARK    1  A    between atoms: N_2  and  S_1 
REMARK    2  A    between atoms: C_4  and  S_1 
REMARK    3  A    between atoms: C_5  and  N_3 
REMARK    4  A    between atoms: C_10  and  C_4 
REMARK    5  A    between atoms: C_14  and  C_10 
REMARK    6  A    between atoms: O_15  and  C_13 
ROOT
ATOM      1  N   UNL d   1      61.081  47.622  50.763  0.00  0.00    -0.226 N 
ATOM      2  N   UNL d   1      61.357  46.093  50.186  0.00  0.00    -0.300 N 
ATOM      3  C   UNL d   1      60.545  47.007  50.933  0.00  0.00     0.111 A 
ATOM      4  C   UNL d   1      61.737  47.465  50.315  0.00  0.00     0.111 A 
ATOM      5  C   UNL d   1      61.882  46.715  50.025  0.00  0.00     0.100 A 
ATOM      6  C   UNL d   1      60.690  46.257  50.644  0.00  0.00     0.100 A 
ENDROOT
BRANCH   1   7
ATOM      7  S   UNL d   1      60.942  48.390  51.053  0.00  0.00     0.272 S 
ATOM      8  O   UNL d   1      61.160  48.132  51.830  0.00  0.00    -0.200 OA
ATOM      9  O   UNL d   1      60.734  48.635  50.302  0.00  0.00    -0.200 OA
BRANCH   7  10
ATOM     10  C   UNL d   1      60.809  49.140  51.347  0.00  0.00     0.116 C 
BRANCH  10  11
ATOM     11  C   UNL d   1      60.393  49.700  50.885  0.00  0.00     0.014 C 
BRANCH  11  12
ATOM     12  C   UNL d   1      59.538  49.700  50.860  0.00  0.00     0.001 A 
ATOM     13  C   UNL d   1      59.137  49.707  50.117  0.00  0.00     0.000 A 
ATOM     14  C   UNL d   1      58.312  49.707  50.108  0.00  0.00     0.000 A 
ATOM     15  C   UNL d   1      57.885  49.698  50.800  0.00  0.00     0.000 A 
ATOM     16  C   UNL d   1      58.296  49.691  51.531  0.00  0.00     0.000 A 
ATOM     17  C   UNL d   1      59.121  49.691  51.563  0.00  0.00     0.000 A 
ENDBRANCH  11  12
ENDBRANCH  10  11
ENDBRANCH   7  10
ENDBRANCH   1   7
BRANCH   2  18
ATOM     18  C   UNL d   1      61.484  45.336  49.907  0.00  0.00     0.086 A 
ATOM     19  C   UNL d   1      61.442  44.681  50.440  0.00  0.00     0.110 A 
ATOM     20  C   UNL d   1      61.571  43.912  50.160  0.00  0.00     0.026 A 
ATOM     21  C   UNL d   1      61.745  43.776  49.339  0.00  0.00     0.002 A 
ATOM     22  C   UNL d   1      61.781  44.429  48.838  0.00  0.00     0.002 A 
ATOM     23  C   UNL d   1      61.649  45.204  49.129  0.00  0.00     0.019 A 
BRANCH  19  24
ATOM     24  O   UNL d   1      61.275  44.810  51.233  0.00  0.00    -0.327 OA
ATOM     25  C   UNL d   1      61.273  44.187  51.774  0.00  0.00     0.181 C 
ENDBRANCH  19  24
ENDBRANCH   2  18
TORSDOF 6
ENDMDL
