MODEL 1
REMARK VINA RESULT:      -4.7      0.000      0.000
REMARK  6 active torsions:
REMARK  status: ('A' for Active; 'I' for Inactive)
REMARK       I    between atoms: N_2  and  C_1 
REMARK    1  A    between atoms: C_5  and  C_1 
REMARK    2  A    between atoms: C_3  and  N_2 
REMARK    3  A    between atoms: O_16  and  C_6 
REMARK    4  A    between atoms: O_17  and  C_11 
REMARK    5  A    between atoms: O_18  and  C_12 
REMARK    6  A    between atoms: C_19  and  O_18 
ROOT
ATOM      1  C   UNL d   1      57.634  -0.238  30.591  0.00  0.00     0.279 C 
ATOM      2  N   UNL d   1      58.221  -0.812  30.489  0.00  0.00    -0.206 NA
ATOM      3  O   UNL d   1      57.514   0.335  30.019  0.00  0.00    -0.265 OA
ENDROOT
BRANCH   1   4
ATOM      4  C   UNL d   1      57.156  -0.246  31.289  0.00  0.00     0.058 A 
ATOM      5  C   UNL d   1      56.970   0.467  31.661  0.00  0.00     0.007 A 
ATOM      6  C   UNL d   1      56.510   0.460  32.334  0.00  0.00     0.025 A 
ATOM      7  C   UNL d   1      56.234  -0.261  32.639  0.00  0.00     0.100 A 
ATOM      8  C   UNL d   1      56.426  -0.963  32.260  0.00  0.00     0.025 A 
ATOM      9  C   UNL d   1      56.886  -0.955  31.587  0.00  0.00     0.007 A 
BRANCH   7  10
ATOM     10  O   UNL d   1      55.759  -0.269  33.333  0.00  0.00    -0.305 OA
BRANCH  10  11
ATOM     11  C   UNL d   1      55.256   0.367  33.488  0.00  0.00     0.123 C 
ATOM     12  C   UNL d   1      54.746   0.333  34.137  0.00  0.00     0.029 C 
ENDBRANCH  10  11
ENDBRANCH   7  10
ENDBRANCH   1   4
BRANCH   2  13
ATOM     13  C   UNL d   1      58.681  -0.804  29.817  0.00  0.00     0.109 A 
ATOM     14  C   UNL d   1      59.034  -0.099  29.582  0.00  0.00     0.045 A 
ATOM     15  C   UNL d   1      59.495  -0.087  28.910  0.00  0.00     0.096 A 
ATOM     16  C   UNL d   1      59.616  -0.773  28.456  0.00  0.00     0.026 A 
ATOM     17  C   UNL d   1      59.266  -1.463  28.692  0.00  0.00     0.028 A 
ATOM     18  C   UNL d   1      58.792  -1.496  29.375  0.00  0.00     0.112 A 
BRANCH  15  19
ATOM     19  O   UNL d   1      59.842   0.633  28.691  0.00  0.00    -0.328 OA
ATOM     20  C   UNL d   1      60.666   0.678  28.596  0.00  0.00     0.181 C 
ENDBRANCH  15  19
BRANCH  18  21
ATOM     21  O   UNL d   1      58.445  -2.200  29.601  0.00  0.00    -0.327 OA
ATOM     22  C   UNL d   1      58.635  -2.899  29.193  0.00  0.00     0.181 C 
ENDBRANCH  18  21
ENDBRANCH   2  13
TORSDOF 6
ENDMDL
MODEL 2
REMARK VINA RESULT:      -3.9      1.318      5.165
REMARK  6 active torsions:
REMARK  status: ('A' for Active; 'I' for Inactive)
REMARK       I    between atoms: N_2  and  C_1 
REMARK    1  A    between atoms: C_5  and  C_1 
REMARK    2  A    between atoms: C_3  and  N_2 
REMARK    3  A    between atoms: O_16  and  C_6 
REMARK    4  A    between atoms: O_17  and  C_11 
REMARK    5  A    between atoms: O_18  and  C_12 
REMARK    6  A    between atoms: C_19  and  O_18 
ROOT
ATOM      1  C   UNL d   1      56.844  -0.231  31.930  0.00  0.00     0.279 C 
ATOM      2  N   UNL d   1      56.924   0.432  32.419  0.00  0.00    -0.206 NA
ATOM      3  O   UNL d   1      56.333  -0.836  32.136  0.00  0.00    -0.265 OA
ENDROOT
BRANCH   1   4
ATOM      4  C   UNL d   1      57.294  -0.281  31.215  0.00  0.00     0.058 A 
ATOM      5  C   UNL d   1      57.533  -1.021  30.938  0.00  0.00     0.007 A 
ATOM      6  C   UNL d   1      57.965  -1.069  30.249  0.00  0.00     0.025 A 
ATOM      7  C   UNL d   1      58.162  -0.378  29.833  0.00  0.00     0.100 A 
ATOM      8  C   UNL d   1      57.918   0.351  30.119  0.00  0.00     0.025 A 
ATOM      9  C   UNL d   1      57.485   0.399  30.808  0.00  0.00     0.007 A 
BRANCH   7  10
ATOM     10  O   UNL d   1      58.609  -0.428  29.122  0.00  0.00    -0.305 OA
BRANCH  10  11
ATOM     11  C   UNL d   1      59.431  -0.372  29.156  0.00  0.00     0.123 C 
ATOM     12  C   UNL d   1      59.859  -0.264  28.458  0.00  0.00     0.029 C 
ENDBRANCH  10  11
ENDBRANCH   7  10
ENDBRANCH   1   4
BRANCH   2  13
ATOM     13  C   UNL d   1      56.492   0.480  33.108  0.00  0.00     0.109 A 
ATOM     14  C   UNL d   1      55.674   0.404  33.071  0.00  0.00     0.045 A 
ATOM     15  C   UNL d   1      55.236   0.452  33.757  0.00  0.00     0.096 A 
ATOM     16  C   UNL d   1      55.601   0.576  34.495  0.00  0.00     0.026 A 
ATOM     17  C   UNL d   1      56.405   0.650  34.523  0.00  0.00     0.028 A 
ATOM     18  C   UNL d   1      56.869   0.604  33.834  0.00  0.00     0.112 A 
BRANCH  15  19
ATOM     19  O   UNL d   1      54.413   0.372  33.700  0.00  0.00    -0.328 OA
ATOM     20  C   UNL d   1      53.931   0.673  34.305  0.00  0.00     0.181 C 
ENDBRANCH  15  19
BRANCH  18  21
ATOM     21  O   UNL d   1      57.681   0.681  33.879  0.00  0.00    -0.327 OA
ATOM     22  C   UNL d   1      58.054   0.659  34.622  0.00  0.00     0.181 C 
ENDBRANCH  18  21
ENDBRANCH   2  13
TORSDOF 6
ENDMDL
MODEL 3
REMARK VINA RESULT:      -3.9      0.729      1.810
REMARK  6 active torsions:
REMARK  status: ('A' for Active; 'I' for Inactive)
REMARK       I    between atoms: N_2  and  C_1 
REMARK    1  A    between atoms: C_5  and  C_1 
REMARK    2  A    between atoms: C_3  and  N_2 
REMARK    3  A    between atoms: O_16  and  C_6 
REMARK    4  A    between atoms: O_17  and  C_11 
REMARK    5  A    between atoms: O_18  and  C_12 
REMARK    6  A    between atoms: C_19  and  O_18 
ROOT
ATOM      1  C   UNL d   1      57.622  -0.922  30.683  0.00  0.00     0.279 C 
ATOM      2  N   UNL d   1      58.317  -0.589  30.382  0.00  0.00    -0.206 NA
ATOM      3  O   UNL d   1      57.347  -1.636  30.394  0.00  0.00    -0.265 OA
ENDROOT
BRANCH   1   4
ATOM      4  C   UNL d   1      57.195  -0.519  31.293  0.00  0.00     0.058 A 
ATOM      5  C   UNL d   1      57.071   0.294  31.231  0.00  0.00     0.007 A 
ATOM      6  C   UNL d   1      56.660   0.682  31.819  0.00  0.00     0.025 A 
ATOM      7  C   UNL d   1      56.371   0.258  32.472  0.00  0.00     0.100 A 
ATOM      8  C   UNL d   1      56.501  -0.550  32.521  0.00  0.00     0.025 A 
ATOM      9  C   UNL d   1      56.912  -0.938  31.933  0.00  0.00     0.007 A 
BRANCH   7  10
ATOM     10  O   UNL d   1      55.947   0.658  33.078  0.00  0.00    -0.305 OA
BRANCH  10  11
ATOM     11  C   UNL d   1      55.380   0.247  33.515  0.00  0.00     0.123 C 
ATOM     12  C   UNL d   1      54.806   0.669  33.933  0.00  0.00     0.029 C 
ENDBRANCH  10  11
ENDBRANCH   7  10
ENDBRANCH   1   4
BRANCH   2  13
ATOM     13  C   UNL d   1      58.728  -0.977  29.794  0.00  0.00     0.109 A 
ATOM     14  C   UNL d   1      58.716  -1.799  29.774  0.00  0.00     0.045 A 
ATOM     15  C   UNL d   1      59.125  -2.191  29.189  0.00  0.00     0.096 A 
ATOM     16  C   UNL d   1      59.556  -1.776  28.610  0.00  0.00     0.026 A 
ATOM     17  C   UNL d   1      59.564  -0.968  28.636  0.00  0.00     0.028 A 
ATOM     18  C   UNL d   1      59.153  -0.550  29.226  0.00  0.00     0.112 A 
BRANCH  15  19
ATOM     19  O   UNL d   1      59.100  -3.020  29.185  0.00  0.00    -0.328 OA
ATOM     20  C   UNL d   1      58.818  -3.417  28.513  0.00  0.00     0.181 C 
ENDBRANCH  15  19
BRANCH  18  21
ATOM     21  O   UNL d   1      59.170   0.267  29.238  0.00  0.00    -0.327 OA
ATOM     22  C   UNL d   1      59.420   0.682  28.563  0.00  0.00     0.181 C 
ENDBRANCH  18  21
ENDBRANCH   2  13
TORSDOF 6
ENDMDL
MODEL 4
REMARK VINA RESULT:      -1.8      1.468      5.070
REMARK  6 active torsions:
REMARK  status: ('A' for Active; 'I' for Inactive)
REMARK       I    between atoms: N_2  and  C_1 
REMARK    1  A    between atoms: C_5  and  C_1 
REMARK    2  A    between atoms: C_3  and  N_2 
REMARK    3  A    between atoms: O_16  and  C_6 
REMARK    4  A    between atoms: O_17  and  C_11 
REMARK    5  A    between atoms: O_18  and  C_12 
REMARK    6  A    between atoms: C_19  and  O_18 
ROOT
ATOM      1  C   UNL d   1      57.331   0.408  31.567  0.00  0.00     0.279 C 
ATOM      2  N   UNL d   1      57.582   0.245  32.339  0.00  0.00    -0.206 NA
ATOM      3  O   UNL d   1      56.545   0.577  31.417  0.00  0.00    -0.265 OA
ENDROOT
BRANCH   1   4
ATOM      4  C   UNL d   1      57.892   0.399  30.933  0.00  0.00     0.058 A 
ATOM      5  C   UNL d   1      57.625   0.305  30.158  0.00  0.00     0.007 A 
ATOM      6  C   UNL d   1      58.165   0.297  29.548  0.00  0.00     0.025 A 
ATOM      7  C   UNL d   1      58.975   0.382  29.709  0.00  0.00     0.100 A 
ATOM      8  C   UNL d   1      59.227   0.474  30.484  0.00  0.00     0.025 A 
ATOM      9  C   UNL d   1      58.687   0.482  31.095  0.00  0.00     0.007 A 
BRANCH   7  10
ATOM     10  O   UNL d   1      59.532   0.373  29.079  0.00  0.00    -0.305 OA
BRANCH  10  11
ATOM     11  C   UNL d   1      60.319   0.570  29.231  0.00  0.00     0.123 C 
ATOM     12  C   UNL d   1      60.882   0.483  28.633  0.00  0.00     0.029 C 
ENDBRANCH  10  11
ENDBRANCH   7  10
ENDBRANCH   1   4
BRANCH   2  13
ATOM     13  C   UNL d   1      57.042   0.253  32.949  0.00  0.00     0.109 A 
ATOM     14  C   UNL d   1      56.262   0.044  32.795  0.00  0.00     0.045 A 
ATOM     15  C   UNL d   1      55.718   0.051  33.402  0.00  0.00     0.096 A 
ATOM     16  C   UNL d   1      55.937   0.266  34.176  0.00  0.00     0.026 A 
ATOM     17  C   UNL d   1      56.706   0.470  34.320  0.00  0.00     0.028 A 
ATOM     18  C   UNL d   1      57.275   0.469  33.714  0.00  0.00     0.112 A 
BRANCH  15  19
ATOM     19  O   UNL d   1      54.937  -0.162  33.226  0.00  0.00    -0.328 OA
ATOM     20  C   UNL d   1      54.340  -0.024  33.787  0.00  0.00     0.181 C 
ENDBRANCH  15  19
BRANCH  18  21
ATOM     21  O   UNL d   1      58.048   0.678  33.876  0.00  0.00    -0.327 OA
ATOM     22  C   UNL d   1      58.326   0.644  34.658  0.00  0.00     0.181 C 
ENDBRANCH  18  21
ENDBRANCH   2  13
TORSDOF 6
ENDMDL
