MODEL 1
REMARK VINA RESULT:      -2.7      0.000      0.000
REMARK  4 active torsions:
REMARK  status: ('A' for Active; 'I' for Inactive)
REMARK    1  A    between atoms: N_2  and  S_1 
REMARK    2  A    between atoms: C_5  and  S_1 
REMARK    3  A    between atoms: O_16  and  C_11 
REMARK    4  A    between atoms: C_19  and  O_16 
ROOT
ATOM      1  C   UNL d   1      31.126  17.085 -24.213  0.00  0.00     0.107 A 
ATOM      2  C   UNL d   1      30.319  17.227 -24.122  0.00  0.00     0.040 A 
ATOM      3  C   UNL d   1      29.768  16.683 -24.410  0.00  0.00     0.128 A 
ATOM      4  C   UNL d   1      30.024  15.997 -24.788  0.00  0.00     0.163 A 
ATOM      5  C   UNL d   1      31.383  16.399 -24.592  0.00  0.00     0.015 A 
ATOM      6  C   UNL d   1      30.832  15.855 -24.879  0.00  0.00     0.032 A 
ATOM      7  F   UNL d   1      29.474  15.453 -25.076  0.00  0.00    -0.202 F 
ENDROOT
BRANCH   1   8
ATOM      8  S   UNL d   1      31.676  17.630 -23.925  0.00  0.00     0.286 S 
ATOM      9  O   UNL d   1      31.854  17.120 -23.300  0.00  0.00    -0.198 OA
ATOM     10  O   UNL d   1      31.499  18.140 -24.550  0.00  0.00    -0.198 OA
BRANCH   8  11
ATOM     11  N   UNL d   1      32.227  18.174 -23.637  0.00  0.00    -0.152 N 
ATOM     12  N   UNL d   1      32.283  18.449 -22.864  0.00  0.00    -0.155 NA
ATOM     13  C   UNL d   1      32.905  18.981 -22.819  0.00  0.00     0.104 A 
ATOM     14  C   UNL d   1      33.154  19.389 -22.141  0.00  0.00     0.022 C 
ATOM     15  C   UNL d   1      33.241  19.039 -23.572  0.00  0.00     0.041 A 
ATOM     16  C   UNL d   1      32.824  18.542 -24.076  0.00  0.00     0.096 A 
ATOM     17  C   UNL d   1      32.971  18.427 -24.880  0.00  0.00     0.022 C 
ENDBRANCH   8  11
ENDBRANCH   1   8
BRANCH   3  18
ATOM     18  O   UNL d   1      28.962  16.824 -24.319  0.00  0.00    -0.303 OA
BRANCH  18  19
ATOM     19  C   UNL d   1      28.571  16.586 -23.624  0.00  0.00     0.123 C 
ATOM     20  C   UNL d   1      27.903  16.992 -23.365  0.00  0.00     0.029 C 
ENDBRANCH  18  19
ENDBRANCH   3  18
TORSDOF 4
ENDMDL
MODEL 2
REMARK VINA RESULT:      -2.2      2.102      3.913
REMARK  4 active torsions:
REMARK  status: ('A' for Active; 'I' for Inactive)
REMARK    1  A    between atoms: N_2  and  S_1 
REMARK    2  A    between atoms: C_5  and  S_1 
REMARK    3  A    between atoms: O_16  and  C_11 
REMARK    4  A    between atoms: C_19  and  O_16 
ROOT
ATOM      1  C   UNL d   1      32.428  18.616 -24.082  0.00  0.00     0.107 A 
ATOM      2  C   UNL d   1      32.699  19.000 -23.405  0.00  0.00     0.040 A 
ATOM      3  C   UNL d   1      32.970  19.779 -23.451  0.00  0.00     0.128 A 
ATOM      4  C   UNL d   1      32.970  20.174 -24.174  0.00  0.00     0.163 A 
ATOM      5  C   UNL d   1      32.428  19.011 -24.806  0.00  0.00     0.015 A 
ATOM      6  C   UNL d   1      32.699  19.790 -24.852  0.00  0.00     0.032 A 
ATOM      7  F   UNL d   1      33.241  20.953 -24.221  0.00  0.00    -0.202 F 
ENDROOT
BRANCH   1   8
ATOM      8  S   UNL d   1      32.156  17.838 -24.036  0.00  0.00     0.286 S 
ATOM      9  O   UNL d   1      32.824  17.631 -23.595  0.00  0.00    -0.198 OA
ATOM     10  O   UNL d   1      31.489  18.044 -24.477  0.00  0.00    -0.198 OA
BRANCH   8  11
ATOM     11  N   UNL d   1      31.885  17.059 -23.990  0.00  0.00    -0.152 N 
ATOM     12  N   UNL d   1      31.241  16.791 -23.553  0.00  0.00    -0.155 NA
ATOM     13  C   UNL d   1      31.167  15.982 -23.664  0.00  0.00     0.104 A 
ATOM     14  C   UNL d   1      30.590  15.492 -23.325  0.00  0.00     0.022 C 
ATOM     15  C   UNL d   1      31.771  15.742 -24.174  0.00  0.00     0.041 A 
ATOM     16  C   UNL d   1      32.213  16.404 -24.375  0.00  0.00     0.096 A 
ATOM     17  C   UNL d   1      32.871  16.419 -24.873  0.00  0.00     0.022 C 
ENDBRANCH   8  11
ENDBRANCH   1   8
BRANCH   3  18
ATOM     18  O   UNL d   1      33.241  20.163 -22.774  0.00  0.00    -0.303 OA
BRANCH  18  19
ATOM     19  C   UNL d   1      32.755  20.215 -22.101  0.00  0.00     0.123 C 
ATOM     20  C   UNL d   1      32.942  20.742 -21.496  0.00  0.00     0.029 C 
ENDBRANCH  18  19
ENDBRANCH   3  18
TORSDOF 4
ENDMDL
MODEL 3
REMARK VINA RESULT:      -2.1      1.356      1.921
REMARK  4 active torsions:
REMARK  status: ('A' for Active; 'I' for Inactive)
REMARK    1  A    between atoms: N_2  and  S_1 
REMARK    2  A    between atoms: C_5  and  S_1 
REMARK    3  A    between atoms: O_16  and  C_11 
REMARK    4  A    between atoms: C_19  and  O_16 
ROOT
ATOM      1  C   UNL d   1      32.645  17.756 -23.718  0.00  0.00     0.107 A 
ATOM      2  C   UNL d   1      31.905  17.600 -24.047  0.00  0.00     0.040 A 
ATOM      3  C   UNL d   1      31.757  16.872 -24.407  0.00  0.00     0.128 A 
ATOM      4  C   UNL d   1      32.349  16.299 -24.438  0.00  0.00     0.163 A 
ATOM      5  C   UNL d   1      33.237  17.183 -23.749  0.00  0.00     0.015 A 
ATOM      6  C   UNL d   1      33.089  16.454 -24.109  0.00  0.00     0.032 A 
ATOM      7  F   UNL d   1      32.200  15.570 -24.797  0.00  0.00    -0.202 F 
ENDROOT
BRANCH   1   8
ATOM      8  S   UNL d   1      32.793  18.485 -23.359  0.00  0.00     0.286 S 
ATOM      9  O   UNL d   1      33.231  18.721 -24.018  0.00  0.00    -0.198 OA
ATOM     10  O   UNL d   1      32.355  18.248 -22.699  0.00  0.00    -0.198 OA
BRANCH   8  11
ATOM     11  N   UNL d   1      32.941  19.213 -22.999  0.00  0.00    -0.152 N 
ATOM     12  N   UNL d   1      32.913  19.374 -22.192  0.00  0.00    -0.155 NA
ATOM     13  C   UNL d   1      33.096  20.165 -22.076  0.00  0.00     0.104 A 
ATOM     14  C   UNL d   1      33.131  20.558 -21.346  0.00  0.00     0.022 C 
ATOM     15  C   UNL d   1      33.241  20.501 -22.817  0.00  0.00     0.041 A 
ATOM     16  C   UNL d   1      33.145  19.916 -23.385  0.00  0.00     0.096 A 
ATOM     17  C   UNL d   1      33.236  20.007 -24.200  0.00  0.00     0.022 C 
ENDBRANCH   8  11
ENDBRANCH   1   8
BRANCH   3  18
ATOM     18  O   UNL d   1      31.018  16.716 -24.735  0.00  0.00    -0.303 OA
BRANCH  18  19
ATOM     19  C   UNL d   1      30.351  16.636 -24.245  0.00  0.00     0.123 C 
ATOM     20  C   UNL d   1      29.653  16.318 -24.544  0.00  0.00     0.029 C 
ENDBRANCH  18  19
ENDBRANCH   3  18
TORSDOF 4
ENDMDL
MODEL 4
REMARK VINA RESULT:      -1.7      1.962      4.047
REMARK  4 active torsions:
REMARK  status: ('A' for Active; 'I' for Inactive)
REMARK    1  A    between atoms: N_2  and  S_1 
REMARK    2  A    between atoms: C_5  and  S_1 
REMARK    3  A    between atoms: O_16  and  C_11 
REMARK    4  A    between atoms: C_19  and  O_16 
ROOT
ATOM      1  C   UNL d   1      30.496  17.166 -24.250  0.00  0.00     0.107 A 
ATOM      2  C   UNL d   1      31.189  17.102 -23.809  0.00  0.00     0.040 A 
ATOM      3  C   UNL d   1      31.852  17.551 -24.012  0.00  0.00     0.128 A 
ATOM      4  C   UNL d   1      31.822  18.065 -24.655  0.00  0.00     0.163 A 
ATOM      5  C   UNL d   1      30.465  17.681 -24.894  0.00  0.00     0.015 A 
ATOM      6  C   UNL d   1      31.128  18.130 -25.096  0.00  0.00     0.032 A 
ATOM      7  F   UNL d   1      32.484  18.515 -24.857  0.00  0.00    -0.202 F 
ENDROOT
BRANCH   1   8
ATOM      8  S   UNL d   1      29.833  16.717 -24.047  0.00  0.00     0.286 S 
ATOM      9  O   UNL d   1      29.439  17.404 -23.814  0.00  0.00    -0.198 OA
ATOM     10  O   UNL d   1      30.228  16.030 -24.281  0.00  0.00    -0.198 OA
BRANCH   8  11
ATOM     11  N   UNL d   1      29.171  16.267 -23.845  0.00  0.00    -0.152 N 
ATOM     12  N   UNL d   1      28.475  16.201 -24.280  0.00  0.00    -0.155 NA
ATOM     13  C   UNL d   1      27.963  15.701 -23.879  0.00  0.00     0.104 A 
ATOM     14  C   UNL d   1      27.200  15.483 -24.123  0.00  0.00     0.022 C 
ATOM     15  C   UNL d   1      28.342  15.453 -23.189  0.00  0.00     0.041 A 
ATOM     16  C   UNL d   1      29.086  15.801 -23.167  0.00  0.00     0.096 A 
ATOM     17  C   UNL d   1      29.653  15.706 -22.575  0.00  0.00     0.022 C 
ENDBRANCH   8  11
ENDBRANCH   1   8
BRANCH   3  18
ATOM     18  O   UNL d   1      32.545  17.487 -23.571  0.00  0.00    -0.303 OA
BRANCH  18  19
ATOM     19  C   UNL d   1      32.575  17.783 -22.794  0.00  0.00     0.123 C 
ATOM     20  C   UNL d   1      33.235  17.639 -22.322  0.00  0.00     0.029 C 
ENDBRANCH  18  19
ENDBRANCH   3  18
TORSDOF 4
ENDMDL
MODEL 5
REMARK VINA RESULT:      -1.5      1.618      2.506
REMARK  4 active torsions:
REMARK  status: ('A' for Active; 'I' for Inactive)
REMARK    1  A    between atoms: N_2  and  S_1 
REMARK    2  A    between atoms: C_5  and  S_1 
REMARK    3  A    between atoms: O_16  and  C_11 
REMARK    4  A    between atoms: C_19  and  O_16 
ROOT
ATOM      1  C   UNL d   1      32.656  18.534 -23.417  0.00  0.00     0.107 A 
ATOM      2  C   UNL d   1      31.934  18.433 -23.803  0.00  0.00     0.040 A 
ATOM      3  C   UNL d   1      31.797  17.755 -24.254  0.00  0.00     0.128 A 
ATOM      4  C   UNL d   1      32.381  17.178 -24.320  0.00  0.00     0.163 A 
ATOM      5  C   UNL d   1      33.241  17.956 -23.483  0.00  0.00     0.015 A 
ATOM      6  C   UNL d   1      33.103  17.278 -23.935  0.00  0.00     0.032 A 
ATOM      7  F   UNL d   1      32.244  16.500 -24.772  0.00  0.00    -0.202 F 
ENDROOT
BRANCH   1   8
ATOM      8  S   UNL d   1      32.793  19.212 -22.966  0.00  0.00     0.286 S 
ATOM      9  O   UNL d   1      32.345  18.892 -22.350  0.00  0.00    -0.198 OA
ATOM     10  O   UNL d   1      33.241  19.531 -23.582  0.00  0.00    -0.198 OA
BRANCH   8  11
ATOM     11  N   UNL d   1      32.930  19.890 -22.514  0.00  0.00    -0.152 N 
ATOM     12  N   UNL d   1      32.887  20.668 -22.778  0.00  0.00    -0.155 NA
ATOM     13  C   UNL d   1      33.064  21.167 -22.151  0.00  0.00     0.104 A 
ATOM     14  C   UNL d   1      33.084  21.996 -22.175  0.00  0.00     0.022 C 
ATOM     15  C   UNL d   1      33.219  20.696 -21.491  0.00  0.00     0.041 A 
ATOM     16  C   UNL d   1      33.137  19.909 -21.714  0.00  0.00     0.096 A 
ATOM     17  C   UNL d   1      33.241  19.250 -21.228  0.00  0.00     0.022 C 
ENDBRANCH   8  11
ENDBRANCH   1   8
BRANCH   3  18
ATOM     18  O   UNL d   1      31.076  17.655 -24.639  0.00  0.00    -0.303 OA
BRANCH  18  19
ATOM     19  C   UNL d   1      30.474  17.201 -24.287  0.00  0.00     0.123 C 
ATOM     20  C   UNL d   1      29.687  17.323 -24.499  0.00  0.00     0.029 C 
ENDBRANCH  18  19
ENDBRANCH   3  18
TORSDOF 4
ENDMDL
MODEL 6
REMARK VINA RESULT:      -1.1      3.268      4.998
REMARK  4 active torsions:
REMARK  status: ('A' for Active; 'I' for Inactive)
REMARK    1  A    between atoms: N_2  and  S_1 
REMARK    2  A    between atoms: C_5  and  S_1 
REMARK    3  A    between atoms: O_16  and  C_11 
REMARK    4  A    between atoms: C_19  and  O_16 
ROOT
ATOM      1  C   UNL d   1      32.819  20.328 -22.297  0.00  0.00     0.107 A 
ATOM      2  C   UNL d   1      33.064  21.051 -22.607  0.00  0.00     0.040 A 
ATOM      3  C   UNL d   1      32.996  21.739 -22.156  0.00  0.00     0.128 A 
ATOM      4  C   UNL d   1      32.684  21.705 -21.394  0.00  0.00     0.163 A 
ATOM      5  C   UNL d   1      32.507  20.293 -21.534  0.00  0.00     0.015 A 
ATOM      6  C   UNL d   1      32.439  20.981 -21.083  0.00  0.00     0.032 A 
ATOM      7  F   UNL d   1      32.617  22.393 -20.942  0.00  0.00    -0.202 F 
ENDROOT
BRANCH   1   8
ATOM      8  S   UNL d   1      32.887  19.640 -22.749  0.00  0.00     0.286 S 
ATOM      9  O   UNL d   1      32.579  20.039 -23.403  0.00  0.00    -0.198 OA
ATOM     10  O   UNL d   1      33.194  19.240 -22.094  0.00  0.00    -0.198 OA
BRANCH   8  11
ATOM     11  N   UNL d   1      32.954  18.951 -23.200  0.00  0.00    -0.152 N 
ATOM     12  N   UNL d   1      32.871  18.179 -22.928  0.00  0.00    -0.155 NA
ATOM     13  C   UNL d   1      32.981  17.666 -23.558  0.00  0.00     0.104 A 
ATOM     14  C   UNL d   1      32.946  16.838 -23.528  0.00  0.00     0.022 C 
ATOM     15  C   UNL d   1      33.134  18.122 -24.230  0.00  0.00     0.041 A 
ATOM     16  C   UNL d   1      33.117  18.913 -24.010  0.00  0.00     0.096 A 
ATOM     17  C   UNL d   1      33.241  19.561 -24.507  0.00  0.00     0.022 C 
ENDBRANCH   8  11
ENDBRANCH   1   8
BRANCH   3  18
ATOM     18  O   UNL d   1      33.241  22.463 -22.466  0.00  0.00    -0.303 OA
BRANCH  18  19
ATOM     19  C   UNL d   1      32.810  22.820 -23.081  0.00  0.00     0.123 C 
ATOM     20  C   UNL d   1      33.085  23.515 -23.429  0.00  0.00     0.029 C 
ENDBRANCH  18  19
ENDBRANCH   3  18
TORSDOF 4
ENDMDL
MODEL 7
REMARK VINA RESULT:      -0.5      3.813      5.392
REMARK  4 active torsions:
REMARK  status: ('A' for Active; 'I' for Inactive)
REMARK    1  A    between atoms: N_2  and  S_1 
REMARK    2  A    between atoms: C_5  and  S_1 
REMARK    3  A    between atoms: O_16  and  C_11 
REMARK    4  A    between atoms: C_19  and  O_16 
ROOT
ATOM      1  C   UNL d   1      32.977  21.649 -22.385  0.00  0.00     0.107 A 
ATOM      2  C   UNL d   1      33.009  20.826 -22.411  0.00  0.00     0.040 A 
ATOM      3  C   UNL d   1      33.097  20.438 -23.135  0.00  0.00     0.128 A 
ATOM      4  C   UNL d   1      33.153  20.872 -23.832  0.00  0.00     0.163 A 
ATOM      5  C   UNL d   1      33.033  22.084 -23.083  0.00  0.00     0.015 A 
ATOM      6  C   UNL d   1      33.120  21.696 -23.807  0.00  0.00     0.032 A 
ATOM      7  F   UNL d   1      33.241  20.484 -24.556  0.00  0.00    -0.202 F 
ENDROOT
BRANCH   1   8
ATOM      8  S   UNL d   1      32.889  22.037 -21.661  0.00  0.00     0.286 S 
ATOM      9  O   UNL d   1      32.547  22.682 -22.049  0.00  0.00    -0.198 OA
ATOM     10  O   UNL d   1      33.231  21.393 -21.274  0.00  0.00    -0.198 OA
BRANCH   8  11
ATOM     11  N   UNL d   1      32.801  22.426 -20.938  0.00  0.00    -0.152 N 
ATOM     12  N   UNL d   1      33.224  22.274 -20.248  0.00  0.00    -0.155 NA
ATOM     13  C   UNL d   1      32.962  22.785 -19.662  0.00  0.00     0.104 A 
ATOM     14  C   UNL d   1      33.241  22.820 -18.882  0.00  0.00     0.022 C 
ATOM     15  C   UNL d   1      32.370  23.259 -19.989  0.00  0.00     0.041 A 
ATOM     16  C   UNL d   1      32.270  23.039 -20.774  0.00  0.00     0.096 A 
ATOM     17  C   UNL d   1      31.736  23.368 -21.310  0.00  0.00     0.022 C 
ENDBRANCH   8  11
ENDBRANCH   1   8
BRANCH   3  18
ATOM     18  O   UNL d   1      33.130  19.615 -23.160  0.00  0.00    -0.303 OA
BRANCH  18  19
ATOM     19  C   UNL d   1      32.461  19.164 -22.958  0.00  0.00     0.123 C 
ATOM     20  C   UNL d   1      32.528  18.350 -22.850  0.00  0.00     0.029 C 
ENDBRANCH  18  19
ENDBRANCH   3  18
TORSDOF 4
ENDMDL
MODEL 8
REMARK VINA RESULT:       0.1      2.989      4.229
REMARK  4 active torsions:
REMARK  status: ('A' for Active; 'I' for Inactive)
REMARK    1  A    between atoms: N_2  and  S_1 
REMARK    2  A    between atoms: C_5  and  S_1 
REMARK    3  A    between atoms: O_16  and  C_11 
REMARK    4  A    between atoms: C_19  and  O_16 
ROOT
ATOM      1  C   UNL d   1      33.119  19.706 -21.968  0.00  0.00     0.107 A 
ATOM      2  C   UNL d   1      33.077  19.610 -22.786  0.00  0.00     0.040 A 
ATOM      3  C   UNL d   1      33.117  18.855 -23.117  0.00  0.00     0.128 A 
ATOM      4  C   UNL d   1      33.199  18.194 -22.630  0.00  0.00     0.163 A 
ATOM      5  C   UNL d   1      33.201  19.045 -21.481  0.00  0.00     0.015 A 
ATOM      6  C   UNL d   1      33.241  18.290 -21.812  0.00  0.00     0.032 A 
ATOM      7  F   UNL d   1      33.239  17.439 -22.962  0.00  0.00    -0.202 F 
ENDROOT
BRANCH   1   8
ATOM      8  S   UNL d   1      33.079  20.461 -21.637  0.00  0.00     0.286 S 
ATOM      9  O   UNL d   1      33.173  20.136 -20.884  0.00  0.00    -0.198 OA
ATOM     10  O   UNL d   1      32.984  20.787 -22.391  0.00  0.00    -0.198 OA
BRANCH   8  11
ATOM     11  N   UNL d   1      33.039  21.217 -21.306  0.00  0.00    -0.152 N 
ATOM     12  N   UNL d   1      32.951  21.396 -20.507  0.00  0.00    -0.155 NA
ATOM     13  C   UNL d   1      32.937  22.211 -20.422  0.00  0.00     0.104 A 
ATOM     14  C   UNL d   1      32.857  22.628 -19.709  0.00  0.00     0.022 C 
ATOM     15  C   UNL d   1      33.017  22.545 -21.173  0.00  0.00     0.041 A 
ATOM     16  C   UNL d   1      33.079  21.933 -21.718  0.00  0.00     0.096 A 
ATOM     17  C   UNL d   1      33.168  22.014 -22.535  0.00  0.00     0.022 C 
ENDBRANCH   8  11
ENDBRANCH   1   8
BRANCH   3  18
ATOM     18  O   UNL d   1      33.075  18.759 -23.934  0.00  0.00    -0.303 OA
BRANCH  18  19
ATOM     19  C   UNL d   1      32.421  18.377 -24.277  0.00  0.00     0.123 C 
ATOM     20  C   UNL d   1      32.344  18.343 -25.097  0.00  0.00     0.029 C 
ENDBRANCH  18  19
ENDBRANCH   3  18
TORSDOF 4
ENDMDL
