MODEL 1
REMARK VINA RESULT:       1.3      0.000      0.000
REMARK  4 active torsions:
REMARK  status: ('A' for Active; 'I' for Inactive)
REMARK    1  A    between atoms: C_5  and  C_1 
REMARK    2  A    between atoms: C_9  and  C_6 
REMARK    3  A    between atoms: C_10  and  C_9 
REMARK    4  A    between atoms: C_11  and  C_10 
ROOT
ATOM      1  C   UNL d   1      45.357 -15.161  36.827  0.00  0.00     0.169 A 
ATOM      2  N   UNL d   1      45.371 -15.839  37.291  0.00  0.00    -0.142 NA
ATOM      3  C   UNL d   1      44.642 -15.153  36.411  0.00  0.00     0.048 A 
ATOM      4  N   UNL d   1      44.670 -16.255  37.171  0.00  0.00    -0.148 NA
ATOM      5  C   UNL d   1      44.218 -15.828  36.624  0.00  0.00     0.105 A 
ENDROOT
BRANCH   5   6
ATOM      6  C   UNL d   1      43.464 -16.049  36.341  0.00  0.00     0.021 C 
BRANCH   6   7
ATOM      7  C   UNL d   1      42.830 -15.531  36.402  0.00  0.00     0.002 C 
BRANCH   7   8
ATOM      8  C   UNL d   1      42.059 -15.814  36.356  0.00  0.00     0.000 C 
ATOM      9  C   UNL d   1      41.448 -15.398  36.726  0.00  0.00     0.000 C 
ENDBRANCH   7   8
ENDBRANCH   6   7
ENDBRANCH   5   6
BRANCH   1  10
ATOM     10  C   UNL d   1      45.949 -14.591  36.781  0.00  0.00     0.231 C 
ATOM     11  O   UNL d   1      46.640 -14.751  36.358  0.00  0.00    -0.643 OA
ATOM     12  O   UNL d   1      45.854 -13.861  37.157  0.00  0.00    -0.643 OA
ENDBRANCH   1  10
TORSDOF 4
ENDMDL
MODEL 2
REMARK VINA RESULT:       1.7      1.820      3.208
REMARK  4 active torsions:
REMARK  status: ('A' for Active; 'I' for Inactive)
REMARK    1  A    between atoms: C_5  and  C_1 
REMARK    2  A    between atoms: C_9  and  C_6 
REMARK    3  A    between atoms: C_10  and  C_9 
REMARK    4  A    between atoms: C_11  and  C_10 
ROOT
ATOM      1  C   UNL d   1      43.376 -15.659  36.774  0.00  0.00     0.169 A 
ATOM      2  N   UNL d   1      43.590 -16.316  36.330  0.00  0.00    -0.142 NA
ATOM      3  C   UNL d   1      44.070 -15.306  37.055  0.00  0.00     0.048 A 
ATOM      4  N   UNL d   1      44.412 -16.379  36.330  0.00  0.00    -0.148 NA
ATOM      5  C   UNL d   1      44.709 -15.750  36.782  0.00  0.00     0.105 A 
ENDROOT
BRANCH   5   6
ATOM      6  C   UNL d   1      45.516 -15.600  36.928  0.00  0.00     0.021 C 
BRANCH   6   7
ATOM      7  C   UNL d   1      45.863 -14.902  36.668  0.00  0.00     0.002 C 
BRANCH   7   8
ATOM      8  C   UNL d   1      46.591 -14.666  36.968  0.00  0.00     0.000 C 
ATOM      9  C   UNL d   1      46.645 -13.969  37.410  0.00  0.00     0.000 C 
ENDBRANCH   7   8
ENDBRANCH   6   7
ENDBRANCH   5   6
BRANCH   1  10
ATOM     10  C   UNL d   1      42.609 -15.396  36.916  0.00  0.00     0.231 C 
ATOM     11  O   UNL d   1      42.027 -15.504  36.342  0.00  0.00    -0.643 OA
ATOM     12  O   UNL d   1      42.421 -15.024  37.630  0.00  0.00    -0.643 OA
ENDBRANCH   1  10
TORSDOF 4
ENDMDL
