MODEL 1
REMARK VINA RESULT:      -9.0      0.000      0.000
REMARK  4 active torsions:
REMARK  status: ('A' for Active; 'I' for Inactive)
REMARK    1  A    between atoms: C_4  and  C_1 
REMARK    2  A    between atoms: C_2  and  C_3 
REMARK    3  A    between atoms: O_7  and  C_13 
REMARK    4  A    between atoms: C_12  and  O_7 
ROOT
ATOM      1  O   UNL d   1      53.328  32.408  52.723  0.00  0.00    -0.307 OA
ENDROOT
BRANCH   1   2
ATOM      2  C   UNL d   1      53.291  33.062  53.233  0.00  0.00     0.100 A 
ATOM      3  C   UNL d   1      52.597  33.487  53.278  0.00  0.00     0.025 A 
ATOM      4  C   UNL d   1      52.545  34.145  53.786  0.00  0.00     0.005 A 
ATOM      5  C   UNL d   1      53.181  34.364  54.234  0.00  0.00     0.039 A 
ATOM      6  C   UNL d   1      53.893  33.932  54.190  0.00  0.00     0.005 A 
ATOM      7  C   UNL d   1      53.947  33.272  53.682  0.00  0.00     0.025 A 
BRANCH   5   8
ATOM      8  C   UNL d   1      53.130  35.022  54.741  0.00  0.00     0.196 C 
ATOM      9  O   UNL d   1      53.335  34.953  55.547  0.00  0.00    -0.287 OA
ATOM     10  C   UNL d   1      52.877  35.757  54.467  0.00  0.00     0.045 C 
ENDBRANCH   5   8
ENDBRANCH   1   2
BRANCH   1  11
ATOM     11  C   UNL d   1      53.256  31.626  53.012  0.00  0.00     0.100 A 
ATOM     12  C   UNL d   1      52.530  31.248  52.896  0.00  0.00     0.025 A 
ATOM     13  C   UNL d   1      52.455  30.464  53.184  0.00  0.00     0.005 A 
ATOM     14  C   UNL d   1      53.083  30.084  53.570  0.00  0.00     0.039 A 
ATOM     15  C   UNL d   1      53.787  30.491  53.666  0.00  0.00     0.005 A 
ATOM     16  C   UNL d   1      53.875  31.261  53.388  0.00  0.00     0.025 A 
BRANCH  14  17
ATOM     17  C   UNL d   1      53.011  29.330  53.847  0.00  0.00     0.196 C 
ATOM     18  O   UNL d   1      52.617  28.751  53.396  0.00  0.00    -0.287 OA
ATOM     19  C   UNL d   1      53.327  29.131  54.577  0.00  0.00     0.045 C 
ENDBRANCH  14  17
ENDBRANCH   1  11
TORSDOF 4
ENDMDL
MODEL 2
REMARK VINA RESULT:      -9.0      0.062      4.365
REMARK  4 active torsions:
REMARK  status: ('A' for Active; 'I' for Inactive)
REMARK    1  A    between atoms: C_4  and  C_1 
REMARK    2  A    between atoms: C_2  and  C_3 
REMARK    3  A    between atoms: O_7  and  C_13 
REMARK    4  A    between atoms: C_12  and  O_7 
ROOT
ATOM      1  O   UNL d   1      53.358  32.461  52.721  0.00  0.00    -0.307 OA
ENDROOT
BRANCH   1   2
ATOM      2  C   UNL d   1      53.256  31.684  52.994  0.00  0.00     0.100 A 
ATOM      3  C   UNL d   1      53.891  31.298  53.329  0.00  0.00     0.025 A 
ATOM      4  C   UNL d   1      53.803  30.517  53.607  0.00  0.00     0.005 A 
ATOM      5  C   UNL d   1      53.090  30.142  53.547  0.00  0.00     0.039 A 
ATOM      6  C   UNL d   1      52.438  30.534  53.205  0.00  0.00     0.005 A 
ATOM      7  C   UNL d   1      52.524  31.316  52.926  0.00  0.00     0.025 A 
BRANCH   5   8
ATOM      8  C   UNL d   1      53.002  29.363  53.825  0.00  0.00     0.196 C 
ATOM      9  O   UNL d   1      52.564  28.803  53.387  0.00  0.00    -0.287 OA
ATOM     10  C   UNL d   1      53.341  29.120  54.536  0.00  0.00     0.045 C 
ENDBRANCH   5   8
ENDBRANCH   1   2
BRANCH   1  11
ATOM     11  C   UNL d   1      53.307  33.115  53.240  0.00  0.00     0.100 A 
ATOM     12  C   UNL d   1      52.610  33.558  53.219  0.00  0.00     0.025 A 
ATOM     13  C   UNL d   1      52.557  34.214  53.739  0.00  0.00     0.005 A 
ATOM     14  C   UNL d   1      53.178  34.410  54.253  0.00  0.00     0.039 A 
ATOM     15  C   UNL d   1      53.853  33.948  54.245  0.00  0.00     0.005 A 
ATOM     16  C   UNL d   1      53.919  33.301  53.740  0.00  0.00     0.025 A 
BRANCH  14  17
ATOM     17  C   UNL d   1      53.127  35.042  54.752  0.00  0.00     0.196 C 
ATOM     18  O   UNL d   1      53.319  34.956  55.559  0.00  0.00    -0.287 OA
ATOM     19  C   UNL d   1      52.885  35.770  54.466  0.00  0.00     0.045 C 
ENDBRANCH  14  17
ENDBRANCH   1  11
TORSDOF 4
ENDMDL
MODEL 3
REMARK VINA RESULT:      -8.5      2.204      3.449
REMARK  4 active torsions:
REMARK  status: ('A' for Active; 'I' for Inactive)
REMARK    1  A    between atoms: C_4  and  C_1 
REMARK    2  A    between atoms: C_2  and  C_3 
REMARK    3  A    between atoms: O_7  and  C_13 
REMARK    4  A    between atoms: C_12  and  O_7 
ROOT
ATOM      1  O   UNL d   1      52.657  32.620  53.214  0.00  0.00    -0.307 OA
ENDROOT
BRANCH   1   2
ATOM      2  C   UNL d   1      52.006  33.103  53.036  0.00  0.00     0.100 A 
ATOM      3  C   UNL d   1      51.299  32.967  53.420  0.00  0.00     0.025 A 
ATOM      4  C   UNL d   1      50.637  33.445  53.251  0.00  0.00     0.005 A 
ATOM      5  C   UNL d   1      50.693  34.040  52.709  0.00  0.00     0.039 A 
ATOM      6  C   UNL d   1      51.414  34.182  52.315  0.00  0.00     0.005 A 
ATOM      7  C   UNL d   1      52.079  33.706  52.482  0.00  0.00     0.025 A 
BRANCH   5   8
ATOM      8  C   UNL d   1      50.032  34.517  52.540  0.00  0.00     0.196 C 
ATOM      9  O   UNL d   1      49.728  35.040  53.115  0.00  0.00    -0.287 OA
ATOM     10  C   UNL d   1      49.658  34.489  51.806  0.00  0.00     0.045 C 
ENDBRANCH   5   8
ENDBRANCH   1   2
BRANCH   1  11
ATOM     11  C   UNL d   1      53.281  32.892  53.700  0.00  0.00     0.100 A 
ATOM     12  C   UNL d   1      54.039  32.898  53.371  0.00  0.00     0.025 A 
ATOM     13  C   UNL d   1      54.666  33.171  53.856  0.00  0.00     0.005 A 
ATOM     14  C   UNL d   1      54.532  33.425  54.634  0.00  0.00     0.039 A 
ATOM     15  C   UNL d   1      53.767  33.404  54.926  0.00  0.00     0.005 A 
ATOM     16  C   UNL d   1      53.141  33.139  54.461  0.00  0.00     0.025 A 
BRANCH  14  17
ATOM     17  C   UNL d   1      55.135  33.687  55.101  0.00  0.00     0.196 C 
ATOM     18  O   UNL d   1      55.057  33.684  55.931  0.00  0.00    -0.287 OA
ATOM     19  C   UNL d   1      55.828  33.958  54.758  0.00  0.00     0.045 C 
ENDBRANCH  14  17
ENDBRANCH   1  11
TORSDOF 4
ENDMDL
MODEL 4
REMARK VINA RESULT:      -8.4      1.587      2.077
REMARK  4 active torsions:
REMARK  status: ('A' for Active; 'I' for Inactive)
REMARK    1  A    between atoms: C_4  and  C_1 
REMARK    2  A    between atoms: C_2  and  C_3 
REMARK    3  A    between atoms: O_7  and  C_13 
REMARK    4  A    between atoms: C_12  and  O_7 
ROOT
ATOM      1  O   UNL d   1      53.046  32.933  53.083  0.00  0.00    -0.307 OA
ENDROOT
BRANCH   1   2
ATOM      2  C   UNL d   1      52.330  33.347  53.012  0.00  0.00     0.100 A 
ATOM      3  C   UNL d   1      52.128  33.663  52.288  0.00  0.00     0.025 A 
ATOM      4  C   UNL d   1      51.412  34.080  52.202  0.00  0.00     0.005 A 
ATOM      5  C   UNL d   1      50.917  34.173  52.834  0.00  0.00     0.039 A 
ATOM      6  C   UNL d   1      51.120  33.851  53.576  0.00  0.00     0.005 A 
ATOM      7  C   UNL d   1      51.837  33.432  53.664  0.00  0.00     0.025 A 
BRANCH   5   8
ATOM      8  C   UNL d   1      50.202  34.590  52.748  0.00  0.00     0.196 C 
ATOM      9  O   UNL d   1      49.986  35.180  53.297  0.00  0.00    -0.287 OA
ATOM     10  C   UNL d   1      49.687  34.435  52.123  0.00  0.00     0.045 C 
ENDBRANCH   5   8
ENDBRANCH   1   2
BRANCH   1  11
ATOM     11  C   UNL d   1      53.060  32.109  53.225  0.00  0.00     0.100 A 
ATOM     12  C   UNL d   1      53.450  31.852  53.908  0.00  0.00     0.025 A 
ATOM     13  C   UNL d   1      53.465  31.027  54.052  0.00  0.00     0.005 A 
ATOM     14  C   UNL d   1      53.105  30.490  53.533  0.00  0.00     0.039 A 
ATOM     15  C   UNL d   1      52.729  30.782  52.867  0.00  0.00     0.005 A 
ATOM     16  C   UNL d   1      52.706  31.590  52.712  0.00  0.00     0.025 A 
BRANCH  14  17
ATOM     17  C   UNL d   1      53.121  29.695  53.673  0.00  0.00     0.196 C 
ATOM     18  O   UNL d   1      52.641  29.180  53.227  0.00  0.00    -0.287 OA
ATOM     19  C   UNL d   1      53.610  29.393  54.256  0.00  0.00     0.045 C 
ENDBRANCH  14  17
ENDBRANCH   1  11
TORSDOF 4
ENDMDL
MODEL 5
REMARK VINA RESULT:      -8.4      2.217      3.595
REMARK  4 active torsions:
REMARK  status: ('A' for Active; 'I' for Inactive)
REMARK    1  A    between atoms: C_4  and  C_1 
REMARK    2  A    between atoms: C_2  and  C_3 
REMARK    3  A    between atoms: O_7  and  C_13 
REMARK    4  A    between atoms: C_12  and  O_7 
ROOT
ATOM      1  O   UNL d   1      52.663  32.627  53.191  0.00  0.00    -0.307 OA
ENDROOT
BRANCH   1   2
ATOM      2  C   UNL d   1      53.283  32.894  53.674  0.00  0.00     0.100 A 
ATOM      3  C   UNL d   1      54.031  32.956  53.357  0.00  0.00     0.025 A 
ATOM      4  C   UNL d   1      54.663  33.223  53.831  0.00  0.00     0.005 A 
ATOM      5  C   UNL d   1      54.535  33.420  54.604  0.00  0.00     0.039 A 
ATOM      6  C   UNL d   1      53.772  33.358  54.932  0.00  0.00     0.005 A 
ATOM      7  C   UNL d   1      53.138  33.091  54.460  0.00  0.00     0.025 A 
BRANCH   5   8
ATOM      8  C   UNL d   1      55.166  33.687  55.077  0.00  0.00     0.196 C 
ATOM      9  O   UNL d   1      55.101  33.689  55.909  0.00  0.00    -0.287 OA
ATOM     10  C   UNL d   1      55.870  33.955  54.743  0.00  0.00     0.045 C 
ENDBRANCH   5   8
ENDBRANCH   1   2
BRANCH   1  11
ATOM     11  C   UNL d   1      52.003  33.112  53.022  0.00  0.00     0.100 A 
ATOM     12  C   UNL d   1      51.293  32.928  53.403  0.00  0.00     0.025 A 
ATOM     13  C   UNL d   1      50.631  33.413  53.235  0.00  0.00     0.005 A 
ATOM     14  C   UNL d   1      50.684  34.051  52.708  0.00  0.00     0.039 A 
ATOM     15  C   UNL d   1      51.405  34.203  52.350  0.00  0.00     0.005 A 
ATOM     16  C   UNL d   1      52.064  33.736  52.506  0.00  0.00     0.025 A 
BRANCH  14  17
ATOM     17  C   UNL d   1      50.046  34.518  52.547  0.00  0.00     0.196 C 
ATOM     18  O   UNL d   1      49.755  35.046  53.122  0.00  0.00    -0.287 OA
ATOM     19  C   UNL d   1      49.683  34.473  51.814  0.00  0.00     0.045 C 
ENDBRANCH  14  17
ENDBRANCH   1  11
TORSDOF 4
ENDMDL
MODEL 6
REMARK VINA RESULT:      -8.3      1.584      4.378
REMARK  4 active torsions:
REMARK  status: ('A' for Active; 'I' for Inactive)
REMARK    1  A    between atoms: C_4  and  C_1 
REMARK    2  A    between atoms: C_2  and  C_3 
REMARK    3  A    between atoms: O_7  and  C_13 
REMARK    4  A    between atoms: C_12  and  O_7 
ROOT
ATOM      1  O   UNL d   1      53.072  32.914  53.198  0.00  0.00    -0.307 OA
ENDROOT
BRANCH   1   2
ATOM      2  C   UNL d   1      53.088  32.093  53.318  0.00  0.00     0.100 A 
ATOM      3  C   UNL d   1      53.341  31.805  54.037  0.00  0.00     0.025 A 
ATOM      4  C   UNL d   1      53.362  30.982  54.171  0.00  0.00     0.005 A 
ATOM      5  C   UNL d   1      53.132  30.470  53.591  0.00  0.00     0.039 A 
ATOM      6  C   UNL d   1      52.873  30.761  52.854  0.00  0.00     0.005 A 
ATOM      7  C   UNL d   1      52.851  31.584  52.717  0.00  0.00     0.025 A 
BRANCH   5   8
ATOM      8  C   UNL d   1      53.153  29.649  53.724  0.00  0.00     0.196 C 
ATOM      9  O   UNL d   1      52.634  29.139  53.317  0.00  0.00    -0.287 OA
ATOM     10  C   UNL d   1      53.683  29.314  54.260  0.00  0.00     0.045 C 
ENDBRANCH   5   8
ENDBRANCH   1   2
BRANCH   1  11
ATOM     11  C   UNL d   1      52.352  33.322  53.078  0.00  0.00     0.100 A 
ATOM     12  C   UNL d   1      52.244  33.684  52.342  0.00  0.00     0.025 A 
ATOM     13  C   UNL d   1      51.523  34.094  52.219  0.00  0.00     0.005 A 
ATOM     14  C   UNL d   1      50.942  34.135  52.810  0.00  0.00     0.039 A 
ATOM     15  C   UNL d   1      51.086  33.764  53.526  0.00  0.00     0.005 A 
ATOM     16  C   UNL d   1      51.789  33.358  53.661  0.00  0.00     0.025 A 
BRANCH  14  17
ATOM     17  C   UNL d   1      50.249  34.530  52.691  0.00  0.00     0.196 C 
ATOM     18  O   UNL d   1      49.938  35.023  53.286  0.00  0.00    -0.287 OA
ATOM     19  C   UNL d   1      49.848  34.445  51.981  0.00  0.00     0.045 C 
ENDBRANCH  14  17
ENDBRANCH   1  11
TORSDOF 4
ENDMDL
