MODEL 1
REMARK VINA RESULT:       3.2      0.000      0.000
REMARK  5 active torsions:
REMARK  status: ('A' for Active; 'I' for Inactive)
REMARK    1  A    between atoms: N_3  and  S_1 
REMARK    2  A    between atoms: C_13  and  S_1 
REMARK    3  A    between atoms: C_2  and  N_3 
REMARK    4  A    between atoms: N_9  and  C_4 
REMARK       I    between atoms: C_8  and  N_10 
REMARK    5  A    between atoms: C_19  and  C_8 
ROOT
ATOM      1  C   UNL d   1      57.995  -1.359  29.981  0.00  0.00     0.110 A 
ATOM      2  C   UNL d   1      57.788  -0.872  30.902  0.00  0.00     0.083 A 
ATOM      3  C   UNL d   1      58.689  -0.990  29.750  0.00  0.00     0.020 A 
ATOM      4  C   UNL d   1      58.413  -0.339  30.980  0.00  0.00     0.018 A 
ATOM      5  C   UNL d   1      58.889  -0.441  30.315  0.00  0.00     0.003 A 
ATOM      6  C   UNL d   1      59.570   0.015  30.223  0.00  0.00     0.000 A 
ATOM      7  C   UNL d   1      59.160  -1.103  29.075  0.00  0.00     0.002 A 
ATOM      8  C   UNL d   1      58.614   0.208  31.544  0.00  0.00     0.002 A 
ATOM      9  C   UNL d   1      59.846  -0.635  28.994  0.00  0.00     0.000 A 
ATOM     10  C   UNL d   1      59.301   0.679  31.466  0.00  0.00     0.000 A 
ATOM     11  C   UNL d   1      60.049  -0.081  29.564  0.00  0.00     0.000 A 
ATOM     12  C   UNL d   1      59.773   0.568  30.793  0.00  0.00     0.000 A 
ENDROOT
BRANCH   2  13
ATOM     13  N   UNL d   1      57.211  -0.906  31.482  0.00  0.00    -0.300 N 
ATOM     14  C   UNL d   1      56.621  -1.478  31.434  0.00  0.00     0.100 A 
ATOM     15  C   UNL d   1      56.066  -1.504  32.001  0.00  0.00     0.102 A 
ATOM     16  N   UNL d   1      56.047  -0.971  32.660  0.00  0.00    -0.269 N 
ATOM     17  C   UNL d   1      55.473  -0.994  33.251  0.00  0.00     0.265 C 
ATOM     18  C   UNL d   1      56.632  -0.405  32.706  0.00  0.00     0.102 A 
ATOM     19  O   UNL d   1      54.855  -1.547  33.256  0.00  0.00    -0.267 OA
ATOM     20  C   UNL d   1      57.244  -0.371  32.087  0.00  0.00     0.100 A 
BRANCH  17  21
ATOM     21  C   UNL d   1      55.518  -0.446  33.858  0.00  0.00     0.057 A 
ATOM     22  C   UNL d   1      56.174  -0.422  34.371  0.00  0.00     0.005 A 
ATOM     23  C   UNL d   1      56.213   0.136  34.984  0.00  0.00     0.000 A 
ATOM     24  C   UNL d   1      55.590   0.681  35.091  0.00  0.00     0.000 A 
ATOM     25  C   UNL d   1      54.939   0.655  34.580  0.00  0.00     0.000 A 
ATOM     26  C   UNL d   1      54.905   0.095  33.969  0.00  0.00     0.005 A 
ENDBRANCH  17  21
ENDBRANCH   2  13
BRANCH   1  27
ATOM     27  N   UNL d   1      57.649  -1.941  29.528  0.00  0.00    -0.157 NA
BRANCH  27  28
ATOM     28  S   UNL d   1      58.066  -2.612  29.296  0.00  0.00     0.285 S 
ATOM     29  O   UNL d   1      58.161  -2.816  30.088  0.00  0.00    -0.198 OA
ATOM     30  O   UNL d   1      57.968  -2.404  28.511  0.00  0.00    -0.198 OA
BRANCH  28  31
ATOM     31  C   UNL d   1      58.480  -3.279  29.071  0.00  0.00     0.105 A 
ATOM     32  C   UNL d   1      58.096  -3.903  28.685  0.00  0.00     0.013 A 
ATOM     33  C   UNL d   1      58.515  -4.568  28.462  0.00  0.00     0.001 A 
ATOM     34  C   UNL d   1      59.314  -4.623  28.618  0.00  0.00     0.000 A 
ATOM     35  C   UNL d   1      59.719  -3.999  29.009  0.00  0.00     0.001 A 
ATOM     36  C   UNL d   1      59.284  -3.333  29.228  0.00  0.00     0.013 A 
ENDBRANCH  28  31
ENDBRANCH  27  28
ENDBRANCH   1  27
TORSDOF 5
ENDMDL
MODEL 2
REMARK VINA RESULT:       4.9      1.793      5.436
REMARK  5 active torsions:
REMARK  status: ('A' for Active; 'I' for Inactive)
REMARK    1  A    between atoms: N_3  and  S_1 
REMARK    2  A    between atoms: C_13  and  S_1 
REMARK    3  A    between atoms: C_2  and  N_3 
REMARK    4  A    between atoms: N_9  and  C_4 
REMARK       I    between atoms: C_8  and  N_10 
REMARK    5  A    between atoms: C_19  and  C_8 
ROOT
ATOM      1  C   UNL d   1      56.981   0.004  32.889  0.00  0.00     0.110 A 
ATOM      2  C   UNL d   1      56.946  -0.648  32.051  0.00  0.00     0.083 A 
ATOM      3  C   UNL d   1      56.437  -0.343  33.393  0.00  0.00     0.020 A 
ATOM      4  C   UNL d   1      56.389  -1.214  32.275  0.00  0.00     0.018 A 
ATOM      5  C   UNL d   1      56.133  -1.003  33.030  0.00  0.00     0.003 A 
ATOM      6  C   UNL d   1      55.568  -1.463  33.416  0.00  0.00     0.000 A 
ATOM      7  C   UNL d   1      56.188  -0.118  34.154  0.00  0.00     0.002 A 
ATOM      8  C   UNL d   1      56.086  -1.874  31.913  0.00  0.00     0.002 A 
ATOM      9  C   UNL d   1      55.616  -0.592  34.533  0.00  0.00     0.000 A 
ATOM     10  C   UNL d   1      55.512  -2.351  32.290  0.00  0.00     0.000 A 
ATOM     11  C   UNL d   1      55.309  -1.259  34.167  0.00  0.00     0.000 A 
ATOM     12  C   UNL d   1      55.262  -2.129  33.049  0.00  0.00     0.000 A 
ENDROOT
BRANCH   2  13
ATOM     13  N   UNL d   1      57.308  -0.704  31.319  0.00  0.00    -0.300 N 
ATOM     14  C   UNL d   1      57.074  -0.200  30.711  0.00  0.00     0.100 A 
ATOM     15  C   UNL d   1      57.431  -0.262  30.005  0.00  0.00     0.102 A 
ATOM     16  N   UNL d   1      58.044  -0.822  29.839  0.00  0.00    -0.269 N 
ATOM     17  C   UNL d   1      58.418  -0.890  29.107  0.00  0.00     0.265 C 
ATOM     18  C   UNL d   1      58.275  -1.321  30.442  0.00  0.00     0.102 A 
ATOM     19  O   UNL d   1      58.225  -0.410  28.458  0.00  0.00    -0.267 OA
ATOM     20  C   UNL d   1      57.888  -1.259  31.220  0.00  0.00     0.100 A 
BRANCH  17  21
ATOM     21  C   UNL d   1      59.003  -1.456  29.020  0.00  0.00     0.057 A 
ATOM     22  C   UNL d   1      58.814  -2.258  28.899  0.00  0.00     0.005 A 
ATOM     23  C   UNL d   1      59.413  -2.827  28.812  0.00  0.00     0.000 A 
ATOM     24  C   UNL d   1      60.215  -2.596  28.845  0.00  0.00     0.000 A 
ATOM     25  C   UNL d   1      60.400  -1.798  28.965  0.00  0.00     0.000 A 
ATOM     26  C   UNL d   1      59.797  -1.234  29.052  0.00  0.00     0.005 A 
ENDBRANCH  17  21
ENDBRANCH   2  13
BRANCH   1  27
ATOM     27  N   UNL d   1      57.385   0.681  33.096  0.00  0.00    -0.157 NA
BRANCH  27  28
ATOM     28  S   UNL d   1      58.197   0.675  33.233  0.00  0.00     0.285 S 
ATOM     29  O   UNL d   1      58.051   0.679  34.043  0.00  0.00    -0.198 OA
ATOM     30  O   UNL d   1      58.335   0.670  32.426  0.00  0.00    -0.198 OA
BRANCH  28  31
ATOM     31  C   UNL d   1      59.001   0.668  33.374  0.00  0.00     0.105 A 
ATOM     32  C   UNL d   1      59.539   0.682  32.745  0.00  0.00     0.013 A 
ATOM     33  C   UNL d   1      60.344   0.675  32.891  0.00  0.00     0.001 A 
ATOM     34  C   UNL d   1      60.622   0.655  33.658  0.00  0.00     0.000 A 
ATOM     35  C   UNL d   1      60.090   0.641  34.308  0.00  0.00     0.001 A 
ATOM     36  C   UNL d   1      59.281   0.648  34.145  0.00  0.00     0.013 A 
ENDBRANCH  28  31
ENDBRANCH  27  28
ENDBRANCH   1  27
TORSDOF 5
ENDMDL
