MODEL 1
REMARK VINA RESULT:      16.3      0.000      0.000
REMARK  5 active torsions:
REMARK  status: ('A' for Active; 'I' for Inactive)
REMARK    1  A    between atoms: C_7  and  C_1 
REMARK    2  A    between atoms: C_6  and  C_3 
REMARK       I    between atoms: N_8  and  C_6 
REMARK    3  A    between atoms: O_14  and  C_7 
REMARK    4  A    between atoms: C_13  and  N_8 
REMARK    5  A    between atoms: C_15  and  O_14 
ROOT
ATOM      1  C   UNL d   1      45.104 -14.393  44.667  0.00  0.00     0.090 A 
ATOM      2  C   UNL d   1      44.450 -13.894  44.776  0.00  0.00     0.138 A 
ATOM      3  C   UNL d   1      45.494 -13.147  44.539  0.00  0.00     0.089 A 
ATOM      4  C   UNL d   1      45.756 -13.910  44.518  0.00  0.00     0.018 A 
ATOM      5  S   UNL d   1      44.741 -13.138  44.688  0.00  0.00    -0.061 SA
ATOM      6  N   UNL d   1      43.665 -14.156  44.941  0.00  0.00    -0.141 N 
ATOM      7  C   UNL d   1      46.546 -14.211  44.374  0.00  0.00     0.001 C 
ENDROOT
BRANCH   3   8
ATOM      8  C   UNL d   1      46.026 -12.545  44.410  0.00  0.00     0.285 C 
ATOM      9  N   UNL d   1      45.937 -12.080  43.755  0.00  0.00    -0.208 NA
ATOM     10  O   UNL d   1      46.647 -12.427  44.955  0.00  0.00    -0.265 OA
BRANCH   9  11
ATOM     11  C   UNL d   1      45.319 -12.213  43.230  0.00  0.00     0.085 A 
ATOM     12  C   UNL d   1      44.577 -12.095  43.421  0.00  0.00     0.019 A 
ATOM     13  C   UNL d   1      44.018 -12.240  42.869  0.00  0.00     0.002 A 
ATOM     14  C   UNL d   1      44.155 -12.497  42.139  0.00  0.00     0.000 A 
ATOM     15  C   UNL d   1      44.931 -12.640  41.880  0.00  0.00     0.002 A 
ATOM     16  C   UNL d   1      45.518 -12.485  42.467  0.00  0.00     0.019 A 
ENDBRANCH   9  11
ENDBRANCH   3   8
BRANCH   1  17
ATOM     17  C   UNL d   1      45.091 -15.203  44.702  0.00  0.00     0.302 C 
ATOM     18  O   UNL d   1      44.381 -15.610  44.878  0.00  0.00    -0.259 OA
BRANCH  17  19
ATOM     19  O   UNL d   1      45.771 -15.649  44.567  0.00  0.00    -0.271 OA
BRANCH  19  20
ATOM     20  C   UNL d   1      45.732 -16.463  44.668  0.00  0.00     0.126 C 
ATOM     21  C   UNL d   1      46.326 -16.933  44.342  0.00  0.00     0.029 C 
ENDBRANCH  19  20
ENDBRANCH  17  19
ENDBRANCH   1  17
TORSDOF 5
ENDMDL
