MODEL 1
REMARK VINA RESULT:      82.5      0.000      0.000
REMARK  5 active torsions:
REMARK  status: ('A' for Active; 'I' for Inactive)
REMARK    1  A    between atoms: N_9  and  C_2 
REMARK    2  A    between atoms: N_11  and  C_6 
REMARK    3  A    between atoms: C_16  and  N_11 
REMARK    4  A    between atoms: C_15  and  N_12 
REMARK    5  A    between atoms: C_24  and  C_15 
ROOT
ATOM      1  N   UNL d   1     -48.401  28.864  35.566  0.00  0.00    -0.041 NA
ATOM      2  C   UNL d   1     -48.519  28.883  34.792  0.00  0.00     0.738 A 
ATOM      3  C   UNL d   1     -47.929  29.389  35.901  0.00  0.00     0.187 A 
ATOM      4  N   UNL d   1     -48.162  29.431  34.353  0.00  0.00    -0.041 NA
ATOM      5  C   UNL d   1     -47.570  29.939  35.465  0.00  0.00     0.094 A 
ATOM      6  C   UNL d   1     -47.686  29.962  34.684  0.00  0.00     0.185 A 
ATOM      7  N   UNL d   1     -47.333  29.901  37.024  0.00  0.00    -0.162 NA
ATOM      8  N   UNL d   1     -47.814  29.366  36.682  0.00  0.00    -0.208 N 
ATOM      9  C   UNL d   1     -46.976  30.449  36.584  0.00  0.00     0.127 A 
ATOM     10  C   UNL d   1     -48.169  28.821  37.120  0.00  0.00     0.123 C 
ENDROOT
BRANCH   2  11
ATOM     11  N   UNL d   1     -49.019  28.328  34.432  0.00  0.00    -0.134 N 
ATOM     12  C   UNL d   1     -49.245  27.645  34.848  0.00  0.00     0.117 A 
ATOM     13  C   UNL d   1     -49.748  27.085  34.487  0.00  0.00     0.100 A 
ATOM     14  N   UNL d   1     -50.018  27.209  33.723  0.00  0.00    -0.300 N 
ATOM     15  C   UNL d   1     -49.792  27.892  33.306  0.00  0.00     0.100 A 
ATOM     16  C   UNL d   1     -49.297  28.448  33.656  0.00  0.00     0.117 A 
BRANCH  14  17
ATOM     17  C   UNL d   1     -50.518  26.659  33.356  0.00  0.00     0.080 C 
BRANCH  17  18
ATOM     18  C   UNL d   1     -50.856  25.906  33.339  0.00  0.00     0.018 A 
ATOM     19  C   UNL d   1     -51.682  25.818  33.334  0.00  0.00     0.002 A 
ATOM     20  C   UNL d   1     -52.008  25.067  33.318  0.00  0.00     0.000 A 
ATOM     21  C   UNL d   1     -51.530  24.393  33.306  0.00  0.00     0.000 A 
ATOM     22  C   UNL d   1     -50.703  24.482  33.312  0.00  0.00     0.000 A 
ATOM     23  C   UNL d   1     -50.366  25.243  33.328  0.00  0.00     0.002 A 
ENDBRANCH  17  18
ENDBRANCH  14  17
ENDBRANCH   2  11
BRANCH   6  24
ATOM     24  N   UNL d   1     -47.318  30.529  34.221  0.00  0.00    -0.226 NA
BRANCH  24  25
ATOM     25  C   UNL d   1     -47.609  31.296  34.194  0.00  0.00     0.083 A 
ATOM     26  C   UNL d   1     -48.320  31.454  33.810  0.00  0.00     0.021 A 
ATOM     27  C   UNL d   1     -48.617  32.231  33.782  0.00  0.00     0.031 A 
ATOM     28  C   UNL d   1     -48.203  32.846  34.137  0.00  0.00     0.140 A 
ATOM     29  C   UNL d   1     -47.484  32.694  34.526  0.00  0.00     0.031 A 
ATOM     30  F   UNL d   1     -48.501  33.610  34.105  0.00  0.00    -0.204 F 
ATOM     31  C   UNL d   1     -47.194  31.922  34.551  0.00  0.00     0.021 A 
ENDBRANCH  24  25
ENDBRANCH   6  24
TORSDOF 5
ENDMDL
MODEL 2
REMARK VINA RESULT:      85.2      2.706      6.783
REMARK  5 active torsions:
REMARK  status: ('A' for Active; 'I' for Inactive)
REMARK    1  A    between atoms: N_9  and  C_2 
REMARK    2  A    between atoms: N_11  and  C_6 
REMARK    3  A    between atoms: C_16  and  N_11 
REMARK    4  A    between atoms: C_15  and  N_12 
REMARK    5  A    between atoms: C_24  and  C_15 
ROOT
ATOM      1  N   UNL d   1     -50.291  25.319  33.616  0.00  0.00    -0.041 NA
ATOM      2  C   UNL d   1     -50.661  26.008  33.628  0.00  0.00     0.738 A 
ATOM      3  C   UNL d   1     -50.699  24.659  33.516  0.00  0.00     0.187 A 
ATOM      4  N   UNL d   1     -51.444  26.037  33.539  0.00  0.00    -0.041 NA
ATOM      5  C   UNL d   1     -51.482  24.684  33.427  0.00  0.00     0.094 A 
ATOM      6  C   UNL d   1     -51.860  25.377  33.438  0.00  0.00     0.185 A 
ATOM      7  N   UNL d   1     -50.737  23.294  33.404  0.00  0.00    -0.162 NA
ATOM      8  N   UNL d   1     -50.321  23.966  33.506  0.00  0.00    -0.208 N 
ATOM      9  C   UNL d   1     -51.520  23.323  33.315  0.00  0.00     0.127 A 
ATOM     10  C   UNL d   1     -49.543  23.937  33.594  0.00  0.00     0.123 C 
ENDROOT
BRANCH   2  11
ATOM     11  N   UNL d   1     -50.232  26.711  33.734  0.00  0.00    -0.134 N 
ATOM     12  C   UNL d   1     -50.612  27.444  33.640  0.00  0.00     0.117 A 
ATOM     13  C   UNL d   1     -50.182  28.152  33.746  0.00  0.00     0.100 A 
ATOM     14  N   UNL d   1     -49.387  28.122  33.942  0.00  0.00    -0.300 N 
ATOM     15  C   UNL d   1     -49.007  27.389  34.036  0.00  0.00     0.100 A 
ATOM     16  C   UNL d   1     -49.424  26.688  33.933  0.00  0.00     0.117 A 
BRANCH  14  17
ATOM     17  C   UNL d   1     -48.951  28.820  34.050  0.00  0.00     0.080 C 
BRANCH  17  18
ATOM     18  C   UNL d   1     -48.480  29.296  34.531  0.00  0.00     0.018 A 
ATOM     19  C   UNL d   1     -48.086  28.970  35.186  0.00  0.00     0.002 A 
ATOM     20  C   UNL d   1     -47.620  29.450  35.658  0.00  0.00     0.000 A 
ATOM     21  C   UNL d   1     -47.535  30.256  35.496  0.00  0.00     0.000 A 
ATOM     22  C   UNL d   1     -47.929  30.582  34.841  0.00  0.00     0.000 A 
ATOM     23  C   UNL d   1     -48.404  30.099  34.358  0.00  0.00     0.002 A 
ENDBRANCH  17  18
ENDBRANCH  14  17
ENDBRANCH   2  11
BRANCH   6  24
ATOM     24  N   UNL d   1     -52.673  25.416  33.346  0.00  0.00    -0.226 NA
BRANCH  24  25
ATOM     25  C   UNL d   1     -53.158  24.863  33.711  0.00  0.00     0.083 A 
ATOM     26  C   UNL d   1     -53.839  24.598  33.331  0.00  0.00     0.021 A 
ATOM     27  C   UNL d   1     -54.333  24.038  33.699  0.00  0.00     0.031 A 
ATOM     28  C   UNL d   1     -54.144  23.745  34.443  0.00  0.00     0.140 A 
ATOM     29  C   UNL d   1     -53.458  24.008  34.832  0.00  0.00     0.031 A 
ATOM     30  F   UNL d   1     -54.635  23.192  34.800  0.00  0.00    -0.204 F 
ATOM     31  C   UNL d   1     -52.972  24.563  34.464  0.00  0.00     0.021 A 
ENDBRANCH  24  25
ENDBRANCH   6  24
TORSDOF 5
ENDMDL
