MODEL 1
REMARK VINA RESULT:      -7.1      0.000      0.000
REMARK  4 active torsions:
REMARK  status: ('A' for Active; 'I' for Inactive)
REMARK    1  A    between atoms: C_2  and  N_1 
REMARK       I    between atoms: C_3  and  N_1 
REMARK    2  A    between atoms: C_6  and  C_3 
REMARK    3  A    between atoms: O_7  and  C_6 
REMARK    4  A    between atoms: C_9  and  O_7 
ROOT
ATOM      1  C   UNL d   1      53.691  32.243  54.087  0.00  0.00     0.158 C 
ATOM      2  C   UNL d   1      53.690  31.845  54.799  0.00  0.00     0.032 C 
ENDROOT
BRANCH   1   3
ATOM      3  C   UNL d   1      53.699  33.067  54.074  0.00  0.00     0.304 C 
ATOM      4  N   UNL d   1      53.094  33.492  54.425  0.00  0.00    -0.181 NA
ATOM      5  O   UNL d   1      54.321  33.464  53.706  0.00  0.00    -0.263 OA
BRANCH   4   6
ATOM      6  C   UNL d   1      53.101  34.315  54.413  0.00  0.00     0.197 A 
ATOM      7  N   UNL d   1      53.430  34.806  54.995  0.00  0.00    -0.219 NA
ATOM      8  C   UNL d   1      53.316  35.587  54.764  0.00  0.00     0.108 A 
ATOM      9  C   UNL d   1      52.914  35.584  54.033  0.00  0.00     0.059 A 
ATOM     10  S   UNL d   1      52.784  34.799  53.820  0.00  0.00    -0.046 SA
ENDBRANCH   4   6
ENDBRANCH   1   3
BRANCH   1  11
ATOM     11  O   UNL d   1      53.684  31.817  53.380  0.00  0.00    -0.302 OA
BRANCH  11  12
ATOM     12  C   UNL d   1      53.325  31.077  53.346  0.00  0.00     0.100 A 
ATOM     13  C   UNL d   1      52.598  30.985  52.955  0.00  0.00     0.025 A 
ATOM     14  C   UNL d   1      52.242  30.239  52.925  0.00  0.00     0.002 A 
ATOM     15  C   UNL d   1      52.602  29.587  53.279  0.00  0.00     0.000 A 
ATOM     16  C   UNL d   1      53.322  29.674  53.668  0.00  0.00     0.002 A 
ATOM     17  C   UNL d   1      53.688  30.419  53.705  0.00  0.00     0.025 A 
ENDBRANCH  11  12
ENDBRANCH   1  11
TORSDOF 4
ENDMDL
MODEL 2
REMARK VINA RESULT:      -7.1      1.639      4.110
REMARK  4 active torsions:
REMARK  status: ('A' for Active; 'I' for Inactive)
REMARK    1  A    between atoms: C_2  and  N_1 
REMARK       I    between atoms: C_3  and  N_1 
REMARK    2  A    between atoms: C_6  and  C_3 
REMARK    3  A    between atoms: O_7  and  C_6 
REMARK    4  A    between atoms: C_9  and  O_7 
ROOT
ATOM      1  C   UNL d   1      53.846  32.755  54.234  0.00  0.00     0.158 C 
ATOM      2  C   UNL d   1      54.581  33.081  54.376  0.00  0.00     0.032 C 
ENDROOT
BRANCH   1   3
ATOM      3  C   UNL d   1      53.784  32.032  53.843  0.00  0.00     0.304 C 
ATOM      4  N   UNL d   1      53.209  31.492  54.063  0.00  0.00    -0.181 NA
ATOM      5  O   UNL d   1      54.303  31.854  53.228  0.00  0.00    -0.263 OA
BRANCH   4   6
ATOM      6  C   UNL d   1      53.146  30.769  53.672  0.00  0.00     0.197 A 
ATOM      7  N   UNL d   1      52.798  30.649  52.930  0.00  0.00    -0.219 NA
ATOM      8  C   UNL d   1      52.854  29.848  52.750  0.00  0.00     0.108 A 
ATOM      9  C   UNL d   1      53.239  29.467  53.384  0.00  0.00     0.059 A 
ATOM     10  S   UNL d   1      53.417  30.038  53.950  0.00  0.00    -0.046 SA
ENDBRANCH   4   6
ENDBRANCH   1   3
BRANCH   1  11
ATOM     11  O   UNL d   1      53.167  33.152  54.484  0.00  0.00    -0.302 OA
BRANCH  11  12
ATOM     12  C   UNL d   1      53.105  33.967  54.385  0.00  0.00     0.100 A 
ATOM     13  C   UNL d   1      53.351  34.480  54.990  0.00  0.00     0.025 A 
ATOM     14  C   UNL d   1      53.286  35.298  54.885  0.00  0.00     0.002 A 
ATOM     15  C   UNL d   1      52.978  35.608  54.185  0.00  0.00     0.000 A 
ATOM     16  C   UNL d   1      52.732  35.103  53.583  0.00  0.00     0.002 A 
ATOM     17  C   UNL d   1      52.794  34.280  53.678  0.00  0.00     0.025 A 
ENDBRANCH  11  12
ENDBRANCH   1  11
TORSDOF 4
ENDMDL
MODEL 3
REMARK VINA RESULT:      -7.0      2.396      3.329
REMARK  4 active torsions:
REMARK  status: ('A' for Active; 'I' for Inactive)
REMARK    1  A    between atoms: C_2  and  N_1 
REMARK       I    between atoms: C_3  and  N_1 
REMARK    2  A    between atoms: C_6  and  C_3 
REMARK    3  A    between atoms: O_7  and  C_6 
REMARK    4  A    between atoms: C_9  and  O_7 
ROOT
ATOM      1  C   UNL d   1      52.346  33.167  53.139  0.00  0.00     0.158 C 
ATOM      2  C   UNL d   1      52.529  32.374  53.084  0.00  0.00     0.032 C 
ENDROOT
BRANCH   1   3
ATOM      3  C   UNL d   1      51.566  33.418  53.051  0.00  0.00     0.304 C 
ATOM      4  N   UNL d   1      51.392  34.075  52.595  0.00  0.00    -0.181 NA
ATOM      5  O   UNL d   1      50.958  33.005  53.426  0.00  0.00    -0.263 OA
BRANCH   4   6
ATOM      6  C   UNL d   1      50.613  34.327  52.506  0.00  0.00     0.197 A 
ATOM      7  N   UNL d   1      50.168  34.735  53.075  0.00  0.00    -0.219 NA
ATOM      8  C   UNL d   1      49.421  34.877  52.760  0.00  0.00     0.108 A 
ATOM      9  C   UNL d   1      49.400  34.557  51.990  0.00  0.00     0.059 A 
ATOM     10  S   UNL d   1      50.136  34.219  51.838  0.00  0.00    -0.046 SA
ENDBRANCH   4   6
ENDBRANCH   1   3
BRANCH   1  11
ATOM     11  O   UNL d   1      52.945  33.716  53.284  0.00  0.00    -0.302 OA
BRANCH  11  12
ATOM     12  C   UNL d   1      53.554  33.536  53.807  0.00  0.00     0.100 A 
ATOM     13  C   UNL d   1      54.214  33.103  53.545  0.00  0.00     0.025 A 
ATOM     14  C   UNL d   1      54.822  32.925  54.077  0.00  0.00     0.002 A 
ATOM     15  C   UNL d   1      54.780  33.173  54.862  0.00  0.00     0.000 A 
ATOM     16  C   UNL d   1      54.128  33.602  55.126  0.00  0.00     0.002 A 
ATOM     17  C   UNL d   1      53.511  33.786  54.601  0.00  0.00     0.025 A 
ENDBRANCH  11  12
ENDBRANCH   1  11
TORSDOF 4
ENDMDL
MODEL 4
REMARK VINA RESULT:      -6.6      2.447      3.436
REMARK  4 active torsions:
REMARK  status: ('A' for Active; 'I' for Inactive)
REMARK    1  A    between atoms: C_2  and  N_1 
REMARK       I    between atoms: C_3  and  N_1 
REMARK    2  A    between atoms: C_6  and  C_3 
REMARK    3  A    between atoms: O_7  and  C_6 
REMARK    4  A    between atoms: C_9  and  O_7 
ROOT
ATOM      1  C   UNL d   1      52.123  33.552  53.310  0.00  0.00     0.158 C 
ATOM      2  C   UNL d   1      51.652  32.889  53.246  0.00  0.00     0.032 C 
ENDROOT
BRANCH   1   3
ATOM      3  C   UNL d   1      52.875  33.494  53.644  0.00  0.00     0.304 C 
ATOM      4  N   UNL d   1      53.005  33.737  54.415  0.00  0.00    -0.181 NA
ATOM      5  O   UNL d   1      53.498  33.189  53.198  0.00  0.00    -0.263 OA
BRANCH   4   6
ATOM      6  C   UNL d   1      53.755  33.679  54.749  0.00  0.00     0.197 A 
ATOM      7  N   UNL d   1      54.315  34.290  54.791  0.00  0.00    -0.219 NA
ATOM      8  C   UNL d   1      54.985  33.995  55.167  0.00  0.00     0.108 A 
ATOM      9  C   UNL d   1      54.843  33.196  55.360  0.00  0.00     0.059 A 
ATOM     10  S   UNL d   1      54.084  33.006  55.100  0.00  0.00    -0.046 SA
ENDBRANCH   4   6
ENDBRANCH   1   3
BRANCH   1  11
ATOM     11  O   UNL d   1      51.844  34.280  53.040  0.00  0.00    -0.302 OA
BRANCH  11  12
ATOM     12  C   UNL d   1      51.117  34.328  52.656  0.00  0.00     0.100 A 
ATOM     13  C   UNL d   1      51.071  34.204  51.836  0.00  0.00     0.025 A 
ATOM     14  C   UNL d   1      50.337  34.253  51.456  0.00  0.00     0.002 A 
ATOM     15  C   UNL d   1      49.653  34.425  51.885  0.00  0.00     0.000 A 
ATOM     16  C   UNL d   1      49.695  34.548  52.698  0.00  0.00     0.002 A 
ATOM     17  C   UNL d   1      50.427  34.501  53.089  0.00  0.00     0.025 A 
ENDBRANCH  11  12
ENDBRANCH   1  11
TORSDOF 4
ENDMDL
