MODEL 1
REMARK VINA RESULT:      55.9      0.000      0.000
REMARK  3 active torsions:
REMARK  status: ('A' for Active; 'I' for Inactive)
REMARK    1  A    between atoms: N_2  and  S_1 
REMARK    2  A    between atoms: C_4  and  S_1 
REMARK       I    between atoms: C_8  and  N_10 
REMARK    3  A    between atoms: N_10  and  C_16 
ROOT
ATOM      1  S   UNL d   1      14.197  14.236  -2.523  0.00  0.00     0.271 S 
ATOM      2  O   UNL d   1      14.679  13.599  -2.325  0.00  0.00    -0.200 OA
ATOM      3  O   UNL d   1      13.712  14.873  -2.724  0.00  0.00    -0.200 OA
ENDROOT
BRANCH   1   4
ATOM      4  N   UNL d   1      14.556  14.690  -1.936  0.00  0.00    -0.229 N 
ATOM      5  C   UNL d   1      14.804  15.458  -2.113  0.00  0.00     0.092 A 
ATOM      6  C   UNL d   1      15.162  15.914  -1.531  0.00  0.00     0.018 A 
ATOM      7  C   UNL d   1      15.409  16.679  -1.709  0.00  0.00     0.002 A 
ATOM      8  C   UNL d   1      15.274  15.608  -0.773  0.00  0.00     0.003 A 
ATOM      9  C   UNL d   1      15.767  17.133  -1.126  0.00  0.00     0.000 A 
ATOM     10  C   UNL d   1      15.881  16.832  -0.367  0.00  0.00     0.000 A 
ATOM     11  C   UNL d   1      15.631  16.064  -0.194  0.00  0.00     0.000 A 
ATOM     12  C   UNL d   1      15.024  14.841  -0.603  0.00  0.00     0.020 A 
ATOM     13  C   UNL d   1      14.663  14.380  -1.189  0.00  0.00     0.092 A 
ENDBRANCH   1   4
BRANCH   1  14
ATOM     14  C   UNL d   1      13.841  13.775  -3.111  0.00  0.00     0.104 A 
ATOM     15  C   UNL d   1      13.401  14.144  -3.706  0.00  0.00     0.014 A 
ATOM     16  C   UNL d   1      13.047  13.679  -4.290  0.00  0.00     0.020 A 
ATOM     17  C   UNL d   1      13.133  12.859  -4.280  0.00  0.00     0.085 A 
ATOM     18  C   UNL d   1      13.577  12.504  -3.678  0.00  0.00     0.020 A 
ATOM     19  C   UNL d   1      13.928  12.963  -3.097  0.00  0.00     0.014 A 
BRANCH  17  20
ATOM     20  N   UNL d   1      12.779  12.406  -4.864  0.00  0.00    -0.208 NA
ATOM     21  C   UNL d   1      13.157  12.279  -5.581  0.00  0.00     0.279 C 
ATOM     22  O   UNL d   1      13.901  12.608  -5.720  0.00  0.00    -0.265 OA
ATOM     23  C   UNL d   1      12.800  11.823  -6.170  0.00  0.00     0.068 C 
ENDBRANCH  17  20
ENDBRANCH   1  14
TORSDOF 3
ENDMDL
