MODEL 1
REMARK VINA RESULT:      73.4      0.000      0.000
REMARK  3 active torsions:
REMARK  status: ('A' for Active; 'I' for Inactive)
REMARK    1  A    between atoms: C_9  and  N_1 
REMARK       I    between atoms: C_8  and  N_2 
REMARK    2  A    between atoms: C_3  and  C_9 
REMARK    3  A    between atoms: C_13  and  C_8 
ROOT
ATOM      1  N   UNL d   1      61.047  47.845  50.467  0.00  0.00    -0.194 N 
ATOM      2  C   UNL d   1      60.492  49.055  50.587  0.00  0.00     0.055 A 
ATOM      3  N   UNL d   1      61.310  48.320  49.829  0.00  0.00    -0.163 NA
ATOM      4  C   UNL d   1      60.548  48.305  50.923  0.00  0.00     0.089 A 
ATOM      5  C   UNL d   1      61.260  47.061  50.597  0.00  0.00     0.286 C 
ATOM      6  C   UNL d   1      60.961  49.066  49.913  0.00  0.00     0.104 A 
ATOM      7  O   UNL d   1      60.949  46.665  51.260  0.00  0.00    -0.265 OA
ATOM      8  C   UNL d   1      60.165  48.049  51.611  0.00  0.00     0.021 C 
ATOM      9  C   UNL d   1      61.072  49.707  49.400  0.00  0.00     0.023 C 
ENDROOT
BRANCH   2  10
ATOM     10  C   UNL d   1      60.039  49.689  50.883  0.00  0.00     0.089 C 
BRANCH  10  11
ATOM     11  N   UNL d   1      59.217  49.693  50.787  0.00  0.00    -0.240 N 
ATOM     12  C   UNL d   1      58.665  49.696  51.390  0.00  0.00     0.267 A 
ATOM     13  C   UNL d   1      57.916  49.700  51.037  0.00  0.00     0.061 A 
ATOM     14  O   UNL d   1      58.827  49.695  52.200  0.00  0.00    -0.267 OA
ATOM     15  C   UNL d   1      57.162  49.703  51.367  0.00  0.00     0.005 A 
ATOM     16  C   UNL d   1      58.008  49.699  50.225  0.00  0.00     0.061 A 
ATOM     17  C   UNL d   1      56.499  49.707  50.879  0.00  0.00     0.000 A 
ATOM     18  C   UNL d   1      56.590  49.706  50.058  0.00  0.00     0.000 A 
ATOM     19  C   UNL d   1      57.345  49.702  49.729  0.00  0.00     0.005 A 
ATOM     20  C   UNL d   1      58.818  49.695  50.059  0.00  0.00     0.267 A 
ATOM     21  O   UNL d   1      59.161  49.693  49.306  0.00  0.00    -0.267 OA
ENDBRANCH  10  11
ENDBRANCH   2  10
BRANCH   5  22
ATOM     22  C   UNL d   1      61.773  46.682  50.077  0.00  0.00     0.087 A 
ATOM     23  S   UNL d   1      62.591  46.787  50.042  0.00  0.00    -0.082 SA
ATOM     24  C   UNL d   1      62.881  46.300  49.443  0.00  0.00     0.036 A 
ATOM     25  C   UNL d   1      62.253  45.899  49.111  0.00  0.00     0.008 A 
ATOM     26  C   UNL d   1      61.561  46.134  49.503  0.00  0.00     0.012 A 
ENDBRANCH   5  22
TORSDOF 3
ENDMDL
