MODEL 1
REMARK VINA RESULT:      63.0      0.000      0.000
REMARK  5 active torsions:
REMARK  status: ('A' for Active; 'I' for Inactive)
REMARK    1  A    between atoms: C_5  and  C_1 
REMARK    2  A    between atoms: O_8  and  C_2 
REMARK    3  A    between atoms: C_20  and  O_8 
REMARK    4  A    between atoms: C_11  and  O_14 
REMARK    5  A    between atoms: O_14  and  C_13 
ROOT
ATOM      1  C   UNL d   1     -51.387  26.792  33.514  0.00  0.00     0.197 A 
ATOM      2  C   UNL d   1     -51.289  25.973  33.465  0.00  0.00     0.165 A 
ATOM      3  O   UNL d   1     -50.746  27.262  33.663  0.00  0.00    -0.301 OA
ATOM      4  C   UNL d   1     -50.545  25.633  33.567  0.00  0.00     0.222 A 
ATOM      5  C   UNL d   1     -50.001  26.932  33.767  0.00  0.00     0.105 A 
ATOM      6  C   UNL d   1     -49.903  26.112  33.717  0.00  0.00     0.064 A 
ATOM      7  C   UNL d   1     -49.349  27.411  33.919  0.00  0.00     0.050 A 
ATOM      8  C   UNL d   1     -49.150  25.780  33.821  0.00  0.00     0.007 A 
ATOM      9  O   UNL d   1     -50.449  24.821  33.518  0.00  0.00    -0.284 OA
ATOM     10  C   UNL d   1     -48.616  27.087  34.020  0.00  0.00     0.105 A 
ATOM     11  C   UNL d   1     -48.516  26.269  33.971  0.00  0.00     0.025 A 
ENDROOT
BRANCH   2  12
ATOM     12  O   UNL d   1     -51.936  25.468  33.311  0.00  0.00    -0.302 OA
BRANCH  12  13
ATOM     13  C   UNL d   1     -51.971  24.716  33.643  0.00  0.00     0.100 A 
ATOM     14  C   UNL d   1     -52.456  24.567  34.287  0.00  0.00     0.025 A 
ATOM     15  C   UNL d   1     -52.489  23.812  34.618  0.00  0.00     0.002 A 
ATOM     16  C   UNL d   1     -52.032  23.202  34.298  0.00  0.00     0.000 A 
ATOM     17  C   UNL d   1     -51.538  23.345  33.644  0.00  0.00     0.002 A 
ATOM     18  C   UNL d   1     -51.507  24.104  33.315  0.00  0.00     0.025 A 
ENDBRANCH  12  13
ENDBRANCH   2  12
BRANCH   1  19
ATOM     19  C   UNL d   1     -52.120  27.131  33.414  0.00  0.00     0.442 C 
ATOM     20  F   UNL d   1     -52.819  27.539  33.317  0.00  0.00    -0.164 F 
ATOM     21  F   UNL d   1     -52.857  26.651  33.327  0.00  0.00    -0.164 F 
ATOM     22  F   UNL d   1     -52.126  27.898  33.400  0.00  0.00    -0.164 F 
ENDBRANCH   1  19
BRANCH  10  23
ATOM     23  O   UNL d   1     -47.944  27.596  34.178  0.00  0.00    -0.273 OA
BRANCH  23  24
ATOM     24  C   UNL d   1     -47.917  28.022  34.885  0.00  0.00     0.300 C 
ATOM     25  O   UNL d   1     -48.625  28.154  35.329  0.00  0.00    -0.259 OA
ATOM     26  C   UNL d   1     -47.205  28.316  35.152  0.00  0.00     0.074 C 
ENDBRANCH  23  24
ENDBRANCH  10  23
TORSDOF 5
ENDMDL
MODEL 2
REMARK VINA RESULT:      65.6      1.078      1.519
REMARK  5 active torsions:
REMARK  status: ('A' for Active; 'I' for Inactive)
REMARK    1  A    between atoms: C_5  and  C_1 
REMARK    2  A    between atoms: O_8  and  C_2 
REMARK    3  A    between atoms: C_20  and  O_8 
REMARK    4  A    between atoms: C_11  and  O_14 
REMARK    5  A    between atoms: O_14  and  C_13 
ROOT
ATOM      1  C   UNL d   1     -51.076  26.731  34.305  0.00  0.00     0.197 A 
ATOM      2  C   UNL d   1     -50.600  26.270  33.810  0.00  0.00     0.165 A 
ATOM      3  O   UNL d   1     -50.735  27.289  34.779  0.00  0.00    -0.301 OA
ATOM      4  C   UNL d   1     -49.783  26.376  33.797  0.00  0.00     0.222 A 
ATOM      5  C   UNL d   1     -49.921  27.402  34.774  0.00  0.00     0.105 A 
ATOM      6  C   UNL d   1     -49.445  26.941  34.278  0.00  0.00     0.064 A 
ATOM      7  C   UNL d   1     -49.574  27.971  35.257  0.00  0.00     0.050 A 
ATOM      8  C   UNL d   1     -48.623  27.056  34.273  0.00  0.00     0.007 A 
ATOM      9  O   UNL d   1     -49.312  25.920  33.307  0.00  0.00    -0.284 OA
ATOM     10  C   UNL d   1     -48.774  28.082  35.251  0.00  0.00     0.105 A 
ATOM     11  C   UNL d   1     -48.297  27.624  34.758  0.00  0.00     0.025 A 
ENDROOT
BRANCH   2  12
ATOM     12  O   UNL d   1     -50.930  25.688  33.311  0.00  0.00    -0.302 OA
BRANCH  12  13
ATOM     13  C   UNL d   1     -50.682  24.905  33.357  0.00  0.00     0.100 A 
ATOM     14  C   UNL d   1     -49.883  24.720  33.344  0.00  0.00     0.025 A 
ATOM     15  C   UNL d   1     -49.637  23.934  33.389  0.00  0.00     0.002 A 
ATOM     16  C   UNL d   1     -50.199  23.329  33.448  0.00  0.00     0.000 A 
ATOM     17  C   UNL d   1     -51.010  23.509  33.462  0.00  0.00     0.002 A 
ATOM     18  C   UNL d   1     -51.254  24.299  33.416  0.00  0.00     0.025 A 
ENDBRANCH  12  13
ENDBRANCH   2  12
BRANCH   1  19
ATOM     19  C   UNL d   1     -51.883  26.628  34.320  0.00  0.00     0.442 C 
ATOM     20  F   UNL d   1     -52.694  26.557  34.265  0.00  0.00    -0.164 F 
ATOM     21  F   UNL d   1     -52.303  26.270  35.010  0.00  0.00    -0.164 F 
ATOM     22  F   UNL d   1     -52.254  26.866  33.691  0.00  0.00    -0.164 F 
ENDBRANCH   1  19
BRANCH  10  23
ATOM     23  O   UNL d   1     -48.424  28.678  35.759  0.00  0.00    -0.273 OA
BRANCH  23  24
ATOM     24  C   UNL d   1     -47.695  29.007  35.552  0.00  0.00     0.300 C 
ATOM     25  O   UNL d   1     -47.427  28.979  34.750  0.00  0.00    -0.259 OA
ATOM     26  C   UNL d   1     -47.234  29.358  36.126  0.00  0.00     0.074 C 
ENDBRANCH  23  24
ENDBRANCH  10  23
TORSDOF 5
ENDMDL
