MODEL 1
REMARK VINA RESULT:      -8.9      0.000      0.000
REMARK  7 active torsions:
REMARK  status: ('A' for Active; 'I' for Inactive)
REMARK    1  A    between atoms: N_7  and  C_2 
REMARK    2  A    between atoms: N_9  and  C_3 
REMARK    3  A    between atoms: C_14  and  N_7 
REMARK    4  A    between atoms: C_8  and  C_12 
REMARK    5  A    between atoms: O_19  and  C_8 
REMARK    6  A    between atoms: C_17  and  N_9 
REMARK    7  A    between atoms: C_29  and  O_19 
ROOT
ATOM      1  N   UNL d   1      53.137  32.887  53.509  0.00  0.00    -0.038 NA
ATOM      2  C   UNL d   1      53.335  32.151  53.843  0.00  0.00     0.202 A 
ATOM      3  C   UNL d   1      52.707  32.921  52.801  0.00  0.00     0.753 A 
ATOM      4  N   UNL d   1      52.475  32.212  52.427  0.00  0.00    -0.038 NA
ATOM      5  C   UNL d   1      53.103  31.454  53.471  0.00  0.00     0.154 A 
ATOM      6  C   UNL d   1      52.672  31.485  52.762  0.00  0.00     0.202 A 
ATOM      7  N   UNL d   1      53.307  30.730  53.815  0.00  0.00    -0.236 NA
ATOM      8  N   UNL d   1      52.445  30.783  52.396  0.00  0.00    -0.222 NA
ATOM      9  C   UNL d   1      53.072  30.025  53.438  0.00  0.00     0.120 A 
ATOM     10  C   UNL d   1      52.644  30.047  52.733  0.00  0.00     0.121 A 
ENDROOT
BRANCH   3  11
ATOM     11  N   UNL d   1      52.514  33.644  52.473  0.00  0.00    -0.059 NA
BRANCH  11  12
ATOM     12  C   UNL d   1      51.736  33.916  52.498  0.00  0.00     0.100 A 
ATOM     13  C   UNL d   1      51.378  34.098  53.202  0.00  0.00     0.020 A 
ATOM     14  C   UNL d   1      50.596  34.372  53.227  0.00  0.00     0.007 A 
ATOM     15  C   UNL d   1      50.170  34.462  52.523  0.00  0.00     0.064 A 
ATOM     16  C   UNL d   1      50.527  34.279  51.798  0.00  0.00     0.007 A 
ATOM     17  C   UNL d   1      51.306  34.007  51.782  0.00  0.00     0.020 A 
BRANCH  15  18
ATOM     18  C   UNL d   1      49.399  34.732  52.548  0.00  0.00     0.300 C 
ATOM     19  O   UNL d   1      48.845  34.451  51.998  0.00  0.00    -0.259 OA
BRANCH  18  20
ATOM     20  O   UNL d   1      49.162  35.283  53.115  0.00  0.00    -0.271 OA
BRANCH  20  21
ATOM     21  C   UNL d   1      48.421  35.642  53.066  0.00  0.00     0.126 C 
ATOM     22  C   UNL d   1      48.187  36.175  53.645  0.00  0.00     0.029 C 
ENDBRANCH  20  21
ENDBRANCH  18  20
ENDBRANCH  15  18
ENDBRANCH  11  12
ENDBRANCH   3  11
BRANCH   2  23
ATOM     23  N   UNL d   1      53.765  32.119  54.551  0.00  0.00    -0.225 NA
BRANCH  23  24
ATOM     24  C   UNL d   1      54.273  32.735  54.754  0.00  0.00     0.083 A 
ATOM     25  C   UNL d   1      54.113  33.202  55.423  0.00  0.00     0.020 A 
ATOM     26  C   UNL d   1      54.624  33.817  55.622  0.00  0.00     0.013 A 
ATOM     27  C   UNL d   1      55.292  33.973  55.164  0.00  0.00     0.058 A 
ATOM     28  C   UNL d   1      55.453  33.506  54.495  0.00  0.00     0.013 A 
ATOM     29 CL   UNL d   1      55.808  34.585  55.355  0.00  0.00    -0.082 Cl
ATOM     30  C   UNL d   1      54.941  32.890  54.295  0.00  0.00     0.020 A 
ENDBRANCH  23  24
ENDBRANCH   2  23
TORSDOF 7
ENDMDL
MODEL 2
REMARK VINA RESULT:      -8.1      1.538      2.859
REMARK  7 active torsions:
REMARK  status: ('A' for Active; 'I' for Inactive)
REMARK    1  A    between atoms: N_7  and  C_2 
REMARK    2  A    between atoms: N_9  and  C_3 
REMARK    3  A    between atoms: C_14  and  N_7 
REMARK    4  A    between atoms: C_8  and  C_12 
REMARK    5  A    between atoms: O_19  and  C_8 
REMARK    6  A    between atoms: C_17  and  N_9 
REMARK    7  A    between atoms: C_29  and  O_19 
ROOT
ATOM      1  N   UNL d   1      53.268  32.401  53.274  0.00  0.00    -0.038 NA
ATOM      2  C   UNL d   1      53.784  32.320  53.921  0.00  0.00     0.202 A 
ATOM      3  C   UNL d   1      52.974  33.148  53.066  0.00  0.00     0.753 A 
ATOM      4  N   UNL d   1      53.201  33.817  53.511  0.00  0.00    -0.038 NA
ATOM      5  C   UNL d   1      54.005  32.983  54.357  0.00  0.00     0.154 A 
ATOM      6  C   UNL d   1      53.712  33.732  54.152  0.00  0.00     0.202 A 
ATOM      7  N   UNL d   1      54.519  32.886  54.998  0.00  0.00    -0.236 NA
ATOM      8  N   UNL d   1      53.938  34.390  54.593  0.00  0.00    -0.222 NA
ATOM      9  C   UNL d   1      54.742  33.557  55.439  0.00  0.00     0.120 A 
ATOM     10  C   UNL d   1      54.456  34.305  55.241  0.00  0.00     0.121 A 
ENDROOT
BRANCH   3  11
ATOM     11  N   UNL d   1      52.467  33.227  52.430  0.00  0.00    -0.059 NA
BRANCH  11  12
ATOM     12  C   UNL d   1      51.743  33.613  52.522  0.00  0.00     0.100 A 
ATOM     13  C   UNL d   1      51.138  33.274  52.940  0.00  0.00     0.020 A 
ATOM     14  C   UNL d   1      50.411  33.663  53.032  0.00  0.00     0.007 A 
ATOM     15  C   UNL d   1      50.298  34.408  52.692  0.00  0.00     0.064 A 
ATOM     16  C   UNL d   1      50.911  34.763  52.262  0.00  0.00     0.007 A 
ATOM     17  C   UNL d   1      51.632  34.371  52.175  0.00  0.00     0.020 A 
BRANCH  15  18
ATOM     18  C   UNL d   1      49.582  34.790  52.782  0.00  0.00     0.300 C 
ATOM     19  O   UNL d   1      49.396  35.155  53.504  0.00  0.00    -0.259 OA
BRANCH  18  20
ATOM     20  O   UNL d   1      49.036  34.820  52.163  0.00  0.00    -0.271 OA
BRANCH  20  21
ATOM     21  C   UNL d   1      48.340  35.256  52.238  0.00  0.00     0.126 C 
ATOM     22  C   UNL d   1      47.819  35.303  51.606  0.00  0.00     0.029 C 
ENDBRANCH  20  21
ENDBRANCH  18  20
ENDBRANCH  15  18
ENDBRANCH  11  12
ENDBRANCH   3  11
BRANCH   2  23
ATOM     23  N   UNL d   1      54.076  31.572  54.127  0.00  0.00    -0.225 NA
BRANCH  23  24
ATOM     24  C   UNL d   1      53.666  30.893  53.904  0.00  0.00     0.083 A 
ATOM     25  C   UNL d   1      53.135  30.536  54.436  0.00  0.00     0.020 A 
ATOM     26  C   UNL d   1      52.728  29.858  54.209  0.00  0.00     0.013 A 
ATOM     27  C   UNL d   1      52.841  29.528  53.462  0.00  0.00     0.058 A 
ATOM     28  C   UNL d   1      53.372  29.885  52.930  0.00  0.00     0.013 A 
ATOM     29 CL   UNL d   1      52.438  28.850  53.227  0.00  0.00    -0.082 Cl
ATOM     30  C   UNL d   1      53.782  30.565  53.156  0.00  0.00     0.020 A 
ENDBRANCH  23  24
ENDBRANCH   2  23
TORSDOF 7
ENDMDL
MODEL 3
REMARK VINA RESULT:      -8.0      2.201      4.316
REMARK  7 active torsions:
REMARK  status: ('A' for Active; 'I' for Inactive)
REMARK    1  A    between atoms: N_7  and  C_2 
REMARK    2  A    between atoms: N_9  and  C_3 
REMARK    3  A    between atoms: C_14  and  N_7 
REMARK    4  A    between atoms: C_8  and  C_12 
REMARK    5  A    between atoms: O_19  and  C_8 
REMARK    6  A    between atoms: C_17  and  N_9 
REMARK    7  A    between atoms: C_29  and  O_19 
ROOT
ATOM      1  N   UNL d   1      52.768  33.319  53.270  0.00  0.00    -0.038 NA
ATOM      2  C   UNL d   1      52.316  33.943  53.584  0.00  0.00     0.202 A 
ATOM      3  C   UNL d   1      52.464  32.853  52.655  0.00  0.00     0.753 A 
ATOM      4  N   UNL d   1      51.702  33.016  52.355  0.00  0.00    -0.038 NA
ATOM      5  C   UNL d   1      51.565  34.100  53.284  0.00  0.00     0.154 A 
ATOM      6  C   UNL d   1      51.258  33.635  52.669  0.00  0.00     0.202 A 
ATOM      7  N   UNL d   1      51.128  34.723  53.607  0.00  0.00    -0.236 NA
ATOM      8  N   UNL d   1      50.507  33.798  52.375  0.00  0.00    -0.222 NA
ATOM      9  C   UNL d   1      50.369  34.881  53.303  0.00  0.00     0.120 A 
ATOM     10  C   UNL d   1      50.056  34.424  52.692  0.00  0.00     0.121 A 
ENDROOT
BRANCH   3  11
ATOM     11  N   UNL d   1      52.908  32.241  52.347  0.00  0.00    -0.059 NA
BRANCH  11  12
ATOM     12  C   UNL d   1      52.941  31.514  52.738  0.00  0.00     0.100 A 
ATOM     13  C   UNL d   1      52.267  31.092  52.895  0.00  0.00     0.020 A 
ATOM     14  C   UNL d   1      52.301  30.363  53.287  0.00  0.00     0.007 A 
ATOM     15  C   UNL d   1      53.033  30.057  53.523  0.00  0.00     0.064 A 
ATOM     16  C   UNL d   1      53.727  30.481  53.367  0.00  0.00     0.007 A 
ATOM     17  C   UNL d   1      53.685  31.207  52.976  0.00  0.00     0.020 A 
BRANCH  15  18
ATOM     18  C   UNL d   1      53.065  29.338  53.910  0.00  0.00     0.300 C 
ATOM     19  O   UNL d   1      52.927  28.636  53.489  0.00  0.00    -0.259 OA
BRANCH  18  20
ATOM     20  O   UNL d   1      53.234  29.299  54.717  0.00  0.00    -0.271 OA
BRANCH  20  21
ATOM     21  C   UNL d   1      53.344  28.569  55.087  0.00  0.00     0.126 C 
ATOM     22  C   UNL d   1      53.353  28.526  55.907  0.00  0.00     0.029 C 
ENDBRANCH  20  21
ENDBRANCH  18  20
ENDBRANCH  15  18
ENDBRANCH  11  12
ENDBRANCH   3  11
BRANCH   2  23
ATOM     23  N   UNL d   1      52.622  34.408  54.199  0.00  0.00    -0.225 NA
BRANCH  23  24
ATOM     24  C   UNL d   1      53.361  34.234  54.520  0.00  0.00     0.083 A 
ATOM     25  C   UNL d   1      53.417  33.742  55.188  0.00  0.00     0.020 A 
ATOM     26  C   UNL d   1      54.158  33.572  55.505  0.00  0.00     0.013 A 
ATOM     27  C   UNL d   1      54.843  33.883  55.167  0.00  0.00     0.058 A 
ATOM     28  C   UNL d   1      54.786  34.375  54.499  0.00  0.00     0.013 A 
ATOM     29 CL   UNL d   1      55.587  33.718  55.478  0.00  0.00    -0.082 Cl
ATOM     30  C   UNL d   1      54.044  34.547  54.180  0.00  0.00     0.020 A 
ENDBRANCH  23  24
ENDBRANCH   2  23
TORSDOF 7
ENDMDL
MODEL 4
REMARK VINA RESULT:      -7.8      2.592      5.085
REMARK  7 active torsions:
REMARK  status: ('A' for Active; 'I' for Inactive)
REMARK    1  A    between atoms: N_7  and  C_2 
REMARK    2  A    between atoms: N_9  and  C_3 
REMARK    3  A    between atoms: C_14  and  N_7 
REMARK    4  A    between atoms: C_8  and  C_12 
REMARK    5  A    between atoms: O_19  and  C_8 
REMARK    6  A    between atoms: C_17  and  N_9 
REMARK    7  A    between atoms: C_29  and  O_19 
ROOT
ATOM      1  N   UNL d   1      52.739  33.652  52.979  0.00  0.00    -0.038 NA
ATOM      2  C   UNL d   1      52.633  34.313  53.473  0.00  0.00     0.202 A 
ATOM      3  C   UNL d   1      53.329  33.094  53.149  0.00  0.00     0.753 A 
ATOM      4  N   UNL d   1      53.815  33.202  53.819  0.00  0.00    -0.038 NA
ATOM      5  C   UNL d   1      53.116  34.415  54.134  0.00  0.00     0.154 A 
ATOM      6  C   UNL d   1      53.707  33.858  54.306  0.00  0.00     0.202 A 
ATOM      7  N   UNL d   1      52.998  35.076  54.615  0.00  0.00    -0.236 NA
ATOM      8  N   UNL d   1      54.185  33.968  54.968  0.00  0.00    -0.222 NA
ATOM      9  C   UNL d   1      53.486  35.179  55.283  0.00  0.00     0.120 A 
ATOM     10  C   UNL d   1      54.076  34.631  55.461  0.00  0.00     0.121 A 
ENDROOT
BRANCH   3  11
ATOM     11  N   UNL d   1      53.433  32.446  52.663  0.00  0.00    -0.059 NA
BRANCH  11  12
ATOM     12  C   UNL d   1      53.326  31.684  52.960  0.00  0.00     0.100 A 
ATOM     13  C   UNL d   1      53.951  31.255  53.248  0.00  0.00     0.020 A 
ATOM     14  C   UNL d   1      53.843  30.489  53.546  0.00  0.00     0.007 A 
ATOM     15  C   UNL d   1      53.087  30.153  53.552  0.00  0.00     0.064 A 
ATOM     16  C   UNL d   1      52.442  30.583  53.260  0.00  0.00     0.007 A 
ATOM     17  C   UNL d   1      52.557  31.345  52.965  0.00  0.00     0.020 A 
BRANCH  15  18
ATOM     18  C   UNL d   1      52.982  29.398  53.846  0.00  0.00     0.300 C 
ATOM     19  O   UNL d   1      52.789  28.777  53.330  0.00  0.00    -0.259 OA
BRANCH  18  20
ATOM     20  O   UNL d   1      53.064  29.243  54.653  0.00  0.00    -0.271 OA
BRANCH  20  21
ATOM     21  C   UNL d   1      53.290  28.494  54.914  0.00  0.00     0.126 C 
ATOM     22  C   UNL d   1      53.384  28.354  55.717  0.00  0.00     0.029 C 
ENDBRANCH  20  21
ENDBRANCH  18  20
ENDBRANCH  15  18
ENDBRANCH  11  12
ENDBRANCH   3  11
BRANCH   2  23
ATOM     23  N   UNL d   1      52.043  34.868  53.301  0.00  0.00    -0.225 NA
BRANCH  23  24
ATOM     24  C   UNL d   1      51.384  34.647  52.859  0.00  0.00     0.083 A 
ATOM     25  C   UNL d   1      50.675  34.445  53.245  0.00  0.00     0.020 A 
ATOM     26  C   UNL d   1      50.019  34.225  52.799  0.00  0.00     0.013 A 
ATOM     27  C   UNL d   1      50.057  34.203  51.975  0.00  0.00     0.058 A 
ATOM     28  C   UNL d   1      50.766  34.405  51.590  0.00  0.00     0.013 A 
ATOM     29 CL   UNL d   1      49.406  33.984  51.521  0.00  0.00    -0.082 Cl
ATOM     30  C   UNL d   1      51.425  34.626  52.036  0.00  0.00     0.020 A 
ENDBRANCH  23  24
ENDBRANCH   2  23
TORSDOF 7
ENDMDL
