MODEL 1
REMARK VINA RESULT:      -2.5      0.000      0.000
REMARK  4 active torsions:
REMARK  status: ('A' for Active; 'I' for Inactive)
REMARK    1  A    between atoms: N_2  and  S_1 
REMARK    2  A    between atoms: C_4  and  C_3 
REMARK       I    between atoms: N_9  and  C_4 
REMARK    3  A    between atoms: C_15  and  N_9 
REMARK    4  A    between atoms: C_10  and  C_15 
ROOT
ATOM      1  N   UNL d   1      30.559  16.215 -24.061  0.00  0.00    -0.233 N 
ATOM      2  C   UNL d   1      31.745  16.999 -24.001  0.00  0.00     0.076 A 
ATOM      3  C   UNL d   1      30.928  16.948 -23.980  0.00  0.00     0.096 A 
ATOM      4  C   UNL d   1      31.012  15.535 -24.163  0.00  0.00     0.091 A 
ATOM      5  C   UNL d   1      32.202  16.318 -24.103  0.00  0.00     0.008 A 
ATOM      6  C   UNL d   1      31.833  15.589 -24.183  0.00  0.00     0.020 A 
ENDROOT
BRANCH   2   7
ATOM      7  C   UNL d   1      32.114  17.736 -23.919  0.00  0.00     0.281 C 
ATOM      8  O   UNL d   1      32.170  18.242 -24.565  0.00  0.00    -0.265 OA
ATOM      9  N   UNL d   1      32.425  17.964 -23.190  0.00  0.00    -0.206 NA
BRANCH   9  10
ATOM     10  C   UNL d   1      32.788  18.693 -23.116  0.00  0.00     0.102 C 
BRANCH  10  11
ATOM     11  C   UNL d   1      33.210  18.867 -22.429  0.00  0.00     0.021 C 
ATOM     12  C   UNL d   1      33.241  19.644 -22.149  0.00  0.00     0.002 C 
ENDBRANCH  10  11
ENDBRANCH   9  10
ENDBRANCH   2   7
BRANCH   1  13
ATOM     13  S   UNL d   1      29.737  16.163 -24.040  0.00  0.00     0.252 S 
ATOM     14  O   UNL d   1      29.767  16.016 -23.229  0.00  0.00    -0.204 OA
ATOM     15  O   UNL d   1      29.707  16.309 -24.849  0.00  0.00    -0.204 OA
ATOM     16  C   UNL d   1      28.914  16.111 -24.019  0.00  0.00     0.164 C 
ENDBRANCH   1  13
TORSDOF 4
ENDMDL
MODEL 2
REMARK VINA RESULT:      -2.5      1.197      1.735
REMARK  4 active torsions:
REMARK  status: ('A' for Active; 'I' for Inactive)
REMARK    1  A    between atoms: N_2  and  S_1 
REMARK    2  A    between atoms: C_4  and  C_3 
REMARK       I    between atoms: N_9  and  C_4 
REMARK    3  A    between atoms: C_15  and  N_9 
REMARK    4  A    between atoms: C_10  and  C_15 
ROOT
ATOM      1  N   UNL d   1      29.148  16.594 -24.285  0.00  0.00    -0.233 N 
ATOM      2  C   UNL d   1      30.448  17.138 -24.487  0.00  0.00     0.076 A 
ATOM      3  C   UNL d   1      29.961  16.572 -24.150  0.00  0.00     0.096 A 
ATOM      4  C   UNL d   1      28.826  17.186 -24.758  0.00  0.00     0.091 A 
ATOM      5  C   UNL d   1      30.127  17.733 -24.962  0.00  0.00     0.008 A 
ATOM      6  C   UNL d   1      29.317  17.754 -25.095  0.00  0.00     0.020 A 
ENDROOT
BRANCH   2   7
ATOM      7  C   UNL d   1      31.264  17.114 -24.351  0.00  0.00     0.281 C 
ATOM      8  O   UNL d   1      31.741  16.610 -24.792  0.00  0.00    -0.265 OA
ATOM      9  N   UNL d   1      31.602  17.596 -23.772  0.00  0.00    -0.206 NA
BRANCH   9  10
ATOM     10  C   UNL d   1      32.408  17.567 -23.643  0.00  0.00     0.102 C 
BRANCH  10  11
ATOM     11  C   UNL d   1      32.716  17.875 -22.942  0.00  0.00     0.021 C 
ATOM     12  C   UNL d   1      33.236  18.517 -22.967  0.00  0.00     0.002 C 
ENDBRANCH  10  11
ENDBRANCH   9  10
ENDBRANCH   2   7
BRANCH   1  13
ATOM     13  S   UNL d   1      28.659  16.025 -23.946  0.00  0.00     0.252 S 
ATOM     14  O   UNL d   1      28.516  16.527 -23.308  0.00  0.00    -0.204 OA
ATOM     15  O   UNL d   1      28.801  15.524 -24.582  0.00  0.00    -0.204 OA
ATOM     16  C   UNL d   1      28.169  15.454 -23.606  0.00  0.00     0.164 C 
ENDBRANCH   1  13
TORSDOF 4
ENDMDL
MODEL 3
REMARK VINA RESULT:      -2.4      1.321      3.562
REMARK  4 active torsions:
REMARK  status: ('A' for Active; 'I' for Inactive)
REMARK    1  A    between atoms: N_2  and  S_1 
REMARK    2  A    between atoms: C_4  and  C_3 
REMARK       I    between atoms: N_9  and  C_4 
REMARK    3  A    between atoms: C_15  and  N_9 
REMARK    4  A    between atoms: C_10  and  C_15 
ROOT
ATOM      1  N   UNL d   1      32.524  17.621 -23.769  0.00  0.00    -0.233 N 
ATOM      2  C   UNL d   1      31.527  16.629 -23.990  0.00  0.00     0.076 A 
ATOM      3  C   UNL d   1      31.853  17.213 -23.517  0.00  0.00     0.096 A 
ATOM      4  C   UNL d   1      32.866  17.441 -24.496  0.00  0.00     0.091 A 
ATOM      5  C   UNL d   1      31.869  16.447 -24.720  0.00  0.00     0.008 A 
ATOM      6  C   UNL d   1      32.537  16.854 -24.969  0.00  0.00     0.020 A 
ENDROOT
BRANCH   2   7
ATOM      7  C   UNL d   1      30.853  16.221 -23.736  0.00  0.00     0.281 C 
ATOM      8  O   UNL d   1      30.931  15.514 -23.322  0.00  0.00    -0.265 OA
ATOM      9  N   UNL d   1      30.102  16.522 -23.897  0.00  0.00    -0.206 NA
BRANCH   9  10
ATOM     10  C   UNL d   1      29.440  16.114 -23.643  0.00  0.00     0.102 C 
BRANCH  10  11
ATOM     11  C   UNL d   1      28.691  16.403 -23.830  0.00  0.00     0.021 C 
ATOM     12  C   UNL d   1      28.022  16.085 -23.462  0.00  0.00     0.002 C 
ENDBRANCH  10  11
ENDBRANCH   9  10
ENDBRANCH   2   7
BRANCH   1  13
ATOM     13  S   UNL d   1      32.851  18.208 -23.292  0.00  0.00     0.252 S 
ATOM     14  O   UNL d   1      32.461  18.784 -23.735  0.00  0.00    -0.204 OA
ATOM     15  O   UNL d   1      33.241  17.633 -22.852  0.00  0.00    -0.204 OA
ATOM     16  C   UNL d   1      33.179  18.796 -22.816  0.00  0.00     0.164 C 
ENDBRANCH   1  13
TORSDOF 4
ENDMDL
MODEL 4
REMARK VINA RESULT:      -2.1      1.693      2.902
REMARK  4 active torsions:
REMARK  status: ('A' for Active; 'I' for Inactive)
REMARK    1  A    between atoms: N_2  and  S_1 
REMARK    2  A    between atoms: C_4  and  C_3 
REMARK       I    between atoms: N_9  and  C_4 
REMARK    3  A    between atoms: C_15  and  N_9 
REMARK    4  A    between atoms: C_10  and  C_15 
ROOT
ATOM      1  N   UNL d   1      32.595  18.070 -24.147  0.00  0.00    -0.233 N 
ATOM      2  C   UNL d   1      32.958  19.087 -23.220  0.00  0.00     0.076 A 
ATOM      3  C   UNL d   1      32.637  18.349 -23.372  0.00  0.00     0.096 A 
ATOM      4  C   UNL d   1      32.876  18.534 -24.767  0.00  0.00     0.091 A 
ATOM      5  C   UNL d   1      33.241  19.554 -23.840  0.00  0.00     0.008 A 
ATOM      6  C   UNL d   1      33.198  19.275 -24.611  0.00  0.00     0.020 A 
ENDROOT
BRANCH   2   7
ATOM      7  C   UNL d   1      33.000  19.365 -22.441  0.00  0.00     0.281 C 
ATOM      8  O   UNL d   1      33.239  18.862 -21.836  0.00  0.00    -0.265 OA
ATOM      9  N   UNL d   1      32.802  20.147 -22.270  0.00  0.00    -0.206 NA
BRANCH   9  10
ATOM     10  C   UNL d   1      32.845  20.416 -21.499  0.00  0.00     0.102 C 
BRANCH  10  11
ATOM     11  C   UNL d   1      32.792  21.225 -21.349  0.00  0.00     0.021 C 
ATOM     12  C   UNL d   1      32.343  21.499 -20.711  0.00  0.00     0.002 C 
ENDBRANCH  10  11
ENDBRANCH   9  10
ENDBRANCH   2   7
BRANCH   1  13
ATOM     13  S   UNL d   1      32.271  17.328 -24.301  0.00  0.00     0.252 S 
ATOM     14  O   UNL d   1      33.022  17.040 -24.487  0.00  0.00    -0.204 OA
ATOM     15  O   UNL d   1      31.524  17.616 -24.116  0.00  0.00    -0.204 OA
ATOM     16  C   UNL d   1      31.948  16.585 -24.455  0.00  0.00     0.164 C 
ENDBRANCH   1  13
TORSDOF 4
ENDMDL
MODEL 5
REMARK VINA RESULT:      -1.9      1.823      3.886
REMARK  4 active torsions:
REMARK  status: ('A' for Active; 'I' for Inactive)
REMARK    1  A    between atoms: N_2  and  S_1 
REMARK    2  A    between atoms: C_4  and  C_3 
REMARK       I    between atoms: N_9  and  C_4 
REMARK    3  A    between atoms: C_15  and  N_9 
REMARK    4  A    between atoms: C_10  and  C_15 
ROOT
ATOM      1  N   UNL d   1      32.925  19.118 -23.260  0.00  0.00    -0.233 N 
ATOM      2  C   UNL d   1      32.355  18.006 -23.942  0.00  0.00     0.076 A 
ATOM      3  C   UNL d   1      32.481  18.423 -23.248  0.00  0.00     0.096 A 
ATOM      4  C   UNL d   1      33.241  19.392 -23.970  0.00  0.00     0.091 A 
ATOM      5  C   UNL d   1      32.671  18.279 -24.655  0.00  0.00     0.008 A 
ATOM      6  C   UNL d   1      33.113  18.971 -24.665  0.00  0.00     0.020 A 
ENDROOT
BRANCH   2   7
ATOM      7  C   UNL d   1      31.909  17.308 -23.927  0.00  0.00     0.281 C 
ATOM      8  O   UNL d   1      32.277  16.587 -23.784  0.00  0.00    -0.265 OA
ATOM      9  N   UNL d   1      31.095  17.335 -24.057  0.00  0.00    -0.206 NA
BRANCH   9  10
ATOM     10  C   UNL d   1      30.661  16.643 -24.042  0.00  0.00     0.102 C 
BRANCH  10  11
ATOM     11  C   UNL d   1      29.850  16.670 -24.195  0.00  0.00     0.021 C 
ATOM     12  C   UNL d   1      29.385  15.998 -24.076  0.00  0.00     0.002 C 
ENDBRANCH  10  11
ENDBRANCH   9  10
ENDBRANCH   2   7
BRANCH   1  13
ATOM     13  S   UNL d   1      33.051  19.538 -22.563  0.00  0.00     0.252 S 
ATOM     14  O   UNL d   1      32.876  20.242 -22.955  0.00  0.00    -0.204 OA
ATOM     15  O   UNL d   1      33.226  18.836 -22.172  0.00  0.00    -0.204 OA
ATOM     16  C   UNL d   1      33.178  19.958 -21.865  0.00  0.00     0.164 C 
ENDBRANCH   1  13
TORSDOF 4
ENDMDL
MODEL 6
REMARK VINA RESULT:      -1.4      4.915      7.077
REMARK  4 active torsions:
REMARK  status: ('A' for Active; 'I' for Inactive)
REMARK    1  A    between atoms: N_2  and  S_1 
REMARK    2  A    between atoms: C_4  and  C_3 
REMARK       I    between atoms: N_9  and  C_4 
REMARK    3  A    between atoms: C_15  and  N_9 
REMARK    4  A    between atoms: C_10  and  C_15 
ROOT
ATOM      1  N   UNL d   1      32.654  23.025 -19.615  0.00  0.00    -0.233 N 
ATOM      2  C   UNL d   1      32.665  22.576 -20.966  0.00  0.00     0.076 A 
ATOM      3  C   UNL d   1      32.922  22.500 -20.192  0.00  0.00     0.096 A 
ATOM      4  C   UNL d   1      32.128  23.625 -19.818  0.00  0.00     0.091 A 
ATOM      5  C   UNL d   1      32.136  23.177 -21.171  0.00  0.00     0.008 A 
ATOM      6  C   UNL d   1      31.871  23.699 -20.596  0.00  0.00     0.020 A 
ENDROOT
BRANCH   2   7
ATOM      7  C   UNL d   1      32.934  22.048 -21.543  0.00  0.00     0.281 C 
ATOM      8  O   UNL d   1      33.193  22.330 -22.272  0.00  0.00    -0.265 OA
ATOM      9  N   UNL d   1      32.945  21.237 -21.391  0.00  0.00    -0.206 NA
BRANCH   9  10
ATOM     10  C   UNL d   1      33.213  20.721 -21.965  0.00  0.00     0.102 C 
BRANCH  10  11
ATOM     11  C   UNL d   1      33.168  19.908 -21.831  0.00  0.00     0.021 C 
ATOM     12  C   UNL d   1      33.001  19.395 -22.457  0.00  0.00     0.002 C 
ENDBRANCH  10  11
ENDBRANCH   9  10
ENDBRANCH   2   7
BRANCH   1  13
ATOM     13  S   UNL d   1      32.914  22.949 -18.837  0.00  0.00     0.252 S 
ATOM     14  O   UNL d   1      32.585  22.193 -18.802  0.00  0.00    -0.204 OA
ATOM     15  O   UNL d   1      33.241  23.702 -18.872  0.00  0.00    -0.204 OA
ATOM     16  C   UNL d   1      33.173  22.873 -18.058  0.00  0.00     0.164 C 
ENDBRANCH   1  13
TORSDOF 4
ENDMDL
MODEL 7
REMARK VINA RESULT:      -1.3      1.196      1.640
REMARK  4 active torsions:
REMARK  status: ('A' for Active; 'I' for Inactive)
REMARK    1  A    between atoms: N_2  and  S_1 
REMARK    2  A    between atoms: C_4  and  C_3 
REMARK       I    between atoms: N_9  and  C_4 
REMARK    3  A    between atoms: C_15  and  N_9 
REMARK    4  A    between atoms: C_10  and  C_15 
ROOT
ATOM      1  N   UNL d   1      31.918  16.879 -23.980  0.00  0.00    -0.233 N 
ATOM      2  C   UNL d   1      32.715  17.940 -23.467  0.00  0.00     0.076 A 
ATOM      3  C   UNL d   1      32.073  17.685 -23.906  0.00  0.00     0.096 A 
ATOM      4  C   UNL d   1      32.409  16.330 -23.612  0.00  0.00     0.091 A 
ATOM      5  C   UNL d   1      33.210  17.392 -23.096  0.00  0.00     0.008 A 
ATOM      6  C   UNL d   1      33.054  16.589 -23.171  0.00  0.00     0.020 A 
ENDROOT
BRANCH   2   7
ATOM      7  C   UNL d   1      32.868  18.750 -23.393  0.00  0.00     0.281 C 
ATOM      8  O   UNL d   1      32.969  19.214 -24.065  0.00  0.00    -0.265 OA
ATOM      9  N   UNL d   1      32.921  19.096 -22.646  0.00  0.00    -0.206 NA
BRANCH   9  10
ATOM     10  C   UNL d   1      33.073  19.896 -22.580  0.00  0.00     0.102 C 
BRANCH  10  11
ATOM     11  C   UNL d   1      32.947  20.274 -21.857  0.00  0.00     0.021 C 
ATOM     12  C   UNL d   1      33.238  19.939 -21.160  0.00  0.00     0.002 C 
ENDBRANCH  10  11
ENDBRANCH   9  10
ENDBRANCH   2   7
BRANCH   1  13
ATOM     13  S   UNL d   1      31.272  16.622 -24.422  0.00  0.00     0.252 S 
ATOM     14  O   UNL d   1      31.776  16.423 -25.044  0.00  0.00    -0.204 OA
ATOM     15  O   UNL d   1      30.769  16.821 -23.803  0.00  0.00    -0.204 OA
ATOM     16  C   UNL d   1      30.625  16.366 -24.865  0.00  0.00     0.164 C 
ENDBRANCH   1  13
TORSDOF 4
ENDMDL
MODEL 8
REMARK VINA RESULT:      -0.8      5.559      6.612
REMARK  4 active torsions:
REMARK  status: ('A' for Active; 'I' for Inactive)
REMARK    1  A    between atoms: N_2  and  S_1 
REMARK    2  A    between atoms: C_4  and  C_3 
REMARK       I    between atoms: N_9  and  C_4 
REMARK    3  A    between atoms: C_15  and  N_9 
REMARK    4  A    between atoms: C_10  and  C_15 
ROOT
ATOM      1  N   UNL d   1      32.564  22.438 -20.428  0.00  0.00    -0.233 N 
ATOM      2  C   UNL d   1      32.834  21.952 -21.738  0.00  0.00     0.076 A 
ATOM      3  C   UNL d   1      32.750  22.579 -21.218  0.00  0.00     0.096 A 
ATOM      4  C   UNL d   1      32.462  21.666 -20.161  0.00  0.00     0.091 A 
ATOM      5  C   UNL d   1      32.732  21.176 -21.472  0.00  0.00     0.008 A 
ATOM      6  C   UNL d   1      32.547  21.037 -20.685  0.00  0.00     0.020 A 
ENDROOT
BRANCH   2   7
ATOM      7  C   UNL d   1      33.020  22.095 -22.531  0.00  0.00     0.281 C 
ATOM      8  O   UNL d   1      33.240  21.473 -23.023  0.00  0.00    -0.265 OA
ATOM      9  N   UNL d   1      32.987  22.863 -22.832  0.00  0.00    -0.206 NA
BRANCH   9  10
ATOM     10  C   UNL d   1      33.173  22.998 -23.616  0.00  0.00     0.102 C 
BRANCH  10  11
ATOM     11  C   UNL d   1      32.930  23.701 -23.974  0.00  0.00     0.021 C 
ATOM     12  C   UNL d   1      32.696  23.701 -24.767  0.00  0.00     0.002 C 
ENDBRANCH  10  11
ENDBRANCH   9  10
ENDBRANCH   2   7
BRANCH   1  13
ATOM     13  S   UNL d   1      32.480  23.070 -19.905  0.00  0.00     0.252 S 
ATOM     14  O   UNL d   1      31.868  23.372 -20.369  0.00  0.00    -0.204 OA
ATOM     15  O   UNL d   1      33.090  22.769 -19.444  0.00  0.00    -0.204 OA
ATOM     16  C   UNL d   1      32.396  23.702 -19.382  0.00  0.00     0.164 C 
ENDBRANCH   1  13
TORSDOF 4
ENDMDL
MODEL 9
REMARK VINA RESULT:      -0.7      1.676      4.051
REMARK  4 active torsions:
REMARK  status: ('A' for Active; 'I' for Inactive)
REMARK    1  A    between atoms: N_2  and  S_1 
REMARK    2  A    between atoms: C_4  and  C_3 
REMARK       I    between atoms: N_9  and  C_4 
REMARK    3  A    between atoms: C_15  and  N_9 
REMARK    4  A    between atoms: C_10  and  C_15 
ROOT
ATOM      1  N   UNL d   1      30.734  17.205 -24.386  0.00  0.00    -0.233 N 
ATOM      2  C   UNL d   1      29.431  16.683 -24.622  0.00  0.00     0.076 A 
ATOM      3  C   UNL d   1      30.183  16.596 -24.310  0.00  0.00     0.096 A 
ATOM      4  C   UNL d   1      30.527  17.899 -24.777  0.00  0.00     0.091 A 
ATOM      5  C   UNL d   1      29.221  17.379 -25.015  0.00  0.00     0.008 A 
ATOM      6  C   UNL d   1      29.771  17.984 -25.090  0.00  0.00     0.020 A 
ENDROOT
BRANCH   2   7
ATOM      7  C   UNL d   1      28.879  16.070 -24.544  0.00  0.00     0.281 C 
ATOM      8  O   UNL d   1      28.862  15.458 -25.094  0.00  0.00    -0.265 OA
ATOM      9  N   UNL d   1      28.345  16.072 -23.915  0.00  0.00    -0.206 NA
BRANCH   9  10
ATOM     10  C   UNL d   1      27.803  15.464 -23.844  0.00  0.00     0.102 C 
BRANCH  10  11
ATOM     11  C   UNL d   1      27.266  15.473 -23.217  0.00  0.00     0.021 C 
ATOM     12  C   UNL d   1      26.454  15.453 -23.369  0.00  0.00     0.002 C 
ENDBRANCH  10  11
ENDBRANCH   9  10
ENDBRANCH   2   7
BRANCH   1  13
ATOM     13  S   UNL d   1      31.490  17.118 -24.072  0.00  0.00     0.252 S 
ATOM     14  O   UNL d   1      31.323  17.697 -23.509  0.00  0.00    -0.204 OA
ATOM     15  O   UNL d   1      31.657  16.540 -24.632  0.00  0.00    -0.204 OA
ATOM     16  C   UNL d   1      32.248  17.030 -23.757  0.00  0.00     0.164 C 
ENDBRANCH   1  13
TORSDOF 4
ENDMDL
