MODEL 1
REMARK VINA RESULT:      -2.6      0.000      0.000
REMARK  7 active torsions:
REMARK  status: ('A' for Active; 'I' for Inactive)
REMARK    1  A    between atoms: C_7  and  C_1 
REMARK    2  A    between atoms: N_5  and  C_2 
REMARK       I    between atoms: C_8  and  N_5 
REMARK    3  A    between atoms: N_9  and  C_7 
REMARK    4  A    between atoms: C_12  and  C_7 
REMARK    5  A    between atoms: C_10  and  C_8 
REMARK    6  A    between atoms: C_26  and  N_11 
REMARK    7  A    between atoms: C_30  and  C_26 
ROOT
ATOM      1  C   UNL d   1      53.237  33.640  53.840  0.00  0.00     0.068 C 
ENDROOT
BRANCH   1   2
ATOM      2  C   UNL d   1      53.879  33.161  53.537  0.00  0.00     0.041 A 
ATOM      3  C   UNL d   1      53.977  32.363  53.434  0.00  0.00     0.115 A 
ATOM      4  S   UNL d   1      54.731  32.251  53.114  0.00  0.00    -0.068 SA
ATOM      5  C   UNL d   1      55.118  32.963  53.010  0.00  0.00     0.031 A 
ATOM      6  C   UNL d   1      54.579  33.564  53.279  0.00  0.00     0.009 A 
ATOM      7  C   UNL d   1      55.873  33.073  52.707  0.00  0.00     0.007 C 
ATOM      8  C   UNL d   1      54.726  34.372  53.282  0.00  0.00     0.001 C 
BRANCH   3   9
ATOM      9  N   UNL d   1      53.441  31.771  53.610  0.00  0.00    -0.200 NA
ATOM     10  C   UNL d   1      53.649  30.985  53.458  0.00  0.00     0.302 C 
ATOM     11  O   UNL d   1      54.389  30.810  53.135  0.00  0.00    -0.263 OA
BRANCH  10  12
ATOM     12  C   UNL d   1      53.129  30.368  53.625  0.00  0.00     0.158 A 
ATOM     13  O   UNL d   1      52.369  30.208  53.307  0.00  0.00    -0.300 OA
ATOM     14  C   UNL d   1      52.098  29.518  53.674  0.00  0.00     0.123 A 
ATOM     15  C   UNL d   1      52.679  29.274  54.194  0.00  0.00     0.029 A 
ATOM     16  C   UNL d   1      53.323  29.785  54.179  0.00  0.00     0.032 A 
ENDBRANCH  10  12
ENDBRANCH   3   9
ENDBRANCH   1   2
BRANCH   1  17
ATOM     17  N   UNL d   1      52.537  33.723  53.354  0.00  0.00    -0.301 N 
ATOM     18  C   UNL d   1      51.845  33.359  53.610  0.00  0.00     0.100 A 
ATOM     19  C   UNL d   1      51.172  33.439  53.144  0.00  0.00     0.100 A 
ATOM     20  N   UNL d   1      51.191  33.879  52.424  0.00  0.00    -0.297 N 
ATOM     21  C   UNL d   1      51.883  34.225  52.196  0.00  0.00     0.100 A 
ATOM     22  C   UNL d   1      52.556  34.163  52.634  0.00  0.00     0.100 A 
BRANCH  20  23
ATOM     23  C   UNL d   1      50.491  33.950  51.958  0.00  0.00     0.126 C 
BRANCH  23  24
ATOM     24  C   UNL d   1      49.879  34.486  52.183  0.00  0.00     0.253 C 
ATOM     25  O   UNL d   1      49.194  34.573  51.704  0.00  0.00    -0.281 OA
ENDBRANCH  23  24
ENDBRANCH  20  23
ENDBRANCH   1  17
BRANCH   1  26
ATOM     26  C   UNL d   1      53.292  34.015  54.588  0.00  0.00     0.035 A 
ATOM     27  C   UNL d   1      53.192  34.843  54.630  0.00  0.00     0.100 A 
ATOM     28  N   UNL d   1      53.247  35.220  55.382  0.00  0.00    -0.242 NA
ATOM     29  C   UNL d   1      53.398  34.746  56.048  0.00  0.00     0.099 A 
ATOM     30  C   UNL d   1      53.493  33.947  56.002  0.00  0.00     0.021 A 
ATOM     31  C   UNL d   1      53.439  33.570  55.250  0.00  0.00     0.005 A 
ENDBRANCH   1  26
TORSDOF 7
ENDMDL
MODEL 2
REMARK VINA RESULT:      -2.4      1.340      4.048
REMARK  7 active torsions:
REMARK  status: ('A' for Active; 'I' for Inactive)
REMARK    1  A    between atoms: C_7  and  C_1 
REMARK    2  A    between atoms: N_5  and  C_2 
REMARK       I    between atoms: C_8  and  N_5 
REMARK    3  A    between atoms: N_9  and  C_7 
REMARK    4  A    between atoms: C_12  and  C_7 
REMARK    5  A    between atoms: C_10  and  C_8 
REMARK    6  A    between atoms: C_26  and  N_11 
REMARK    7  A    between atoms: C_30  and  C_26 
ROOT
ATOM      1  C   UNL d   1      53.832  32.897  53.866  0.00  0.00     0.068 C 
ENDROOT
BRANCH   1   2
ATOM      2  C   UNL d   1      53.386  33.510  54.264  0.00  0.00     0.041 A 
ATOM      3  C   UNL d   1      52.696  33.899  54.088  0.00  0.00     0.115 A 
ATOM      4  S   UNL d   1      52.558  34.435  54.702  0.00  0.00    -0.068 SA
ATOM      5  C   UNL d   1      53.146  34.397  55.268  0.00  0.00     0.031 A 
ATOM      6  C   UNL d   1      53.692  33.801  54.999  0.00  0.00     0.009 A 
ATOM      7  C   UNL d   1      53.197  34.842  55.955  0.00  0.00     0.007 C 
ATOM      8  C   UNL d   1      54.375  33.567  55.389  0.00  0.00     0.001 C 
BRANCH   3   9
ATOM      9  N   UNL d   1      52.220  33.792  53.432  0.00  0.00    -0.200 NA
ATOM     10  C   UNL d   1      51.674  34.381  53.234  0.00  0.00     0.302 C 
ATOM     11  O   UNL d   1      51.618  35.063  53.696  0.00  0.00    -0.263 OA
BRANCH  10  12
ATOM     12  C   UNL d   1      51.181  34.300  52.579  0.00  0.00     0.158 A 
ATOM     13  O   UNL d   1      51.374  34.281  51.762  0.00  0.00    -0.300 OA
ATOM     14  C   UNL d   1      50.663  34.188  51.351  0.00  0.00     0.123 A 
ATOM     15  C   UNL d   1      50.064  34.154  51.906  0.00  0.00     0.029 A 
ATOM     16  C   UNL d   1      50.363  34.220  52.669  0.00  0.00     0.032 A 
ENDBRANCH  10  12
ENDBRANCH   3   9
ENDBRANCH   1   2
BRANCH   1  17
ATOM     17  N   UNL d   1      53.557  32.090  53.942  0.00  0.00    -0.301 N 
ATOM     18  C   UNL d   1      53.682  31.707  54.659  0.00  0.00     0.100 A 
ATOM     19  C   UNL d   1      53.419  30.931  54.733  0.00  0.00     0.100 A 
ATOM     20  N   UNL d   1      53.033  30.540  54.093  0.00  0.00    -0.297 N 
ATOM     21  C   UNL d   1      52.923  30.938  53.401  0.00  0.00     0.100 A 
ATOM     22  C   UNL d   1      53.171  31.699  53.302  0.00  0.00     0.100 A 
BRANCH  20  23
ATOM     23  C   UNL d   1      52.769  29.744  54.187  0.00  0.00     0.126 C 
BRANCH  23  24
ATOM     24  C   UNL d   1      53.324  29.121  54.318  0.00  0.00     0.253 C 
ATOM     25  O   UNL d   1      53.093  28.427  54.731  0.00  0.00    -0.281 OA
ENDBRANCH  23  24
ENDBRANCH  20  23
ENDBRANCH   1  17
BRANCH   1  26
ATOM     26  C   UNL d   1      54.515  33.082  53.415  0.00  0.00     0.035 A 
ATOM     27  C   UNL d   1      54.417  33.381  52.641  0.00  0.00     0.100 A 
ATOM     28  N   UNL d   1      55.103  33.566  52.189  0.00  0.00    -0.242 NA
ATOM     29  C   UNL d   1      55.848  33.442  52.537  0.00  0.00     0.099 A 
ATOM     30  C   UNL d   1      55.937  33.153  53.285  0.00  0.00     0.021 A 
ATOM     31  C   UNL d   1      55.251  32.967  53.737  0.00  0.00     0.005 A 
ENDBRANCH   1  26
TORSDOF 7
ENDMDL
