MODEL 1
REMARK VINA RESULT:      66.3      0.000      0.000
REMARK  8 active torsions:
REMARK  status: ('A' for Active; 'I' for Inactive)
REMARK    1  A    between atoms: S_13  and  C_4 
REMARK    2  A    between atoms: C_5  and  N_10 
REMARK    3  A    between atoms: C_20  and  N_6 
REMARK       I    between atoms: N_10  and  C_14 
REMARK    4  A    between atoms: C_19  and  S_13 
REMARK    5  A    between atoms: C_14  and  C_19 
REMARK    6  A    between atoms: C_22  and  C_20 
REMARK    7  A    between atoms: C_28  and  C_22 
REMARK    8  A    between atoms: N_25  and  C_28 
ROOT
ATOM      1  N   UNL d   1     -51.356  26.561  33.451  0.00  0.00    -0.185 NA
ATOM      2  C   UNL d   1     -52.038  26.100  33.404  0.00  0.00     0.354 A 
ATOM      3  C   UNL d   1     -50.552  25.379  33.398  0.00  0.00     0.040 A 
ATOM      4  C   UNL d   1     -50.612  26.201  33.448  0.00  0.00     0.117 A 
ATOM      5  N   UNL d   1     -51.977  25.278  33.354  0.00  0.00    -0.258 N 
ATOM      6  C   UNL d   1     -51.235  24.918  33.351  0.00  0.00     0.070 A 
ATOM      7  O   UNL d   1     -52.787  26.455  33.407  0.00  0.00    -0.244 OA
ATOM      8  C   UNL d   1     -49.907  24.871  33.383  0.00  0.00     0.004 A 
ATOM      9  C   UNL d   1     -51.006  24.127  33.307  0.00  0.00     0.018 A 
ATOM     10  C   UNL d   1     -50.194  24.095  33.326  0.00  0.00     0.002 A 
ENDROOT
BRANCH   4  11
ATOM     11  S   UNL d   1     -49.930  26.663  33.496  0.00  0.00    -0.062 SA
BRANCH  11  12
ATOM     12  C   UNL d   1     -49.982  27.446  33.715  0.00  0.00     0.099 C 
BRANCH  12  13
ATOM     13  C   UNL d   1     -49.405  27.778  34.202  0.00  0.00     0.288 C 
ATOM     14  N   UNL d   1     -49.307  28.593  34.229  0.00  0.00    -0.182 NA
ATOM     15  O   UNL d   1     -48.926  27.290  34.665  0.00  0.00    -0.265 OA
BRANCH  14  16
ATOM     16  C   UNL d   1     -48.730  28.925  34.716  0.00  0.00     0.197 A 
ATOM     17  N   UNL d   1     -47.993  29.130  34.404  0.00  0.00    -0.221 NA
ATOM     18  C   UNL d   1     -47.538  29.446  35.023  0.00  0.00     0.090 A 
ATOM     19  C   UNL d   1     -46.769  29.742  35.044  0.00  0.00     0.020 A 
ATOM     20  C   UNL d   1     -47.989  29.435  35.702  0.00  0.00     0.050 A 
ATOM     21  C   UNL d   1     -46.459  30.023  35.750  0.00  0.00     0.002 A 
ATOM     22  C   UNL d   1     -46.912  30.012  36.433  0.00  0.00     0.001 A 
ATOM     23  C   UNL d   1     -47.678  29.718  36.414  0.00  0.00     0.008 A 
ATOM     24  C   UNL d   1     -46.580  30.303  37.145  0.00  0.00     0.000 C 
ATOM     25  S   UNL d   1     -48.730  29.112  35.520  0.00  0.00    -0.047 SA
ENDBRANCH  14  16
ENDBRANCH  12  13
ENDBRANCH  11  12
ENDBRANCH   4  11
BRANCH   5  26
ATOM     26  C   UNL d   1     -52.659  24.817  33.306  0.00  0.00     0.086 C 
BRANCH  26  27
ATOM     27  C   UNL d   1     -52.956  24.449  33.974  0.00  0.00     0.038 C 
BRANCH  27  28
ATOM     28  C   UNL d   1     -53.572  23.903  33.910  0.00  0.00     0.082 C 
BRANCH  28  29
ATOM     29  N   UNL d   1     -53.818  23.481  34.570  0.00  0.00    -0.300 N 
ATOM     30  C   UNL d   1     -54.622  23.347  34.699  0.00  0.00     0.100 C 
ATOM     31  C   UNL d   1     -53.261  23.190  35.104  0.00  0.00     0.100 C 
ENDBRANCH  28  29
ENDBRANCH  27  28
ENDBRANCH  26  27
ENDBRANCH   5  26
TORSDOF 8
ENDMDL
