MODEL 1
REMARK VINA RESULT:      37.6      0.000      0.000
REMARK  4 active torsions:
REMARK  status: ('A' for Active; 'I' for Inactive)
REMARK    1  A    between atoms: N_6  and  C_2 
REMARK    2  A    between atoms: N_8  and  C_3 
REMARK    3  A    between atoms: C_10  and  N_8 
REMARK    4  A    between atoms: C_14  and  C_10 
ROOT
ATOM      1  N   UNL d   1      14.076  13.652  -2.508  0.00  0.00    -0.041 NA
ATOM      2  C   UNL d   1      13.888  12.867  -2.719  0.00  0.00     0.737 A 
ATOM      3  C   UNL d   1      14.437  13.810  -1.778  0.00  0.00     0.182 A 
ATOM      4  N   UNL d   1      14.065  12.243  -2.195  0.00  0.00    -0.060 NA
ATOM      5  C   UNL d   1      14.612  13.187  -1.259  0.00  0.00     0.055 A 
ATOM      6  C   UNL d   1      14.429  12.410  -1.463  0.00  0.00     0.103 A 
ATOM      7  C   UNL d   1      14.974  13.345  -0.528  0.00  0.00     0.005 A 
ATOM      8  C   UNL d   1      14.605  11.780  -0.939  0.00  0.00     0.020 A 
ATOM      9  C   UNL d   1      15.148  12.734  -0.014  0.00  0.00     0.000 A 
ATOM     10  C   UNL d   1      14.962  11.946  -0.221  0.00  0.00     0.002 A 
ENDROOT
BRANCH   3  11
ATOM     11  N   UNL d   1      14.633  14.621  -1.557  0.00  0.00    -0.225 NA
BRANCH  11  12
ATOM     12  C   UNL d   1      14.600  15.205  -2.041  0.00  0.00     0.101 C 
BRANCH  12  13
ATOM     13  C   UNL d   1      14.843  15.895  -1.820  0.00  0.00     0.019 A 
ATOM     14  C   UNL d   1      15.052  16.003  -1.107  0.00  0.00     0.002 A 
ATOM     15  C   UNL d   1      15.292  16.687  -0.890  0.00  0.00     0.000 A 
ATOM     16  C   UNL d   1      15.321  17.257  -1.388  0.00  0.00     0.000 A 
ATOM     17  C   UNL d   1      15.104  17.134  -2.112  0.00  0.00     0.000 A 
ATOM     18  C   UNL d   1      14.867  16.451  -2.321  0.00  0.00     0.002 A 
ENDBRANCH  12  13
ENDBRANCH  11  12
ENDBRANCH   3  11
BRANCH   2  19
ATOM     19  N   UNL d   1      13.514  12.704  -3.473  0.00  0.00    -0.133 N 
ATOM     20  C   UNL d   1      13.521  13.302  -4.088  0.00  0.00     0.125 A 
ATOM     21  C   UNL d   1      13.152  13.146  -4.837  0.00  0.00     0.142 A 
ATOM     22  O   UNL d   1      12.776  12.397  -4.977  0.00  0.00    -0.300 OA
ATOM     23  C   UNL d   1      12.770  11.799  -4.362  0.00  0.00     0.142 A 
ATOM     24  C   UNL d   1      13.139  11.953  -3.609  0.00  0.00     0.125 A 
ENDBRANCH   2  19
TORSDOF 4
ENDMDL
