MODEL 1
REMARK VINA RESULT:      78.4      0.000      0.000
REMARK  5 active torsions:
REMARK  status: ('A' for Active; 'I' for Inactive)
REMARK    1  A    between atoms: C_5  and  C_1 
REMARK    2  A    between atoms: N_7  and  C_5 
REMARK    3  A    between atoms: C_10  and  C_5 
REMARK    4  A    between atoms: C_16  and  C_19 
REMARK    5  A    between atoms: C_20  and  C_16 
ROOT
ATOM      1  C   UNL d   1      13.714  13.400  -4.504  0.00  0.00     0.085 C 
ENDROOT
BRANCH   1   2
ATOM      2  C   UNL d   1      13.744  14.230  -4.667  0.00  0.00     0.059 A 
ATOM      3  C   UNL d   1      13.269  14.561  -5.273  0.00  0.00     0.214 A 
ATOM      4  C   UNL d   1      13.310  15.377  -5.420  0.00  0.00     0.121 A 
ATOM      5  O   UNL d   1      12.769  14.092  -5.717  0.00  0.00    -0.285 OA
ATOM      6  N   UNL d   1      12.849  15.708  -6.011  0.00  0.00    -0.241 NA
ATOM      7  C   UNL d   1      13.820  15.855  -4.967  0.00  0.00     0.032 A 
ATOM      8  C   UNL d   1      12.900  16.532  -6.149  0.00  0.00     0.099 A 
ATOM      9  C   UNL d   1      13.391  16.992  -5.713  0.00  0.00     0.021 A 
ATOM     10  C   UNL d   1      13.863  16.659  -5.110  0.00  0.00     0.004 A 
ATOM     11  C   UNL d   1      14.283  15.512  -4.372  0.00  0.00     0.059 A 
ATOM     12  C   UNL d   1      14.234  14.690  -4.232  0.00  0.00     0.016 A 
ATOM     13 CL   UNL d   1      14.786  15.983  -3.926  0.00  0.00    -0.082 Cl
ENDBRANCH   1   2
BRANCH   1  14
ATOM     14  N   UNL d   1      13.721  13.131  -3.724  0.00  0.00    -0.302 N 
ATOM     15  C   UNL d   1      14.276  13.422  -3.178  0.00  0.00     0.080 A 
ATOM     16  C   UNL d   1      14.283  13.154  -2.398  0.00  0.00     0.019 A 
ATOM     17  C   UNL d   1      13.736  12.592  -2.155  0.00  0.00     0.003 A 
ATOM     18  C   UNL d   1      13.181  12.298  -2.693  0.00  0.00     0.019 A 
ATOM     19  C   UNL d   1      13.174  12.563  -3.466  0.00  0.00     0.080 A 
BRANCH  17  20
ATOM     20  C   UNL d   1      13.742  12.325  -1.383  0.00  0.00     0.000 C 
BRANCH  20  21
ATOM     21  C   UNL d   1      14.414  12.392  -0.933  0.00  0.00     0.000 A 
ATOM     22  C   UNL d   1      14.536  13.057  -0.468  0.00  0.00     0.000 A 
ATOM     23  C   UNL d   1      15.212  13.127  -0.014  0.00  0.00     0.000 A 
ATOM     24  C   UNL d   1      15.775  12.524  -0.025  0.00  0.00     0.000 A 
ATOM     25  C   UNL d   1      15.658  11.858  -0.488  0.00  0.00     0.000 A 
ATOM     26  C   UNL d   1      14.969  11.788  -0.950  0.00  0.00     0.000 A 
ENDBRANCH  20  21
ENDBRANCH  17  20
ENDBRANCH   1  14
BRANCH   1  27
ATOM     27  C   UNL d   1      13.678  12.847  -5.143  0.00  0.00     0.098 A 
ATOM     28  N   UNL d   1      14.319  12.797  -5.673  0.00  0.00    -0.243 NA
ATOM     29  C   UNL d   1      14.286  12.262  -6.293  0.00  0.00     0.099 A 
ATOM     30  C   UNL d   1      13.623  11.785  -6.383  0.00  0.00     0.021 A 
ATOM     31  C   UNL d   1      12.983  11.831  -5.860  0.00  0.00     0.003 A 
ATOM     32  C   UNL d   1      13.016  12.364  -5.241  0.00  0.00     0.021 A 
ENDBRANCH   1  27
TORSDOF 5
ENDMDL
