MODEL 1
REMARK VINA RESULT:      29.4      0.000      0.000
REMARK  4 active torsions:
REMARK  status: ('A' for Active; 'I' for Inactive)
REMARK    1  A    between atoms: C_9  and  N_1 
REMARK    2  A    between atoms: C_2  and  N_5 
REMARK    3  A    between atoms: N_5  and  O_12 
REMARK    4  A    between atoms: O_12  and  C_16 
ROOT
ATOM      1  N   UNL d   1      13.276  13.324  -2.969  0.00  0.00    -0.126 NA
ENDROOT
BRANCH   1   2
ATOM      2  C   UNL d   1      13.203  12.992  -3.720  0.00  0.00     0.108 A 
ATOM      3  C   UNL d   1      13.328  13.470  -4.394  0.00  0.00     0.023 A 
ATOM      4  C   UNL d   1      13.257  13.146  -5.127  0.00  0.00     0.044 A 
ATOM      5  C   UNL d   1      13.534  14.313  -4.307  0.00  0.00     0.002 C 
ATOM      6  C   UNL d   1      13.058  12.334  -5.209  0.00  0.00     0.196 A 
ATOM      7  C   UNL d   1      12.941  11.889  -4.540  0.00  0.00     0.044 A 
ATOM      8  O   UNL d   1      12.985  12.001  -5.960  0.00  0.00    -0.287 OA
ATOM      9  C   UNL d   1      13.014  12.221  -3.788  0.00  0.00     0.023 A 
ATOM     10  C   UNL d   1      12.899  11.780  -3.173  0.00  0.00     0.002 C 
ENDBRANCH   1   2
BRANCH   1  11
ATOM     11  O   UNL d   1      13.726  12.969  -2.394  0.00  0.00    -0.211 OA
BRANCH  11  12
ATOM     12  C   UNL d   1      14.174  13.407  -1.883  0.00  0.00     0.125 A 
ATOM     13  C   UNL d   1      14.273  14.228  -2.006  0.00  0.00     0.029 A 
ATOM     14  C   UNL d   1      14.729  14.675  -1.485  0.00  0.00     0.026 A 
ATOM     15  C   UNL d   1      15.093  14.307  -0.832  0.00  0.00     0.127 A 
ATOM     16  C   UNL d   1      14.996  13.498  -0.710  0.00  0.00     0.026 A 
ATOM     17  C   UNL d   1      14.530  13.042  -1.242  0.00  0.00     0.029 A 
BRANCH  15  18
ATOM     18  N   UNL d   1      15.544  14.748  -0.317  0.00  0.00    -0.114 N 
ATOM     19  O   UNL d   1      16.280  14.533  -0.017  0.00  0.00    -0.532 OA
ATOM     20  O   UNL d   1      15.321  15.473  -0.027  0.00  0.00    -0.532 OA
ENDBRANCH  15  18
ENDBRANCH  11  12
ENDBRANCH   1  11
TORSDOF 4
ENDMDL
