MODEL 1
REMARK VINA RESULT:     -11.3      0.000      0.000
REMARK  0 active torsions:
REMARK  status: ('A' for Active; 'I' for Inactive)
ROOT
ATOM      1  C   UNL d   1      52.945  31.852  53.169  0.00  0.00     0.191 A 
ATOM      2  S   UNL d   1      53.066  30.430  52.943  0.00  0.00     0.289 S 
ATOM      3  N   UNL d   1      52.755  31.176  52.731  0.00  0.00    -0.134 NA
ATOM      4  N   UNL d   1      53.446  31.777  53.822  0.00  0.00    -0.284 N 
ATOM      5  S   UNL d   1      52.736  32.632  53.103  0.00  0.00    -0.048 SA
ATOM      6  C   UNL d   1      53.102  33.048  53.707  0.00  0.00     0.048 A 
ATOM      7  C   UNL d   1      53.544  32.513  54.154  0.00  0.00     0.072 A 
ATOM      8  C   UNL d   1      53.567  30.368  53.598  0.00  0.00     0.137 A 
ATOM      9  C   UNL d   1      53.101  33.842  53.922  0.00  0.00     0.007 A 
ATOM     10  C   UNL d   1      53.760  31.032  54.039  0.00  0.00     0.096 A 
ATOM     11  O   UNL d   1      52.596  30.311  52.281  0.00  0.00    -0.198 OA
ATOM     12  O   UNL d   1      53.208  29.639  52.917  0.00  0.00    -0.198 OA
ATOM     13  C   UNL d   1      53.993  32.803  54.834  0.00  0.00     0.018 A 
ATOM     14  C   UNL d   1      53.532  34.121  54.576  0.00  0.00     0.001 A 
ATOM     15  C   UNL d   1      53.967  33.607  55.020  0.00  0.00     0.002 A 
ATOM     16  C   UNL d   1      52.640  34.370  53.448  0.00  0.00     0.001 A 
ATOM     17  C   UNL d   1      53.505  34.929  54.761  0.00  0.00     0.000 A 
ATOM     18  C   UNL d   1      52.614  35.173  53.633  0.00  0.00     0.000 A 
ATOM     19  C   UNL d   1      53.063  35.463  54.314  0.00  0.00     0.000 A 
ENDROOT
TORSDOF 0
ENDMDL
MODEL 2
REMARK VINA RESULT:     -10.9      2.292      3.912
REMARK  0 active torsions:
REMARK  status: ('A' for Active; 'I' for Inactive)
ROOT
ATOM      1  C   UNL d   1      53.412  33.679  54.361  0.00  0.00     0.191 A 
ATOM      2  S   UNL d   1      53.280  35.095  54.616  0.00  0.00     0.289 S 
ATOM      3  N   UNL d   1      53.633  34.356  54.783  0.00  0.00    -0.134 NA
ATOM      4  N   UNL d   1      52.836  33.745  53.772  0.00  0.00    -0.284 N 
ATOM      5  S   UNL d   1      53.648  32.905  54.394  0.00  0.00    -0.048 SA
ATOM      6  C   UNL d   1      53.226  32.484  53.832  0.00  0.00     0.048 A 
ATOM      7  C   UNL d   1      52.720  33.010  53.445  0.00  0.00     0.072 A 
ATOM      8  C   UNL d   1      52.704  35.149  54.025  0.00  0.00     0.137 A 
ATOM      9  C   UNL d   1      53.223  31.693  53.609  0.00  0.00     0.007 A 
ATOM     10  C   UNL d   1      52.479  34.483  53.601  0.00  0.00     0.096 A 
ATOM     11  O   UNL d   1      53.819  35.222  55.220  0.00  0.00    -0.198 OA
ATOM     12  O   UNL d   1      53.120  35.882  54.667  0.00  0.00    -0.198 OA
ATOM     13  C   UNL d   1      52.203  32.713  52.818  0.00  0.00     0.018 A 
ATOM     14  C   UNL d   1      52.726  31.407  53.006  0.00  0.00     0.001 A 
ATOM     15  C   UNL d   1      52.229  31.911  52.622  0.00  0.00     0.002 A 
ATOM     16  C   UNL d   1      53.750  31.174  54.020  0.00  0.00     0.001 A 
ATOM     17  C   UNL d   1      52.754  30.601  52.810  0.00  0.00     0.000 A 
ATOM     18  C   UNL d   1      53.776  30.373  53.824  0.00  0.00     0.000 A 
ATOM     19  C   UNL d   1      53.259  30.076  53.197  0.00  0.00     0.000 A 
ENDROOT
TORSDOF 0
ENDMDL
MODEL 3
REMARK VINA RESULT:     -10.4      1.001      1.196
REMARK  0 active torsions:
REMARK  status: ('A' for Active; 'I' for Inactive)
ROOT
ATOM      1  C   UNL d   1      52.542  31.106  53.257  0.00  0.00     0.191 A 
ATOM      2  S   UNL d   1      52.940  29.738  53.494  0.00  0.00     0.289 S 
ATOM      3  N   UNL d   1      52.373  30.296  53.240  0.00  0.00    -0.134 NA
ATOM      4  N   UNL d   1      53.282  31.354  53.529  0.00  0.00    -0.284 N 
ATOM      5  S   UNL d   1      52.117  31.765  53.051  0.00  0.00    -0.048 SA
ATOM      6  C   UNL d   1      52.583  32.424  53.193  0.00  0.00     0.048 A 
ATOM      7  C   UNL d   1      53.309  32.166  53.490  0.00  0.00     0.072 A 
ATOM      8  C   UNL d   1      53.677  29.998  53.765  0.00  0.00     0.137 A 
ATOM      9  C   UNL d   1      52.458  33.231  53.095  0.00  0.00     0.007 A 
ATOM     10  C   UNL d   1      53.854  30.799  53.785  0.00  0.00     0.096 A 
ATOM     11  O   UNL d   1      52.277  29.313  53.262  0.00  0.00    -0.198 OA
ATOM     12  O   UNL d   1      53.270  29.024  53.666  0.00  0.00    -0.198 OA
ATOM     13  C   UNL d   1      53.914  32.751  53.690  0.00  0.00     0.018 A 
ATOM     14  C   UNL d   1      53.040  33.794  53.287  0.00  0.00     0.001 A 
ATOM     15  C   UNL d   1      53.751  33.553  53.578  0.00  0.00     0.002 A 
ATOM     16  C   UNL d   1      51.706  33.470  52.788  0.00  0.00     0.001 A 
ATOM     17  C   UNL d   1      52.874  34.599  53.173  0.00  0.00     0.000 A 
ATOM     18  C   UNL d   1      51.544  34.271  52.676  0.00  0.00     0.000 A 
ATOM     19  C   UNL d   1      52.149  34.856  52.876  0.00  0.00     0.000 A 
ENDROOT
TORSDOF 0
ENDMDL
MODEL 4
REMARK VINA RESULT:      -9.6      2.417      3.121
REMARK  0 active torsions:
REMARK  status: ('A' for Active; 'I' for Inactive)
ROOT
ATOM      1  C   UNL d   1      53.516  34.067  54.424  0.00  0.00     0.191 A 
ATOM      2  S   UNL d   1      54.782  33.800  55.067  0.00  0.00     0.289 S 
ATOM      3  N   UNL d   1      54.145  34.315  54.902  0.00  0.00    -0.134 NA
ATOM      4  N   UNL d   1      53.528  33.302  54.112  0.00  0.00    -0.284 N 
ATOM      5  S   UNL d   1      52.837  34.430  54.171  0.00  0.00    -0.048 SA
ATOM      6  C   UNL d   1      52.423  33.900  53.703  0.00  0.00     0.048 A 
ATOM      7  C   UNL d   1      52.855  33.197  53.667  0.00  0.00     0.072 A 
ATOM      8  C   UNL d   1      54.783  33.036  54.750  0.00  0.00     0.137 A 
ATOM      9  C   UNL d   1      51.709  33.949  53.297  0.00  0.00     0.007 A 
ATOM     10  C   UNL d   1      54.164  32.782  54.274  0.00  0.00     0.096 A 
ATOM     11  O   UNL d   1      54.940  34.504  55.456  0.00  0.00    -0.198 OA
ATOM     12  O   UNL d   1      55.478  33.538  55.373  0.00  0.00    -0.198 OA
ATOM     13  C   UNL d   1      52.545  32.535  53.206  0.00  0.00     0.018 A 
ATOM     14  C   UNL d   1      51.411  33.311  52.854  0.00  0.00     0.001 A 
ATOM     15  C   UNL d   1      51.825  32.621  52.812  0.00  0.00     0.002 A 
ATOM     16  C   UNL d   1      51.285  34.679  53.349  0.00  0.00     0.001 A 
ATOM     17  C   UNL d   1      50.686  33.401  52.459  0.00  0.00     0.000 A 
ATOM     18  C   UNL d   1      50.565  34.765  52.956  0.00  0.00     0.000 A 
ATOM     19  C   UNL d   1      50.255  34.102  52.495  0.00  0.00     0.000 A 
ENDROOT
TORSDOF 0
ENDMDL
MODEL 5
REMARK VINA RESULT:      -9.6      2.354      3.145
REMARK  0 active torsions:
REMARK  status: ('A' for Active; 'I' for Inactive)
ROOT
ATOM      1  C   UNL d   1      51.760  34.269  53.473  0.00  0.00     0.191 A 
ATOM      2  S   UNL d   1      50.526  34.356  52.727  0.00  0.00     0.289 S 
ATOM      3  N   UNL d   1      51.058  34.668  53.291  0.00  0.00    -0.134 NA
ATOM      4  N   UNL d   1      51.926  33.556  53.089  0.00  0.00    -0.284 N 
ATOM      5  S   UNL d   1      52.370  34.427  53.982  0.00  0.00    -0.048 SA
ATOM      6  C   UNL d   1      52.918  33.821  53.921  0.00  0.00     0.048 A 
ATOM      7  C   UNL d   1      52.639  33.279  53.364  0.00  0.00     0.072 A 
ATOM      8  C   UNL d   1      50.703  33.642  52.349  0.00  0.00     0.137 A 
ATOM      9  C   UNL d   1      53.638  33.676  54.291  0.00  0.00     0.007 A 
ATOM     10  C   UNL d   1      51.396  33.239  52.523  0.00  0.00     0.096 A 
ATOM     11  O   UNL d   1      50.199  35.057  52.998  0.00  0.00    -0.198 OA
ATOM     12  O   UNL d   1      49.874  34.296  52.259  0.00  0.00    -0.198 OA
ATOM     13  C   UNL d   1      53.112  32.576  53.187  0.00  0.00     0.018 A 
ATOM     14  C   UNL d   1      54.092  33.000  54.121  0.00  0.00     0.001 A 
ATOM     15  C   UNL d   1      53.830  32.465  53.579  0.00  0.00     0.002 A 
ATOM     16  C   UNL d   1      53.902  34.246  54.858  0.00  0.00     0.001 A 
ATOM     17  C   UNL d   1      54.814  32.890  54.516  0.00  0.00     0.000 A 
ATOM     18  C   UNL d   1      54.619  34.134  55.250  0.00  0.00     0.000 A 
ATOM     19  C   UNL d   1      55.092  33.432  55.073  0.00  0.00     0.000 A 
ENDROOT
TORSDOF 0
ENDMDL
