MODEL 1
REMARK VINA RESULT:      10.1      0.000      0.000
REMARK  3 active torsions:
REMARK  status: ('A' for Active; 'I' for Inactive)
REMARK    1  A    between atoms: C_6  and  N_1 
REMARK    2  A    between atoms: C_7  and  O_10 
REMARK    3  A    between atoms: O_10  and  C_13 
ROOT
ATOM      1  C   UNL d   1      13.945  12.378  -2.039  0.00  0.00     0.070 A 
ATOM      2  C   UNL d   1      14.056  13.093  -2.456  0.00  0.00     0.020 A 
ATOM      3  C   UNL d   1      13.479  11.779  -2.365  0.00  0.00     0.020 A 
ATOM      4  C   UNL d   1      13.224  12.583  -3.519  0.00  0.00     0.105 A 
ATOM      5  C   UNL d   1      13.118  11.875  -3.099  0.00  0.00     0.026 A 
ATOM      6  C   UNL d   1      13.695  13.189  -3.192  0.00  0.00     0.026 A 
ENDROOT
BRANCH   1   7
ATOM      7  N   UNL d   1      14.303  12.282  -1.309  0.00  0.00    -0.242 N 
ATOM      8  C   UNL d   1      15.107  12.440  -1.103  0.00  0.00     0.267 A 
ATOM      9  C   UNL d   1      15.197  12.261  -0.322  0.00  0.00     0.066 A 
ATOM     10  O   UNL d   1      15.702  12.724  -1.595  0.00  0.00    -0.267 OA
ATOM     11  C   UNL d   1      14.499  11.998  -0.014  0.00  0.00     0.066 A 
ATOM     12  C   UNL d   1      13.939  12.016  -0.648  0.00  0.00     0.267 A 
ATOM     13  O   UNL d   1      13.143  11.796  -0.605  0.00  0.00    -0.267 OA
ENDBRANCH   1   7
BRANCH   4  14
ATOM     14  O   UNL d   1      12.874  12.676  -4.233  0.00  0.00    -0.260 OA
BRANCH  14  15
ATOM     15  C   UNL d   1      13.241  12.401  -4.906  0.00  0.00     0.391 C 
ATOM     16  F   UNL d   1      13.925  12.742  -5.163  0.00  0.00    -0.145 F 
ATOM     17  F   UNL d   1      12.917  11.780  -5.321  0.00  0.00    -0.145 F 
ENDBRANCH  14  15
ENDBRANCH   4  14
TORSDOF 3
ENDMDL
