MODEL 1
REMARK VINA RESULT:      79.8      0.000      0.000
REMARK  4 active torsions:
REMARK  status: ('A' for Active; 'I' for Inactive)
REMARK    1  A    between atoms: C_10  and  N_2 
REMARK    2  A    between atoms: N_6  and  C_3 
REMARK    3  A    between atoms: N_7  and  N_6 
REMARK    4  A    between atoms: C_11  and  N_7 
ROOT
ATOM      1  C   UNL d   1     -57.498 -99.490 -43.656  0.00  0.00     0.206 A 
ATOM      2  N   UNL d   1     -57.091 -99.466 -44.379  0.00  0.00    -0.209 N 
ATOM      3  C   UNL d   1     -58.271 -99.221 -43.824  0.00  0.00     0.160 A 
ATOM      4  N   UNL d   1     -57.579 -99.202 -44.951  0.00  0.00    -0.162 NA
ATOM      5  C   UNL d   1     -58.310 -99.046 -44.626  0.00  0.00     0.124 A 
ATOM      6  N   UNL d   1     -57.207 -99.729 -42.915  0.00  0.00    -0.125 N 
ATOM      7  C   UNL d   1     -58.985 -98.759 -45.026  0.00  0.00     0.024 C 
ENDROOT
BRANCH   3   8
ATOM      8  N   UNL d   1     -58.910 -99.124 -43.344  0.00  0.00    -0.143 NA
BRANCH   8   9
ATOM      9  N   UNL d   1     -59.177 -99.767 -42.877  0.00  0.00    -0.148 NA
BRANCH   9  10
ATOM     10  C   UNL d   1     -59.418 -99.626 -42.090  0.00  0.00     0.103 A 
ATOM     11  C   UNL d   1     -59.350-100.221 -41.515  0.00  0.00     0.019 A 
ATOM     12  C   UNL d   1     -59.582-100.093 -40.748  0.00  0.00     0.002 A 
ATOM     13  C   UNL d   1     -59.033-100.970 -41.733  0.00  0.00     0.002 C 
ATOM     14  C   UNL d   1     -59.513-100.687 -40.176  0.00  0.00     0.000 C 
ATOM     15  C   UNL d   1     -59.889 -99.351 -40.560  0.00  0.00     0.000 A 
ATOM     16  C   UNL d   1     -59.959 -98.767 -41.113  0.00  0.00     0.002 A 
ATOM     17  C   UNL d   1     -59.720 -98.909 -41.887  0.00  0.00     0.021 A 
ENDBRANCH   9  10
ENDBRANCH   8   9
ENDBRANCH   3   8
BRANCH   2  18
ATOM     18  C   UNL d   1     -56.307 -99.710 -44.349  0.00  0.00     0.085 A 
ATOM     19  C   UNL d   1     -56.135-100.503 -44.315  0.00  0.00     0.019 A 
ATOM     20  C   UNL d   1     -55.339-100.746 -44.285  0.00  0.00     0.002 A 
ATOM     21  C   UNL d   1     -54.739-100.215 -44.289  0.00  0.00     0.000 A 
ATOM     22  C   UNL d   1     -54.905 -99.406 -44.324  0.00  0.00     0.002 A 
ATOM     23  C   UNL d   1     -55.675 -99.146 -44.354  0.00  0.00     0.019 A 
ENDBRANCH   2  18
TORSDOF 4
ENDMDL
