MODEL 1
REMARK VINA RESULT:      30.6      0.000      0.000
REMARK  1 active torsions:
REMARK  status: ('A' for Active; 'I' for Inactive)
REMARK    1  A    between atoms: C_2  and  C_1 
REMARK       I    between atoms: N_6  and  C_2 
ROOT
ATOM      1  C   UNL d   1     -57.795 -98.892 -44.283  0.00  0.00     0.057 A 
ATOM      2  C   UNL d   1     -58.500 -98.843 -43.860  0.00  0.00     0.005 A 
ATOM      3  C   UNL d   1     -59.226 -98.799 -44.266  0.00  0.00     0.001 A 
ATOM      4  C   UNL d   1     -57.809 -98.897 -45.109  0.00  0.00     0.011 A 
ATOM      5  C   UNL d   1     -59.235 -98.805 -45.088  0.00  0.00     0.006 A 
ATOM      6  C   UNL d   1     -58.532 -98.854 -45.513  0.00  0.00     0.035 A 
ATOM      7 BR   UNL d   1     -58.541 -98.860 -46.335  0.00  0.00    -0.049 Br
ATOM      8  C   UNL d   1     -58.702 -98.823 -43.061  0.00  0.00     0.000 C 
ATOM      9  C   UNL d   1     -59.796 -98.758 -43.673  0.00  0.00     0.000 C 
ATOM     10  C   UNL d   1     -59.955 -98.762 -45.493  0.00  0.00     0.001 C 
ENDROOT
BRANCH   1  11
ATOM     11  C   UNL d   1     -57.075 -98.935 -43.883  0.00  0.00     0.265 C 
ATOM     12  N   UNL d   1     -56.366 -98.881 -44.302  0.00  0.00    -0.272 N 
ATOM     13  C   UNL d   1     -56.290 -98.784 -45.114  0.00  0.00     0.083 A 
ATOM     14  C   UNL d   1     -55.607 -98.915 -43.977  0.00  0.00     0.083 A 
ATOM     15  C   UNL d   1     -55.487 -98.757 -45.297  0.00  0.00     0.021 A 
ATOM     16  C   UNL d   1     -55.064 -98.838 -44.593  0.00  0.00     0.021 A 
ATOM     17  O   UNL d   1     -57.063 -99.032 -43.065  0.00  0.00    -0.267 OA
ENDBRANCH   1  11
TORSDOF 1
ENDMDL
