MODEL 1
REMARK VINA RESULT:      43.9      0.000      0.000
REMARK  6 active torsions:
REMARK  status: ('A' for Active; 'I' for Inactive)
REMARK       I    between atoms: N_2  and  C_1 
REMARK    1  A    between atoms: C_5  and  C_1 
REMARK    2  A    between atoms: C_3  and  N_2 
REMARK    3  A    between atoms: O_16  and  C_6 
REMARK    4  A    between atoms: O_17  and  C_11 
REMARK    5  A    between atoms: O_18  and  C_12 
REMARK    6  A    between atoms: C_19  and  O_18 
ROOT
ATOM      1  C   UNL d   1     -51.114  25.951  33.800  0.00  0.00     0.279 C 
ATOM      2  N   UNL d   1     -50.821  25.194  33.640  0.00  0.00    -0.206 NA
ATOM      3  O   UNL d   1     -51.920  26.080  33.849  0.00  0.00    -0.265 OA
ENDROOT
BRANCH   1   4
ATOM      4  C   UNL d   1     -50.574  26.593  33.915  0.00  0.00     0.058 A 
ATOM      5  C   UNL d   1     -50.173  26.662  34.632  0.00  0.00     0.007 A 
ATOM      6  C   UNL d   1     -49.653  27.280  34.742  0.00  0.00     0.025 A 
ATOM      7  C   UNL d   1     -49.532  27.833  34.135  0.00  0.00     0.100 A 
ATOM      8  C   UNL d   1     -49.938  27.753  33.426  0.00  0.00     0.025 A 
ATOM      9  C   UNL d   1     -50.457  27.135  33.316  0.00  0.00     0.007 A 
BRANCH   7  10
ATOM     10  O   UNL d   1     -48.996  28.471  34.249  0.00  0.00    -0.305 OA
BRANCH  10  11
ATOM     11  C   UNL d   1     -48.448  28.435  34.864  0.00  0.00     0.123 C 
ATOM     12  C   UNL d   1     -47.653  28.290  34.691  0.00  0.00     0.029 C 
ENDBRANCH  10  11
ENDBRANCH   7  10
ENDBRANCH   1   4
BRANCH   2  13
ATOM     13  C   UNL d   1     -51.341  24.575  33.530  0.00  0.00     0.109 A 
ATOM     14  C   UNL d   1     -52.149  24.728  33.533  0.00  0.00     0.045 A 
ATOM     15  C   UNL d   1     -52.672  24.113  33.423  0.00  0.00     0.096 A 
ATOM     16  C   UNL d   1     -52.405  23.333  33.308  0.00  0.00     0.026 A 
ATOM     17  C   UNL d   1     -51.610  23.191  33.306  0.00  0.00     0.028 A 
ATOM     18  C   UNL d   1     -51.060  23.805  33.416  0.00  0.00     0.112 A 
BRANCH  15  19
ATOM     19  O   UNL d   1     -53.483  24.287  33.430  0.00  0.00    -0.328 OA
ATOM     20  C   UNL d   1     -53.991  23.848  33.919  0.00  0.00     0.181 C 
ENDBRANCH  15  19
BRANCH  18  21
ATOM     21  O   UNL d   1     -50.258  23.645  33.412  0.00  0.00    -0.327 OA
ATOM     22  C   UNL d   1     -49.913  23.262  34.064  0.00  0.00     0.181 C 
ENDBRANCH  18  21
ENDBRANCH   2  13
TORSDOF 6
ENDMDL
