MODEL 1
REMARK VINA RESULT:      -6.4      0.000      0.000
REMARK  8 active torsions:
REMARK  status: ('A' for Active; 'I' for Inactive)
REMARK    1  A    between atoms: C_13  and  C_4 
REMARK    2  A    between atoms: N_16  and  C_5 
REMARK    3  A    between atoms: C_20  and  C_9 
REMARK    4  A    between atoms: N_11  and  C_18 
REMARK    5  A    between atoms: C_21  and  N_16 
REMARK    6  A    between atoms: C_18  and  C_19 
REMARK    7  A    between atoms: C_19  and  C_21 
REMARK    8  A    between atoms: C_24  and  C_20 
ROOT
ATOM      1  N   UNL d   1     -48.441  12.214  23.215  0.00  0.00    -0.184 N 
ATOM      2  C   UNL d   1     -48.889  12.855  22.931  0.00  0.00     0.168 A 
ATOM      3  N   UNL d   1     -49.632  11.528  23.549  0.00  0.00    -0.162 NA
ATOM      4  C   UNL d   1     -49.696  12.828  22.959  0.00  0.00     0.055 A 
ATOM      5  C   UNL d   1     -47.629  12.263  23.178  0.00  0.00     0.218 A 
ATOM      6  C   UNL d   1     -50.081  12.170  23.266  0.00  0.00     0.104 A 
ATOM      7  N   UNL d   1     -48.504  13.514  22.625  0.00  0.00    -0.227 NA
ATOM      8  C   UNL d   1     -47.241  12.904  22.879  0.00  0.00     0.071 A 
ATOM      9  C   UNL d   1     -47.690  13.546  22.595  0.00  0.00     0.087 A 
ATOM     10  C   UNL d   1     -50.893  12.135  23.296  0.00  0.00     0.023 C 
ENDROOT
BRANCH   5  11
ATOM     11  N   UNL d   1     -47.166  11.601  23.471  0.00  0.00    -0.380 NA
BRANCH  11  12
ATOM     12  C   UNL d   1     -46.675  10.935  23.697  0.00  0.00     0.164 C 
BRANCH  12  13
ATOM     13  C   UNL d   1     -45.827  11.014  23.682  0.00  0.00     0.054 C 
BRANCH  13  14
ATOM     14  C   UNL d   1     -45.339  10.318  23.694  0.00  0.00     0.084 C 
BRANCH  14  15
ATOM     15  N   UNL d   1     -44.519  10.376  23.512  0.00  0.00    -0.285 N 
ATOM     16  C   UNL d   1     -44.103  11.074  23.271  0.00  0.00     0.183 A 
ATOM     17  N   UNL d   1     -43.284  10.872  23.147  0.00  0.00    -0.222 NA
ATOM     18  C   UNL d   1     -43.184  10.050  23.311  0.00  0.00     0.120 A 
ATOM     19  C   UNL d   1     -43.941   9.738  23.536  0.00  0.00     0.102 A 
ENDBRANCH  14  15
ENDBRANCH  13  14
ENDBRANCH  12  13
ENDBRANCH  11  12
ENDBRANCH   5  11
BRANCH   9  20
ATOM     20  C   UNL d   1     -47.295  14.233  22.275  0.00  0.00     0.019 C 
BRANCH  20  21
ATOM     21  C   UNL d   1     -46.593  14.557  22.662  0.00  0.00     0.002 C 
ATOM     22  C   UNL d   1     -46.278  15.306  22.418  0.00  0.00     0.000 C 
ENDBRANCH  20  21
ENDBRANCH   9  20
BRANCH   4  23
ATOM     23  C   UNL d   1     -50.138  13.460  22.679  0.00  0.00     0.004 A 
ATOM     24  C   UNL d   1     -50.340  14.068  23.188  0.00  0.00     0.000 A 
ATOM     25  C   UNL d   1     -50.782  14.700  22.909  0.00  0.00     0.000 A 
ATOM     26  C   UNL d   1     -51.022  14.725  22.120  0.00  0.00     0.000 A 
ATOM     27  C   UNL d   1     -50.820  14.115  21.607  0.00  0.00     0.000 A 
ATOM     28  C   UNL d   1     -50.371  13.472  21.891  0.00  0.00     0.000 A 
ENDBRANCH   4  23
TORSDOF 8
ENDMDL
MODEL 2
REMARK VINA RESULT:      -5.1      1.355      2.689
REMARK  8 active torsions:
REMARK  status: ('A' for Active; 'I' for Inactive)
REMARK    1  A    between atoms: C_13  and  C_4 
REMARK    2  A    between atoms: N_16  and  C_5 
REMARK    3  A    between atoms: C_20  and  C_9 
REMARK    4  A    between atoms: N_11  and  C_18 
REMARK    5  A    between atoms: C_21  and  N_16 
REMARK    6  A    between atoms: C_18  and  C_19 
REMARK    7  A    between atoms: C_19  and  C_21 
REMARK    8  A    between atoms: C_24  and  C_20 
ROOT
ATOM      1  N   UNL d   1     -47.662  13.430  22.965  0.00  0.00    -0.184 N 
ATOM      2  C   UNL d   1     -48.434  13.744  22.984  0.00  0.00     0.168 A 
ATOM      3  N   UNL d   1     -47.166  14.674  22.510  0.00  0.00    -0.162 NA
ATOM      4  C   UNL d   1     -48.562  14.512  22.768  0.00  0.00     0.055 A 
ATOM      5  C   UNL d   1     -47.555  12.654  23.186  0.00  0.00     0.218 A 
ATOM      6  C   UNL d   1     -47.937  14.989  22.529  0.00  0.00     0.104 A 
ATOM      7  N   UNL d   1     -49.059  13.267  23.223  0.00  0.00    -0.227 NA
ATOM      8  C   UNL d   1     -48.162  12.177  23.423  0.00  0.00     0.071 A 
ATOM      9  C   UNL d   1     -48.933  12.492  23.442  0.00  0.00     0.087 A 
ATOM     10  C   UNL d   1     -48.059  15.763  22.310  0.00  0.00     0.023 C 
ENDROOT
BRANCH   5  11
ATOM     11  N   UNL d   1     -46.760  12.330  23.167  0.00  0.00    -0.380 NA
BRANCH  11  12
ATOM     12  C   UNL d   1     -45.969  12.001  23.220  0.00  0.00     0.164 C 
BRANCH  12  13
ATOM     13  C   UNL d   1     -45.415  12.136  22.588  0.00  0.00     0.054 C 
BRANCH  13  14
ATOM     14  C   UNL d   1     -44.615  11.856  22.663  0.00  0.00     0.084 C 
BRANCH  14  15
ATOM     15  N   UNL d   1     -44.010  12.178  22.174  0.00  0.00    -0.285 N 
ATOM     16  C   UNL d   1     -43.217  11.891  22.096  0.00  0.00     0.183 A 
ATOM     17  N   UNL d   1     -42.802  12.389  21.541  0.00  0.00    -0.222 NA
ATOM     18  C   UNL d   1     -43.333  12.987  21.271  0.00  0.00     0.120 A 
ATOM     19  C   UNL d   1     -44.079  12.863  21.657  0.00  0.00     0.102 A 
ENDBRANCH  14  15
ENDBRANCH  13  14
ENDBRANCH  12  13
ENDBRANCH  11  12
ENDBRANCH   5  11
BRANCH   9  20
ATOM     20  C   UNL d   1     -49.588  12.000  23.690  0.00  0.00     0.019 C 
BRANCH  20  21
ATOM     21  C   UNL d   1     -50.145  11.684  23.111  0.00  0.00     0.002 C 
ATOM     22  C   UNL d   1     -50.946  11.518  23.334  0.00  0.00     0.000 C 
ENDBRANCH  20  21
ENDBRANCH   9  20
BRANCH   4  23
ATOM     23  C   UNL d   1     -49.322  14.822  22.787  0.00  0.00     0.004 A 
ATOM     24  C   UNL d   1     -49.792  14.778  22.119  0.00  0.00     0.000 A 
ATOM     25  C   UNL d   1     -50.552  15.088  22.137  0.00  0.00     0.000 A 
ATOM     26  C   UNL d   1     -50.841  15.441  22.825  0.00  0.00     0.000 A 
ATOM     27  C   UNL d   1     -50.370  15.486  23.497  0.00  0.00     0.000 A 
ATOM     28  C   UNL d   1     -49.598  15.171  23.478  0.00  0.00     0.000 A 
ENDBRANCH   4  23
TORSDOF 8
ENDMDL
