MODEL 1
REMARK VINA RESULT:      -6.6      0.000      0.000
REMARK  5 active torsions:
REMARK  status: ('A' for Active; 'I' for Inactive)
REMARK    1  A    between atoms: N_2  and  S_1 
REMARK    2  A    between atoms: N_6  and  S_1 
REMARK    3  A    between atoms: C_3  and  N_4 
REMARK       I    between atoms: N_4  and  C_5 
REMARK    4  A    between atoms: C_5  and  C_14 
REMARK    5  A    between atoms: C_14  and  N_7 
ROOT
ATOM      1  N   UNL d   1     -45.431  12.993  22.503  0.00  0.00    -0.213 N 
ATOM      2  N   UNL d   1     -46.882  13.478  23.085  0.00  0.00    -0.296 N 
ATOM      3  C   UNL d   1     -45.717  13.743  22.324  0.00  0.00     0.112 A 
ATOM      4  C   UNL d   1     -45.877  12.475  22.981  0.00  0.00     0.112 A 
ATOM      5  C   UNL d   1     -46.448  13.988  22.618  0.00  0.00     0.100 A 
ATOM      6  C   UNL d   1     -46.609  12.719  23.274  0.00  0.00     0.100 A 
ENDROOT
BRANCH   2   7
ATOM      7  C   UNL d   1     -47.625  13.726  23.383  0.00  0.00     0.144 C 
BRANCH   7   8
ATOM      8  C   UNL d   1     -48.316  13.569  22.952  0.00  0.00     0.297 C 
ATOM      9  N   UNL d   1     -49.008  13.351  23.342  0.00  0.00    -0.206 NA
ATOM     10  O   UNL d   1     -48.308  13.631  22.129  0.00  0.00    -0.264 OA
BRANCH   9  11
ATOM     11  C   UNL d   1     -49.695  13.195  22.910  0.00  0.00     0.096 A 
ATOM     12  C   UNL d   1     -49.970  13.751  22.366  0.00  0.00     0.032 A 
ATOM     13  C   UNL d   1     -50.658  13.596  21.934  0.00  0.00     0.059 A 
ATOM     14 CL   UNL d   1     -50.933  14.152  21.390  0.00  0.00    -0.082 Cl
ATOM     15  C   UNL d   1     -51.064  12.889  22.048  0.00  0.00     0.012 A 
ATOM     16  C   UNL d   1     -50.786  12.335  22.592  0.00  0.00     0.014 A 
ATOM     17  C   UNL d   1     -50.099  12.491  23.024  0.00  0.00     0.075 A 
ATOM     18 CL   UNL d   1     -49.814  11.942  23.571  0.00  0.00    -0.081 Cl
ENDBRANCH   9  11
ENDBRANCH   7   8
ENDBRANCH   2   7
BRANCH   1  19
ATOM     19  S   UNL d   1     -44.700  12.749  22.209  0.00  0.00     0.337 S 
ATOM     20  O   UNL d   1     -44.257  13.259  21.728  0.00  0.00    -0.181 OA
ATOM     21  O   UNL d   1     -44.411  11.999  22.393  0.00  0.00    -0.181 OA
BRANCH  19  22
ATOM     22  N   UNL d   1     -43.969  12.504  21.916  0.00  0.00    -0.213 N 
ATOM     23  C   UNL d   1     -43.558  11.888  22.291  0.00  0.00     0.113 C 
ATOM     24  C   UNL d   1     -43.647  12.871  21.252  0.00  0.00     0.113 C 
ENDBRANCH  19  22
ENDBRANCH   1  19
TORSDOF 5
ENDMDL
MODEL 2
REMARK VINA RESULT:      -5.6      2.351      5.252
REMARK  5 active torsions:
REMARK  status: ('A' for Active; 'I' for Inactive)
REMARK    1  A    between atoms: N_2  and  S_1 
REMARK    2  A    between atoms: N_6  and  S_1 
REMARK    3  A    between atoms: C_3  and  N_4 
REMARK       I    between atoms: N_4  and  C_5 
REMARK    4  A    between atoms: C_5  and  C_14 
REMARK    5  A    between atoms: C_14  and  N_7 
ROOT
ATOM      1  N   UNL d   1     -48.857  13.229  22.669  0.00  0.00    -0.213 N 
ATOM      2  N   UNL d   1     -47.241  13.485  22.607  0.00  0.00    -0.296 N 
ATOM      3  C   UNL d   1     -48.435  13.039  21.989  0.00  0.00     0.112 A 
ATOM      4  C   UNL d   1     -48.465  13.553  23.330  0.00  0.00     0.112 A 
ATOM      5  C   UNL d   1     -47.621  13.167  21.958  0.00  0.00     0.100 A 
ATOM      6  C   UNL d   1     -47.651  13.682  23.299  0.00  0.00     0.100 A 
ENDROOT
BRANCH   2   7
ATOM      7  C   UNL d   1     -46.414  13.615  22.575  0.00  0.00     0.144 C 
BRANCH   7   8
ATOM      8  C   UNL d   1     -45.892  13.013  22.806  0.00  0.00     0.297 C 
ATOM      9  N   UNL d   1     -45.307  12.752  22.289  0.00  0.00    -0.206 NA
ATOM     10  O   UNL d   1     -45.962  12.675  23.555  0.00  0.00    -0.264 OA
BRANCH   9  11
ATOM     11  C   UNL d   1     -44.788  12.151  22.520  0.00  0.00     0.096 A 
ATOM     12  C   UNL d   1     -45.064  11.533  22.991  0.00  0.00     0.032 A 
ATOM     13  C   UNL d   1     -44.546  10.932  23.223  0.00  0.00     0.059 A 
ATOM     14 CL   UNL d   1     -44.822  10.313  23.695  0.00  0.00    -0.082 Cl
ATOM     15  C   UNL d   1     -43.758  10.952  22.983  0.00  0.00     0.012 A 
ATOM     16  C   UNL d   1     -43.485  11.572  22.511  0.00  0.00     0.014 A 
ATOM     17  C   UNL d   1     -44.005  12.173  22.280  0.00  0.00     0.075 A 
ATOM     18 CL   UNL d   1     -43.740  12.796  21.809  0.00  0.00    -0.081 Cl
ENDBRANCH   9  11
ENDBRANCH   7   8
ENDBRANCH   2   7
BRANCH   1  19
ATOM     19  S   UNL d   1     -49.671  13.100  22.700  0.00  0.00     0.337 S 
ATOM     20  O   UNL d   1     -50.193  13.746  22.670  0.00  0.00    -0.181 OA
ATOM     21  O   UNL d   1     -49.966  12.333  22.761  0.00  0.00    -0.181 OA
BRANCH  19  22
ATOM     22  N   UNL d   1     -50.485  12.972  22.732  0.00  0.00    -0.213 N 
ATOM     23  C   UNL d   1     -50.975  13.280  22.136  0.00  0.00     0.113 C 
ATOM     24  C   UNL d   1     -50.811  12.538  23.352  0.00  0.00     0.113 C 
ENDBRANCH  19  22
ENDBRANCH   1  19
TORSDOF 5
ENDMDL
MODEL 3
REMARK VINA RESULT:      -5.5      8.214      9.190
REMARK  5 active torsions:
REMARK  status: ('A' for Active; 'I' for Inactive)
REMARK    1  A    between atoms: N_2  and  S_1 
REMARK    2  A    between atoms: N_6  and  S_1 
REMARK    3  A    between atoms: C_3  and  N_4 
REMARK       I    between atoms: N_4  and  C_5 
REMARK    4  A    between atoms: C_5  and  C_14 
REMARK    5  A    between atoms: C_14  and  N_7 
ROOT
ATOM      1  N   UNL d   1     -39.279  14.813  21.959  0.00  0.00    -0.213 N 
ATOM      2  N   UNL d   1     -40.160  15.051  20.600  0.00  0.00    -0.296 N 
ATOM      3  C   UNL d   1     -39.534  15.570  21.761  0.00  0.00     0.112 A 
ATOM      4  C   UNL d   1     -39.467  14.164  21.471  0.00  0.00     0.112 A 
ATOM      5  C   UNL d   1     -39.978  15.690  21.076  0.00  0.00     0.100 A 
ATOM      6  C   UNL d   1     -39.911  14.284  20.786  0.00  0.00     0.100 A 
ENDROOT
BRANCH   2   7
ATOM      7  C   UNL d   1     -40.611  15.173  19.904  0.00  0.00     0.144 C 
BRANCH   7   8
ATOM      8  C   UNL d   1     -40.233  15.191  19.166  0.00  0.00     0.297 C 
ATOM      9  N   UNL d   1     -40.577  14.821  18.516  0.00  0.00    -0.206 NA
ATOM     10  O   UNL d   1     -39.510  15.580  19.085  0.00  0.00    -0.264 OA
BRANCH   9  11
ATOM     11  C   UNL d   1     -40.199  14.840  17.780  0.00  0.00     0.096 A 
ATOM     12  C   UNL d   1     -39.467  14.471  17.689  0.00  0.00     0.032 A 
ATOM     13  C   UNL d   1     -39.088  14.489  16.955  0.00  0.00     0.059 A 
ATOM     14 CL   UNL d   1     -38.355  14.120  16.864  0.00  0.00    -0.082 Cl
ATOM     15  C   UNL d   1     -39.442  14.874  16.318  0.00  0.00     0.012 A 
ATOM     16  C   UNL d   1     -40.174  15.242  16.414  0.00  0.00     0.014 A 
ATOM     17  C   UNL d   1     -40.552  15.223  17.149  0.00  0.00     0.075 A 
ATOM     18 CL   UNL d   1     -41.285  15.589  17.251  0.00  0.00    -0.081 Cl
ENDBRANCH   9  11
ENDBRANCH   7   8
ENDBRANCH   2   7
BRANCH   1  19
ATOM     19  S   UNL d   1     -38.835  14.693  22.644  0.00  0.00     0.337 S 
ATOM     20  O   UNL d   1     -38.230  15.226  22.843  0.00  0.00    -0.181 OA
ATOM     21  O   UNL d   1     -38.992  14.046  23.130  0.00  0.00    -0.181 OA
BRANCH  19  22
ATOM     22  N   UNL d   1     -38.391  14.574  23.329  0.00  0.00    -0.213 N 
ATOM     23  C   UNL d   1     -37.944  15.197  23.646  0.00  0.00     0.113 C 
ATOM     24  C   UNL d   1     -38.392  13.837  23.698  0.00  0.00     0.113 C 
ENDBRANCH  19  22
ENDBRANCH   1  19
TORSDOF 5
ENDMDL
