MODEL 1
REMARK VINA RESULT:      -2.7      0.000      0.000
REMARK  7 active torsions:
REMARK  status: ('A' for Active; 'I' for Inactive)
REMARK    1  A    between atoms: N_9  and  C_1 
REMARK    2  A    between atoms: C_10  and  C_2 
REMARK    3  A    between atoms: C_5  and  S_14 
REMARK       I    between atoms: C_13  and  N_9 
REMARK    4  A    between atoms: O_18  and  C_10 
REMARK    5  A    between atoms: C_17  and  C_13 
REMARK    6  A    between atoms: S_14  and  C_17 
REMARK    7  A    between atoms: C_23  and  O_18 
ROOT
ATOM      1  N   UNL d   1      59.414  -9.818  31.727  0.00  0.00    -0.201 NA
ATOM      2  C   UNL d   1      60.082  -9.800  32.220  0.00  0.00     0.286 C 
ATOM      3  O   UNL d   1      60.842  -9.765  31.875  0.00  0.00    -0.265 OA
ENDROOT
BRANCH   1   4
ATOM      4  C   UNL d   1      59.498  -9.801  30.907  0.00  0.00     0.119 A 
ATOM      5  C   UNL d   1      58.880  -9.769  30.362  0.00  0.00     0.088 A 
ATOM      6  C   UNL d   1      59.216  -9.761  29.609  0.00  0.00     0.013 A 
ATOM      7  C   UNL d   1      58.800  -9.732  28.897  0.00  0.00     0.001 C 
ATOM      8  C   UNL d   1      60.037  -9.788  29.688  0.00  0.00     0.031 A 
ATOM      9  S   UNL d   1      60.209  -9.812  30.498  0.00  0.00    -0.068 SA
ATOM     10  C   UNL d   1      60.581  -9.790  29.079  0.00  0.00     0.007 C 
BRANCH   5  11
ATOM     11  C   UNL d   1      58.070  -9.749  30.535  0.00  0.00     0.302 C 
ATOM     12  O   UNL d   1      57.822  -9.664  31.308  0.00  0.00    -0.259 OA
BRANCH  11  13
ATOM     13  O   UNL d   1      57.526  -9.816  29.920  0.00  0.00    -0.271 OA
BRANCH  13  14
ATOM     14  C   UNL d   1      56.794  -9.443  29.965  0.00  0.00     0.126 C 
ATOM     15  C   UNL d   1      56.222  -9.567  29.377  0.00  0.00     0.029 C 
ENDBRANCH  13  14
ENDBRANCH  11  13
ENDBRANCH   5  11
ENDBRANCH   1   4
BRANCH   2  16
ATOM     16  C   UNL d   1      59.998  -9.817  33.040  0.00  0.00     0.100 C 
BRANCH  16  17
ATOM     17  S   UNL d   1      60.591  -9.503  33.526  0.00  0.00    -0.056 SA
BRANCH  17  18
ATOM     18  C   UNL d   1      60.388  -9.025  34.179  0.00  0.00     0.141 A 
ATOM     19  N   UNL d   1      59.684  -9.081  34.613  0.00  0.00    -0.232 NA
ATOM     20  C   UNL d   1      59.712  -8.501  35.213  0.00  0.00     0.088 A 
ATOM     21  C   UNL d   1      59.180  -8.295  35.807  0.00  0.00     0.020 A 
ATOM     22  C   UNL d   1      60.435  -8.094  35.140  0.00  0.00     0.049 A 
ATOM     23  C   UNL d   1      59.366  -7.684  36.329  0.00  0.00     0.002 A 
ATOM     24  C   UNL d   1      60.089  -7.278  36.256  0.00  0.00     0.001 A 
ATOM     25  C   UNL d   1      60.621  -7.484  35.662  0.00  0.00     0.008 A 
ATOM     26  S   UNL d   1      60.850  -8.426  34.495  0.00  0.00    -0.060 SA
ENDBRANCH  17  18
ENDBRANCH  16  17
ENDBRANCH   2  16
TORSDOF 7
ENDMDL
MODEL 2
REMARK VINA RESULT:      -1.8      8.946     10.325
REMARK  7 active torsions:
REMARK  status: ('A' for Active; 'I' for Inactive)
REMARK    1  A    between atoms: N_9  and  C_1 
REMARK    2  A    between atoms: C_10  and  C_2 
REMARK    3  A    between atoms: C_5  and  S_14 
REMARK       I    between atoms: C_13  and  N_9 
REMARK    4  A    between atoms: O_18  and  C_10 
REMARK    5  A    between atoms: C_17  and  C_13 
REMARK    6  A    between atoms: S_14  and  C_17 
REMARK    7  A    between atoms: C_23  and  O_18 
ROOT
ATOM      1  N   UNL d   1      56.858  -0.207  32.382  0.00  0.00    -0.201 NA
ATOM      2  C   UNL d   1      57.398   0.099  31.831  0.00  0.00     0.286 C 
ATOM      3  O   UNL d   1      57.947   0.679  32.077  0.00  0.00    -0.265 OA
ENDROOT
BRANCH   1   4
ATOM      4  C   UNL d   1      56.861   0.057  33.164  0.00  0.00     0.119 A 
ATOM      5  C   UNL d   1      56.193   0.206  33.622  0.00  0.00     0.088 A 
ATOM      6  C   UNL d   1      56.454   0.460  34.363  0.00  0.00     0.013 A 
ATOM      7  C   UNL d   1      55.971   0.670  34.997  0.00  0.00     0.001 C 
ATOM      8  C   UNL d   1      57.279   0.466  34.361  0.00  0.00     0.031 A 
ATOM      9  S   UNL d   1      57.530   0.215  33.613  0.00  0.00    -0.068 SA
ATOM     10  C   UNL d   1      57.761   0.682  34.984  0.00  0.00     0.007 C 
BRANCH   5  11
ATOM     11  C   UNL d   1      55.404   0.120  33.387  0.00  0.00     0.302 C 
ATOM     12  O   UNL d   1      55.207  -0.435  32.821  0.00  0.00    -0.259 OA
BRANCH  11  13
ATOM     13  O   UNL d   1      54.827   0.598  33.731  0.00  0.00    -0.271 OA
BRANCH  13  14
ATOM     14  C   UNL d   1      54.034   0.378  33.712  0.00  0.00     0.126 C 
ATOM     15  C   UNL d   1      53.508   0.651  34.292  0.00  0.00     0.029 C 
ENDBRANCH  13  14
ENDBRANCH  11  13
ENDBRANCH   5  11
ENDBRANCH   1   4
BRANCH   2  16
ATOM     16  C   UNL d   1      57.394  -0.166  31.050  0.00  0.00     0.100 C 
BRANCH  16  17
ATOM     17  S   UNL d   1      58.067  -0.073  30.576  0.00  0.00    -0.056 SA
BRANCH  17  18
ATOM     18  C   UNL d   1      58.350  -0.712  30.121  0.00  0.00     0.141 A 
ATOM     19  N   UNL d   1      58.019  -1.472  30.104  0.00  0.00    -0.232 NA
ATOM     20  C   UNL d   1      58.475  -1.934  29.577  0.00  0.00     0.088 A 
ATOM     21  C   UNL d   1      58.415  -2.719  29.338  0.00  0.00     0.020 A 
ATOM     22  C   UNL d   1      59.082  -1.450  29.276  0.00  0.00     0.049 A 
ATOM     23  C   UNL d   1      58.958  -3.026  28.800  0.00  0.00     0.002 A 
ATOM     24  C   UNL d   1      59.565  -2.542  28.498  0.00  0.00     0.001 A 
ATOM     25  C   UNL d   1      59.625  -1.756  28.737  0.00  0.00     0.008 A 
ATOM     26  S   UNL d   1      58.998  -0.693  29.618  0.00  0.00    -0.060 SA
ENDBRANCH  17  18
ENDBRANCH  16  17
ENDBRANCH   2  16
TORSDOF 7
ENDMDL
MODEL 3
REMARK VINA RESULT:      -1.3      9.257     10.684
REMARK  7 active torsions:
REMARK  status: ('A' for Active; 'I' for Inactive)
REMARK    1  A    between atoms: N_9  and  C_1 
REMARK    2  A    between atoms: C_10  and  C_2 
REMARK    3  A    between atoms: C_5  and  S_14 
REMARK       I    between atoms: C_13  and  N_9 
REMARK    4  A    between atoms: O_18  and  C_10 
REMARK    5  A    between atoms: C_17  and  C_13 
REMARK    6  A    between atoms: S_14  and  C_17 
REMARK    7  A    between atoms: C_23  and  O_18 
ROOT
ATOM      1  N   UNL d   1      56.656  -0.486  32.686  0.00  0.00    -0.201 NA
ATOM      2  C   UNL d   1      56.668  -0.267  31.885  0.00  0.00     0.286 C 
ATOM      3  O   UNL d   1      56.041   0.191  31.578  0.00  0.00    -0.265 OA
ENDROOT
BRANCH   1   4
ATOM      4  C   UNL d   1      56.033  -0.255  33.174  0.00  0.00     0.119 A 
ATOM      5  C   UNL d   1      56.106   0.175  33.874  0.00  0.00     0.088 A 
ATOM      6  C   UNL d   1      55.346   0.281  34.178  0.00  0.00     0.013 A 
ATOM      7  C   UNL d   1      55.159   0.682  34.874  0.00  0.00     0.001 C 
ATOM      8  C   UNL d   1      54.808  -0.082  33.668  0.00  0.00     0.031 A 
ATOM      9  S   UNL d   1      55.239  -0.415  33.044  0.00  0.00    -0.068 SA
ATOM     10  C   UNL d   1      53.997  -0.107  33.763  0.00  0.00     0.007 C 
BRANCH   5  11
ATOM     11  C   UNL d   1      56.809   0.451  34.212  0.00  0.00     0.302 C 
ATOM     12  O   UNL d   1      57.430   0.678  33.732  0.00  0.00    -0.259 OA
BRANCH  11  13
ATOM     13  O   UNL d   1      56.872   0.491  35.033  0.00  0.00    -0.271 OA
BRANCH  13  14
ATOM     14  C   UNL d   1      57.600   0.627  35.392  0.00  0.00     0.126 C 
ATOM     15  C   UNL d   1      57.686   0.539  36.212  0.00  0.00     0.029 C 
ENDBRANCH  13  14
ENDBRANCH  11  13
ENDBRANCH   5  11
ENDBRANCH   1   4
BRANCH   2  16
ATOM     16  C   UNL d   1      57.291  -0.498  31.397  0.00  0.00     0.100 C 
BRANCH  16  17
ATOM     17  S   UNL d   1      57.442  -0.089  30.692  0.00  0.00    -0.056 SA
BRANCH  17  18
ATOM     18  C   UNL d   1      58.073  -0.322  30.200  0.00  0.00     0.141 A 
ATOM     19  N   UNL d   1      58.380  -1.090  30.145  0.00  0.00    -0.232 NA
ATOM     20  C   UNL d   1      59.004  -1.073  29.588  0.00  0.00     0.088 A 
ATOM     21  C   UNL d   1      59.509  -1.659  29.307  0.00  0.00     0.020 A 
ATOM     22  C   UNL d   1      59.073  -0.291  29.308  0.00  0.00     0.049 A 
ATOM     23  C   UNL d   1      60.083  -1.470  28.747  0.00  0.00     0.002 A 
ATOM     24  C   UNL d   1      60.152  -0.689  28.466  0.00  0.00     0.001 A 
ATOM     25  C   UNL d   1      59.646  -0.103  28.748  0.00  0.00     0.008 A 
ATOM     26  S   UNL d   1      58.491   0.169  29.692  0.00  0.00    -0.060 SA
ENDBRANCH  17  18
ENDBRANCH  16  17
ENDBRANCH   2  16
TORSDOF 7
ENDMDL
