MODEL 1
REMARK VINA RESULT:      -5.2      0.000      0.000
REMARK  4 active torsions:
REMARK  status: ('A' for Active; 'I' for Inactive)
REMARK    1  A    between atoms: C_7  and  N_1 
REMARK    2  A    between atoms: C_10  and  C_5 
REMARK    3  A    between atoms: N_6  and  C_9 
REMARK    4  A    between atoms: O_18  and  C_13 
ROOT
ATOM      1  N   UNL d   1      58.684  -0.268  29.716  0.00  0.00    -0.279 N 
ATOM      2  C   UNL d   1      58.190   0.301  29.381  0.00  0.00     0.206 A 
ATOM      3  N   UNL d   1      57.578   0.420  29.891  0.00  0.00    -0.217 NA
ATOM      4  C   UNL d   1      58.357  -0.487  30.435  0.00  0.00     0.101 A 
ATOM      5  C   UNL d   1      57.684  -0.056  30.521  0.00  0.00     0.101 A 
ATOM      6  S   UNL d   1      58.316   0.682  28.637  0.00  0.00    -0.038 SA
ENDROOT
BRANCH   5   7
ATOM      7  C   UNL d   1      57.227  -0.149  31.189  0.00  0.00     0.019 A 
ATOM      8  C   UNL d   1      56.976  -0.818  31.588  0.00  0.00     0.003 A 
ATOM      9  C   UNL d   1      56.500  -0.752  32.275  0.00  0.00     0.024 A 
ATOM     10  C   UNL d   1      56.283  -0.014  32.549  0.00  0.00     0.127 A 
ATOM     11  C   UNL d   1      56.542   0.670  32.137  0.00  0.00     0.024 A 
ATOM     12  C   UNL d   1      57.010   0.588  31.462  0.00  0.00     0.003 A 
BRANCH  10  13
ATOM     13  N   UNL d   1      55.814   0.054  33.226  0.00  0.00    -0.114 N 
ATOM     14  O   UNL d   1      55.103  -0.343  33.274  0.00  0.00    -0.532 OA
ATOM     15  O   UNL d   1      56.068   0.527  33.856  0.00  0.00    -0.532 OA
ENDBRANCH  10  13
ENDBRANCH   5   7
BRANCH   1  16
ATOM     16  C   UNL d   1      59.380  -0.522  29.325  0.00  0.00     0.088 A 
ATOM     17  C   UNL d   1      59.450  -1.300  29.056  0.00  0.00     0.110 A 
ATOM     18  C   UNL d   1      60.122  -1.538  28.679  0.00  0.00     0.026 A 
ATOM     19  C   UNL d   1      60.755  -1.012  28.555  0.00  0.00     0.002 A 
ATOM     20  C   UNL d   1      60.700  -0.230  28.818  0.00  0.00     0.002 A 
ATOM     21  C   UNL d   1      59.992   0.009  29.211  0.00  0.00     0.020 A 
BRANCH  17  22
ATOM     22  O   UNL d   1      58.791  -1.835  29.190  0.00  0.00    -0.327 OA
ATOM     23  C   UNL d   1      58.857  -2.620  28.901  0.00  0.00     0.181 C 
ENDBRANCH  17  22
ENDBRANCH   1  16
TORSDOF 4
ENDMDL
MODEL 2
REMARK VINA RESULT:      -5.2      1.839      5.088
REMARK  4 active torsions:
REMARK  status: ('A' for Active; 'I' for Inactive)
REMARK    1  A    between atoms: C_7  and  N_1 
REMARK    2  A    between atoms: C_10  and  C_5 
REMARK    3  A    between atoms: N_6  and  C_9 
REMARK    4  A    between atoms: O_18  and  C_13 
ROOT
ATOM      1  N   UNL d   1      56.294  -0.173  32.752  0.00  0.00    -0.279 N 
ATOM      2  C   UNL d   1      56.244  -0.968  32.537  0.00  0.00     0.206 A 
ATOM      3  N   UNL d   1      56.663  -1.061  31.855  0.00  0.00    -0.217 NA
ATOM      4  C   UNL d   1      56.750   0.207  32.187  0.00  0.00     0.101 A 
ATOM      5  C   UNL d   1      56.964  -0.353  31.651  0.00  0.00     0.101 A 
ATOM      6  S   UNL d   1      55.825  -1.565  32.964  0.00  0.00    -0.038 SA
ENDROOT
BRANCH   5   7
ATOM      7  C   UNL d   1      57.426  -0.145  31.013  0.00  0.00     0.019 A 
ATOM      8  C   UNL d   1      57.544   0.571  30.636  0.00  0.00     0.003 A 
ATOM      9  C   UNL d   1      58.062   0.627  29.978  0.00  0.00     0.024 A 
ATOM     10  C   UNL d   1      58.452  -0.038  29.710  0.00  0.00     0.127 A 
ATOM     11  C   UNL d   1      58.328  -0.771  30.099  0.00  0.00     0.024 A 
ATOM     12  C   UNL d   1      57.816  -0.811  30.746  0.00  0.00     0.003 A 
BRANCH  10  13
ATOM     13  N   UNL d   1      58.962   0.015  29.063  0.00  0.00    -0.114 N 
ATOM     14  O   UNL d   1      58.911  -0.528  28.455  0.00  0.00    -0.532 OA
ATOM     15  O   UNL d   1      59.526   0.621  29.032  0.00  0.00    -0.532 OA
ENDBRANCH  10  13
ENDBRANCH   5   7
BRANCH   1  16
ATOM     16  C   UNL d   1      55.916   0.114  33.442  0.00  0.00     0.088 A 
ATOM     17  C   UNL d   1      56.361   0.370  34.089  0.00  0.00     0.110 A 
ATOM     18  C   UNL d   1      55.991   0.646  34.751  0.00  0.00     0.026 A 
ATOM     19  C   UNL d   1      55.160   0.677  34.797  0.00  0.00     0.002 A 
ATOM     20  C   UNL d   1      54.701   0.424  34.157  0.00  0.00     0.002 A 
ATOM     21  C   UNL d   1      55.099   0.138  33.470  0.00  0.00     0.020 A 
BRANCH  17  22
ATOM     22  O   UNL d   1      57.217   0.333  34.030  0.00  0.00    -0.327 OA
ATOM     23  C   UNL d   1      57.669   0.682  34.646  0.00  0.00     0.181 C 
ENDBRANCH  17  22
ENDBRANCH   1  16
TORSDOF 4
ENDMDL
MODEL 3
REMARK VINA RESULT:      -4.8      1.361      1.834
REMARK  4 active torsions:
REMARK  status: ('A' for Active; 'I' for Inactive)
REMARK    1  A    between atoms: C_7  and  N_1 
REMARK    2  A    between atoms: C_10  and  C_5 
REMARK    3  A    between atoms: N_6  and  C_9 
REMARK    4  A    between atoms: O_18  and  C_13 
ROOT
ATOM      1  N   UNL d   1      58.131  -0.179  30.367  0.00  0.00    -0.279 N 
ATOM      2  C   UNL d   1      57.896  -0.970  30.379  0.00  0.00     0.206 A 
ATOM      3  N   UNL d   1      57.344  -1.050  30.960  0.00  0.00    -0.217 NA
ATOM      4  C   UNL d   1      57.709   0.212  30.952  0.00  0.00     0.101 A 
ATOM      5  C   UNL d   1      57.236  -0.338  31.299  0.00  0.00     0.101 A 
ATOM      6  S   UNL d   1      58.191  -1.575  29.867  0.00  0.00    -0.038 SA
ENDROOT
BRANCH   5   7
ATOM      7  C   UNL d   1      56.743  -0.119  31.910  0.00  0.00     0.019 A 
ATOM      8  C   UNL d   1      56.510   0.616  32.184  0.00  0.00     0.003 A 
ATOM      9  C   UNL d   1      55.986   0.681  32.836  0.00  0.00     0.024 A 
ATOM     10  C   UNL d   1      55.704   0.007  33.200  0.00  0.00     0.127 A 
ATOM     11  C   UNL d   1      55.945  -0.745  32.915  0.00  0.00     0.024 A 
ATOM     12  C   UNL d   1      56.462  -0.793  32.273  0.00  0.00     0.003 A 
BRANCH  10  13
ATOM     13  N   UNL d   1      55.187   0.069  33.841  0.00  0.00    -0.114 N 
ATOM     14  O   UNL d   1      54.390   0.192  33.716  0.00  0.00    -0.532 OA
ATOM     15  O   UNL d   1      55.481   0.006  34.613  0.00  0.00    -0.532 OA
ENDBRANCH  10  13
ENDBRANCH   5   7
BRANCH   1  16
ATOM     16  C   UNL d   1      58.705   0.095  29.823  0.00  0.00     0.088 A 
ATOM     17  C   UNL d   1      59.416   0.420  30.090  0.00  0.00     0.110 A 
ATOM     18  C   UNL d   1      59.964   0.682  29.559  0.00  0.00     0.026 A 
ATOM     19  C   UNL d   1      59.829   0.632  28.740  0.00  0.00     0.002 A 
ATOM     20  C   UNL d   1      59.121   0.309  28.457  0.00  0.00     0.002 A 
ATOM     21  C   UNL d   1      58.554   0.038  29.020  0.00  0.00     0.020 A 
BRANCH  17  22
ATOM     22  O   UNL d   1      59.545   0.466  30.937  0.00  0.00    -0.327 OA
ATOM     23  C   UNL d   1      60.325   0.615  31.208  0.00  0.00     0.181 C 
ENDBRANCH  17  22
ENDBRANCH   1  16
TORSDOF 4
ENDMDL
