MODEL 1
REMARK VINA RESULT:      -3.8      0.000      0.000
REMARK  3 active torsions:
REMARK  status: ('A' for Active; 'I' for Inactive)
REMARK    1  A    between atoms: N_3  and  C_1 
REMARK    2  A    between atoms: C_8  and  N_2 
REMARK       I    between atoms: C_4  and  N_3 
REMARK    3  A    between atoms: C_7  and  C_4 
ROOT
ATOM      1  C   UNL d   1      58.463  -0.242  29.981  0.00  0.00     0.185 A 
ATOM      2  N   UNL d   1      58.970  -0.629  29.436  0.00  0.00    -0.254 N 
ATOM      3  S   UNL d   1      58.588   0.564  29.906  0.00  0.00    -0.044 SA
ATOM      4  C   UNL d   1      59.390  -0.054  29.043  0.00  0.00     0.273 A 
ATOM      5  C   UNL d   1      59.157   0.682  29.329  0.00  0.00     0.099 A 
ATOM      6  O   UNL d   1      59.954  -0.192  28.455  0.00  0.00    -0.266 OA
ENDROOT
BRANCH   1   7
ATOM      7  N   UNL d   1      57.932  -0.609  30.501  0.00  0.00    -0.182 NA
ATOM      8  C   UNL d   1      57.559  -0.172  31.085  0.00  0.00     0.304 C 
ATOM      9  O   UNL d   1      57.711   0.640  31.157  0.00  0.00    -0.263 OA
BRANCH   8  10
ATOM     10  C   UNL d   1      57.027  -0.536  31.608  0.00  0.00     0.158 A 
ATOM     11  O   UNL d   1      56.787  -1.319  31.570  0.00  0.00    -0.300 OA
ATOM     12  C   UNL d   1      56.259  -1.443  32.194  0.00  0.00     0.123 A 
ATOM     13  C   UNL d   1      56.180  -0.739  32.607  0.00  0.00     0.029 A 
ATOM     14  C   UNL d   1      56.648  -0.174  32.256  0.00  0.00     0.032 A 
ENDBRANCH   8  10
ENDBRANCH   1   7
BRANCH   2  15
ATOM     15  C   UNL d   1      59.024  -1.447  29.327  0.00  0.00     0.069 A 
ATOM     16  C   UNL d   1      59.649  -1.853  29.679  0.00  0.00     0.018 A 
ATOM     17  C   UNL d   1      59.710  -2.675  29.573  0.00  0.00     0.002 A 
ATOM     18  C   UNL d   1      59.144  -3.077  29.118  0.00  0.00     0.000 A 
ATOM     19  C   UNL d   1      58.521  -2.662  28.769  0.00  0.00     0.002 A 
ATOM     20  C   UNL d   1      58.462  -1.849  28.874  0.00  0.00     0.018 A 
ENDBRANCH   2  15
TORSDOF 3
ENDMDL
MODEL 2
REMARK VINA RESULT:      -2.4      1.241      2.266
REMARK  3 active torsions:
REMARK  status: ('A' for Active; 'I' for Inactive)
REMARK    1  A    between atoms: N_3  and  C_1 
REMARK    2  A    between atoms: C_8  and  N_2 
REMARK       I    between atoms: C_4  and  N_3 
REMARK    3  A    between atoms: C_7  and  C_4 
ROOT
ATOM      1  C   UNL d   1      58.720  -1.322  29.760  0.00  0.00     0.185 A 
ATOM      2  N   UNL d   1      59.436  -1.295  29.325  0.00  0.00    -0.254 N 
ATOM      3  S   UNL d   1      58.381  -2.056  29.636  0.00  0.00    -0.044 SA
ATOM      4  C   UNL d   1      59.517  -2.011  28.946  0.00  0.00     0.273 A 
ATOM      5  C   UNL d   1      58.870  -2.482  29.136  0.00  0.00     0.099 A 
ATOM      6  O   UNL d   1      60.147  -2.223  28.455  0.00  0.00    -0.266 OA
ENDROOT
BRANCH   1   7
ATOM      7  N   UNL d   1      58.412  -0.713  30.232  0.00  0.00    -0.182 NA
ATOM      8  C   UNL d   1      57.751  -0.847  30.697  0.00  0.00     0.304 C 
ATOM      9  O   UNL d   1      57.388  -1.593  30.698  0.00  0.00    -0.263 OA
BRANCH   8  10
ATOM     10  C   UNL d   1      57.440  -0.241  31.170  0.00  0.00     0.158 A 
ATOM     11  O   UNL d   1      56.705   0.109  31.068  0.00  0.00    -0.300 OA
ATOM     12  C   UNL d   1      56.622   0.682  31.659  0.00  0.00     0.123 A 
ATOM     13  C   UNL d   1      57.303   0.678  32.116  0.00  0.00     0.029 A 
ATOM     14  C   UNL d   1      57.812   0.115  31.825  0.00  0.00     0.032 A 
ENDBRANCH   8  10
ENDBRANCH   1   7
BRANCH   2  15
ATOM     15  C   UNL d   1      59.957  -0.654  29.293  0.00  0.00     0.069 A 
ATOM     16  C   UNL d   1      59.840  -0.077  28.715  0.00  0.00     0.018 A 
ATOM     17  C   UNL d   1      60.360   0.571  28.677  0.00  0.00     0.002 A 
ATOM     18  C   UNL d   1      60.987   0.630  29.218  0.00  0.00     0.000 A 
ATOM     19  C   UNL d   1      61.096   0.049  29.793  0.00  0.00     0.002 A 
ATOM     20  C   UNL d   1      60.582  -0.591  29.829  0.00  0.00     0.018 A 
ENDBRANCH   2  15
TORSDOF 3
ENDMDL
MODEL 3
REMARK VINA RESULT:      -1.4      1.140      1.402
REMARK  3 active torsions:
REMARK  status: ('A' for Active; 'I' for Inactive)
REMARK    1  A    between atoms: N_3  and  C_1 
REMARK    2  A    between atoms: C_8  and  N_2 
REMARK       I    between atoms: C_4  and  N_3 
REMARK    3  A    between atoms: C_7  and  C_4 
ROOT
ATOM      1  C   UNL d   1      59.434   0.227  30.601  0.00  0.00     0.185 A 
ATOM      2  N   UNL d   1      59.776  -0.231  29.988  0.00  0.00    -0.254 N 
ATOM      3  S   UNL d   1      60.028   0.682  30.932  0.00  0.00    -0.044 SA
ATOM      4  C   UNL d   1      60.567  -0.046  29.959  0.00  0.00     0.273 A 
ATOM      5  C   UNL d   1      60.726   0.516  30.539  0.00  0.00     0.099 A 
ATOM      6  O   UNL d   1      61.115  -0.372  29.433  0.00  0.00    -0.266 OA
ENDROOT
BRANCH   1   7
ATOM      7  N   UNL d   1      58.637   0.220  30.831  0.00  0.00    -0.182 NA
ATOM      8  C   UNL d   1      58.425   0.445  31.589  0.00  0.00     0.304 C 
ATOM      9  O   UNL d   1      59.007   0.681  32.131  0.00  0.00    -0.263 OA
BRANCH   8  10
ATOM     10  C   UNL d   1      57.629   0.439  31.823  0.00  0.00     0.158 A 
ATOM     11  O   UNL d   1      56.991   0.607  31.336  0.00  0.00    -0.300 OA
ATOM     12  C   UNL d   1      56.307   0.536  31.794  0.00  0.00     0.123 A 
ATOM     13  C   UNL d   1      56.529   0.327  32.555  0.00  0.00     0.029 A 
ATOM     14  C   UNL d   1      57.339   0.265  32.585  0.00  0.00     0.032 A 
ENDBRANCH   8  10
ENDBRANCH   1   7
BRANCH   2  15
ATOM     15  C   UNL d   1      59.373  -0.770  29.508  0.00  0.00     0.069 A 
ATOM     16  C   UNL d   1      59.507  -1.576  29.616  0.00  0.00     0.018 A 
ATOM     17  C   UNL d   1      59.105  -2.123  29.137  0.00  0.00     0.002 A 
ATOM     18  C   UNL d   1      58.576  -1.855  28.557  0.00  0.00     0.000 A 
ATOM     19  C   UNL d   1      58.447  -1.046  28.455  0.00  0.00     0.002 A 
ATOM     20  C   UNL d   1      58.845  -0.506  28.930  0.00  0.00     0.018 A 
ENDBRANCH   2  15
TORSDOF 3
ENDMDL
