MODEL 1
REMARK VINA RESULT:      38.8      0.000      0.000
REMARK  2 active torsions:
REMARK  status: ('A' for Active; 'I' for Inactive)
REMARK    1  A    between atoms: C_5  and  C_1 
REMARK    2  A    between atoms: C_7  and  C_3 
REMARK       I    between atoms: N_8  and  C_7 
ROOT
ATOM      1  C   UNL d   1     -54.758-101.698 -40.902  0.00  0.00     0.086 A 
ATOM      2  S   UNL d   1     -54.795-101.432 -40.118  0.00  0.00    -0.080 SA
ATOM      3  C   UNL d   1     -54.801-102.098 -39.628  0.00  0.00     0.053 A 
ATOM      4  C   UNL d   1     -54.741-102.523 -40.893  0.00  0.00     0.012 A 
ATOM      5  C   UNL d   1     -54.768-102.769 -40.103  0.00  0.00     0.009 A 
ENDROOT
BRANCH   3   6
ATOM      6  C   UNL d   1     -54.834-102.090 -38.804  0.00  0.00     0.117 A 
ATOM      7  N   UNL d   1     -54.988-102.742 -38.324  0.00  0.00    -0.238 NA
ATOM      8  C   UNL d   1     -54.967-102.481 -37.537  0.00  0.00     0.088 A 
ATOM      9  C   UNL d   1     -55.079-102.879 -36.825  0.00  0.00     0.020 A 
ATOM     10  C   UNL d   1     -54.802-101.673 -37.538  0.00  0.00     0.049 A 
ATOM     11  C   UNL d   1     -55.025-102.467 -36.118  0.00  0.00     0.002 A 
ATOM     12  C   UNL d   1     -54.859-101.659 -36.119  0.00  0.00     0.001 A 
ATOM     13  C   UNL d   1     -54.748-101.262 -36.827  0.00  0.00     0.008 A 
ATOM     14  S   UNL d   1     -54.719-101.432 -38.326  0.00  0.00    -0.066 SA
ENDBRANCH   3   6
BRANCH   1  15
ATOM     15  C   UNL d   1     -54.741-101.217 -41.574  0.00  0.00     0.271 C 
ATOM     16  N   UNL d   1     -54.743-101.562 -42.320  0.00  0.00    -0.267 N 
ATOM     17  C   UNL d   1     -54.726-101.081 -42.987  0.00  0.00     0.110 A 
ATOM     18  C   UNL d   1     -54.762-102.375 -42.396  0.00  0.00     0.110 A 
ATOM     19  C   UNL d   1     -54.729-101.418 -43.734  0.00  0.00     0.142 A 
ATOM     20  O   UNL d   1     -54.748-102.239 -43.814  0.00  0.00    -0.300 OA
ATOM     21  C   UNL d   1     -54.765-102.720 -43.146  0.00  0.00     0.142 A 
ATOM     22  O   UNL d   1     -54.721-100.397 -41.494  0.00  0.00    -0.266 OA
ENDBRANCH   1  15
TORSDOF 2
ENDMDL
