MODEL 1
REMARK VINA RESULT:      13.8      0.000      0.000
REMARK  1 active torsions:
REMARK  status: ('A' for Active; 'I' for Inactive)
REMARK    1  A    between atoms: C_6  and  C_2 
ROOT
ATOM      1  N   UNL d   1      46.034 -17.506  44.945  0.00  0.00    -0.220 NA
ATOM      2  C   UNL d   1      45.955 -16.926  44.381  0.00  0.00     0.182 A 
ATOM      3  O   UNL d   1      46.092 -17.188  43.659  0.00  0.00    -0.288 OA
ATOM      4  C   UNL d   1      46.238 -18.179  44.514  0.00  0.00     0.106 A 
ATOM      5  C   UNL d   1      46.274 -17.981  43.714  0.00  0.00     0.119 A 
ATOM      6  C   UNL d   1      46.394 -18.948  44.771  0.00  0.00     0.021 A 
ATOM      7  C   UNL d   1      46.465 -18.553  43.171  0.00  0.00     0.026 A 
ATOM      8  C   UNL d   1      46.627 -19.334  43.396  0.00  0.00     0.002 A 
ATOM      9  C   UNL d   1      46.591 -19.539  44.224  0.00  0.00     0.002 A 
ENDROOT
BRANCH   2  10
ATOM     10  C   UNL d   1      45.754 -16.142  44.525  0.00  0.00     0.041 A 
ATOM     11  C   UNL d   1      46.308 -15.557  44.388  0.00  0.00     0.005 A 
ATOM     12  C   UNL d   1      46.098 -14.757  44.538  0.00  0.00     0.021 A 
ATOM     13  C   UNL d   1      45.355 -14.566  44.815  0.00  0.00     0.103 A 
ATOM     14  C   UNL d   1      44.793 -15.173  44.953  0.00  0.00     0.021 A 
ATOM     15  N   UNL d   1      45.193 -13.783  44.946  0.00  0.00    -0.148 N 
ATOM     16  C   UNL d   1      45.008 -15.958  44.803  0.00  0.00     0.005 A 
ENDBRANCH   2  10
TORSDOF 1
ENDMDL
MODEL 2
REMARK VINA RESULT:      14.3      0.958      3.768
REMARK  1 active torsions:
REMARK  status: ('A' for Active; 'I' for Inactive)
REMARK    1  A    between atoms: C_6  and  C_2 
ROOT
ATOM      1  N   UNL d   1      45.137 -16.156  44.681  0.00  0.00    -0.220 NA
ATOM      2  C   UNL d   1      45.841 -16.425  44.374  0.00  0.00     0.182 A 
ATOM      3  O   UNL d   1      46.338 -15.847  44.211  0.00  0.00    -0.288 OA
ATOM      4  C   UNL d   1      45.227 -15.337  44.701  0.00  0.00     0.106 A 
ATOM      5  C   UNL d   1      45.974 -15.144  44.408  0.00  0.00     0.119 A 
ATOM      6  C   UNL d   1      44.704 -14.750  44.955  0.00  0.00     0.021 A 
ATOM      7  C   UNL d   1      46.198 -14.366  44.370  0.00  0.00     0.026 A 
ATOM      8  C   UNL d   1      45.698 -13.753  44.617  0.00  0.00     0.002 A 
ATOM      9  C   UNL d   1      44.924 -13.952  44.920  0.00  0.00     0.002 A 
ENDROOT
BRANCH   2  10
ATOM     10  C   UNL d   1      46.034 -17.213  44.241  0.00  0.00     0.041 A 
ATOM     11  C   UNL d   1      46.147 -17.709  44.879  0.00  0.00     0.005 A 
ATOM     12  C   UNL d   1      46.345 -18.513  44.737  0.00  0.00     0.021 A 
ATOM     13  C   UNL d   1      46.423 -18.796  43.977  0.00  0.00     0.103 A 
ATOM     14  C   UNL d   1      46.306 -18.278  43.327  0.00  0.00     0.021 A 
ATOM     15  N   UNL d   1      46.615 -19.577  43.883  0.00  0.00    -0.148 N 
ATOM     16  C   UNL d   1      46.111 -17.489  43.476  0.00  0.00     0.005 A 
ENDBRANCH   2  10
TORSDOF 1
ENDMDL
