MODEL 1
REMARK VINA RESULT:      -8.1      0.000      0.000
REMARK  5 active torsions:
REMARK  status: ('A' for Active; 'I' for Inactive)
REMARK    1  A    between atoms: C_9  and  N_2 
REMARK    2  A    between atoms: C_8  and  O_11 
REMARK    3  A    between atoms: C_12  and  C_9 
REMARK    4  A    between atoms: O_11  and  C_15 
REMARK    5  A    between atoms: C_15  and  C_12 
ROOT
ATOM      1  C   UNL d   1      52.218  33.516  52.736  0.00  0.00     0.087 C 
ENDROOT
BRANCH   1   2
ATOM      2  N   UNL d   1      52.759  33.135  53.232  0.00  0.00    -0.251 N 
ATOM      3  C   UNL d   1      52.894  32.339  53.043  0.00  0.00     0.378 A 
ATOM      4  O   UNL d   1      53.439  32.024  53.573  0.00  0.00    -0.258 OA
ATOM      5  O   UNL d   1      52.535  31.927  52.419  0.00  0.00    -0.237 OA
ATOM      6  C   UNL d   1      53.650  32.641  54.106  0.00  0.00     0.121 A 
ATOM      7  C   UNL d   1      54.167  32.658  54.749  0.00  0.00     0.026 A 
ATOM      8  C   UNL d   1      53.232  33.314  53.892  0.00  0.00     0.092 A 
ATOM      9  C   UNL d   1      54.263  33.360  55.179  0.00  0.00     0.002 A 
ATOM     10  C   UNL d   1      53.845  34.034  54.965  0.00  0.00     0.002 A 
ATOM     11  C   UNL d   1      53.326  34.015  54.319  0.00  0.00     0.020 A 
ENDBRANCH   1   2
BRANCH   1  12
ATOM     12  C   UNL d   1      51.488  33.741  53.027  0.00  0.00     0.046 C 
BRANCH  12  13
ATOM     13  C   UNL d   1      50.934  34.087  52.518  0.00  0.00     0.124 C 
BRANCH  13  14
ATOM     14  O   UNL d   1      50.250  34.426  52.831  0.00  0.00    -0.304 OA
BRANCH  14  15
ATOM     15  C   UNL d   1      49.620  34.621  52.326  0.00  0.00     0.111 A 
ATOM     16  C   UNL d   1      49.010  35.105  52.594  0.00  0.00     0.080 A 
ATOM     17 CL   UNL d   1      49.016  35.402  53.363  0.00  0.00    -0.080 Cl
ATOM     18  C   UNL d   1      48.386  35.297  52.091  0.00  0.00     0.013 A 
ATOM     19  C   UNL d   1      48.373  35.007  51.327  0.00  0.00     0.001 A 
ATOM     20  C   UNL d   1      48.983  34.519  51.052  0.00  0.00     0.002 A 
ATOM     21  C   UNL d   1      49.607  34.328  51.555  0.00  0.00     0.026 A 
ENDBRANCH  14  15
ENDBRANCH  13  14
ENDBRANCH  12  13
ENDBRANCH   1  12
TORSDOF 5
ENDMDL
MODEL 2
REMARK VINA RESULT:      -7.6      2.989      4.669
REMARK  5 active torsions:
REMARK  status: ('A' for Active; 'I' for Inactive)
REMARK    1  A    between atoms: C_9  and  N_2 
REMARK    2  A    between atoms: C_8  and  O_11 
REMARK    3  A    between atoms: C_12  and  C_9 
REMARK    4  A    between atoms: O_11  and  C_15 
REMARK    5  A    between atoms: C_15  and  C_12 
ROOT
ATOM      1  C   UNL d   1      54.355  32.934  54.189  0.00  0.00     0.087 C 
ENDROOT
BRANCH   1   2
ATOM      2  N   UNL d   1      54.053  33.677  54.389  0.00  0.00    -0.251 N 
ATOM      3  C   UNL d   1      54.444  34.046  55.021  0.00  0.00     0.378 A 
ATOM      4  O   UNL d   1      54.094  34.776  55.166  0.00  0.00    -0.258 OA
ATOM      5  O   UNL d   1      55.086  33.726  55.439  0.00  0.00    -0.237 OA
ATOM      6  C   UNL d   1      53.469  34.866  54.610  0.00  0.00     0.121 A 
ATOM      7  C   UNL d   1      52.927  35.476  54.485  0.00  0.00     0.026 A 
ATOM      8  C   UNL d   1      53.449  34.193  54.140  0.00  0.00     0.092 A 
ATOM      9  C   UNL d   1      52.362  35.406  53.882  0.00  0.00     0.002 A 
ATOM     10  C   UNL d   1      52.343  34.733  53.412  0.00  0.00     0.002 A 
ATOM     11  C   UNL d   1      52.888  34.120  53.538  0.00  0.00     0.020 A 
ENDBRANCH   1   2
BRANCH   1  12
ATOM     12  C   UNL d   1      53.980  32.258  54.452  0.00  0.00     0.046 C 
BRANCH  12  13
ATOM     13  C   UNL d   1      53.945  31.592  53.961  0.00  0.00     0.124 C 
BRANCH  13  14
ATOM     14  O   UNL d   1      53.717  30.864  54.277  0.00  0.00    -0.304 OA
BRANCH  14  15
ATOM     15  C   UNL d   1      53.328  30.310  53.796  0.00  0.00     0.111 A 
ATOM     16  C   UNL d   1      53.169  29.554  54.080  0.00  0.00     0.080 A 
ATOM     17 CL   UNL d   1      53.394  29.337  54.844  0.00  0.00    -0.080 Cl
ATOM     18  C   UNL d   1      52.783  29.007  53.601  0.00  0.00     0.013 A 
ATOM     19  C   UNL d   1      52.557  29.215  52.844  0.00  0.00     0.001 A 
ATOM     20  C   UNL d   1      52.713  29.974  52.551  0.00  0.00     0.002 A 
ATOM     21  C   UNL d   1      53.100  30.521  53.032  0.00  0.00     0.026 A 
ENDBRANCH  14  15
ENDBRANCH  13  14
ENDBRANCH  12  13
ENDBRANCH   1  12
TORSDOF 5
ENDMDL
MODEL 3
REMARK VINA RESULT:      -7.1      2.448      4.404
REMARK  5 active torsions:
REMARK  status: ('A' for Active; 'I' for Inactive)
REMARK    1  A    between atoms: C_9  and  N_2 
REMARK    2  A    between atoms: C_8  and  O_11 
REMARK    3  A    between atoms: C_12  and  C_9 
REMARK    4  A    between atoms: O_11  and  C_15 
REMARK    5  A    between atoms: C_15  and  C_12 
ROOT
ATOM      1  C   UNL d   1      51.881  33.022  53.075  0.00  0.00     0.087 C 
ENDROOT
BRANCH   1   2
ATOM      2  N   UNL d   1      52.119  33.790  53.269  0.00  0.00    -0.251 N 
ATOM      3  C   UNL d   1      51.844  34.375  52.751  0.00  0.00     0.378 A 
ATOM      4  O   UNL d   1      52.116  35.109  53.001  0.00  0.00    -0.258 OA
ATOM      5  O   UNL d   1      51.367  34.238  52.085  0.00  0.00    -0.237 OA
ATOM      6  C   UNL d   1      52.575  34.978  53.695  0.00  0.00     0.121 A 
ATOM      7  C   UNL d   1      52.985  35.497  54.189  0.00  0.00     0.026 A 
ATOM      8  C   UNL d   1      52.573  34.172  53.853  0.00  0.00     0.092 A 
ATOM      9  C   UNL d   1      53.396  35.201  54.845  0.00  0.00     0.002 A 
ATOM     10  C   UNL d   1      53.393  34.395  55.003  0.00  0.00     0.002 A 
ATOM     11  C   UNL d   1      52.981  33.874  54.506  0.00  0.00     0.020 A 
ENDBRANCH   1   2
BRANCH   1  12
ATOM     12  C   UNL d   1      52.422  32.494  52.764  0.00  0.00     0.046 C 
BRANCH  12  13
ATOM     13  C   UNL d   1      52.306  31.681  52.868  0.00  0.00     0.124 C 
BRANCH  13  14
ATOM     14  O   UNL d   1      52.935  31.161  52.746  0.00  0.00    -0.304 OA
BRANCH  14  15
ATOM     15  C   UNL d   1      52.973  30.452  53.177  0.00  0.00     0.111 A 
ATOM     16  C   UNL d   1      53.684  30.211  53.516  0.00  0.00     0.080 A 
ATOM     17 CL   UNL d   1      54.366  30.668  53.433  0.00  0.00    -0.080 Cl
ATOM     18  C   UNL d   1      53.718  29.508  53.943  0.00  0.00     0.013 A 
ATOM     19  C   UNL d   1      53.047  29.050  54.031  0.00  0.00     0.001 A 
ATOM     20  C   UNL d   1      52.329  29.286  53.693  0.00  0.00     0.002 A 
ATOM     21  C   UNL d   1      52.296  29.990  53.266  0.00  0.00     0.026 A 
ENDBRANCH  14  15
ENDBRANCH  13  14
ENDBRANCH  12  13
ENDBRANCH   1  12
TORSDOF 5
ENDMDL
MODEL 4
REMARK VINA RESULT:      -7.1      1.806      5.116
REMARK  5 active torsions:
REMARK  status: ('A' for Active; 'I' for Inactive)
REMARK    1  A    between atoms: C_9  and  N_2 
REMARK    2  A    between atoms: C_8  and  O_11 
REMARK    3  A    between atoms: C_12  and  C_9 
REMARK    4  A    between atoms: O_11  and  C_15 
REMARK    5  A    between atoms: C_15  and  C_12 
ROOT
ATOM      1  C   UNL d   1      49.390  34.453  52.328  0.00  0.00     0.087 C 
ENDROOT
BRANCH   1   2
ATOM      2  N   UNL d   1      48.766  34.976  52.184  0.00  0.00    -0.251 N 
ATOM      3  C   UNL d   1      48.472  34.954  51.409  0.00  0.00     0.378 A 
ATOM      4  O   UNL d   1      47.857  35.496  51.337  0.00  0.00    -0.258 OA
ATOM      5  O   UNL d   1      48.756  34.462  50.804  0.00  0.00    -0.237 OA
ATOM      6  C   UNL d   1      47.765  35.866  52.088  0.00  0.00     0.121 A 
ATOM      7  C   UNL d   1      47.244  36.448  52.353  0.00  0.00     0.026 A 
ATOM      8  C   UNL d   1      48.322  35.545  52.599  0.00  0.00     0.092 A 
ATOM      9  C   UNL d   1      47.285  36.708  53.139  0.00  0.00     0.002 A 
ATOM     10  C   UNL d   1      47.842  36.387  53.650  0.00  0.00     0.002 A 
ATOM     11  C   UNL d   1      48.365  35.802  53.383  0.00  0.00     0.020 A 
ENDBRANCH   1   2
BRANCH   1  12
ATOM     12  C   UNL d   1      50.127  34.744  52.526  0.00  0.00     0.046 C 
BRANCH  12  13
ATOM     13  C   UNL d   1      50.736  34.218  52.720  0.00  0.00     0.124 C 
BRANCH  13  14
ATOM     14  O   UNL d   1      51.475  34.512  52.939  0.00  0.00    -0.304 OA
BRANCH  14  15
ATOM     15  C   UNL d   1      52.084  33.986  53.144  0.00  0.00     0.111 A 
ATOM     16  C   UNL d   1      52.756  34.260  53.532  0.00  0.00     0.080 A 
ATOM     17 CL   UNL d   1      52.834  35.059  53.723  0.00  0.00    -0.080 Cl
ATOM     18  C   UNL d   1      53.358  33.735  53.734  0.00  0.00     0.013 A 
ATOM     19  C   UNL d   1      53.288  32.943  53.548  0.00  0.00     0.001 A 
ATOM     20  C   UNL d   1      52.615  32.659  53.157  0.00  0.00     0.002 A 
ATOM     21  C   UNL d   1      52.014  33.185  52.956  0.00  0.00     0.026 A 
ENDBRANCH  14  15
ENDBRANCH  13  14
ENDBRANCH  12  13
ENDBRANCH   1  12
TORSDOF 5
ENDMDL
MODEL 5
REMARK VINA RESULT:      -6.7      2.889      3.965
REMARK  5 active torsions:
REMARK  status: ('A' for Active; 'I' for Inactive)
REMARK    1  A    between atoms: C_9  and  N_2 
REMARK    2  A    between atoms: C_8  and  O_11 
REMARK    3  A    between atoms: C_12  and  C_9 
REMARK    4  A    between atoms: O_11  and  C_15 
REMARK    5  A    between atoms: C_15  and  C_12 
ROOT
ATOM      1  C   UNL d   1      52.757  31.313  53.322  0.00  0.00     0.087 C 
ENDROOT
BRANCH   1   2
ATOM      2  N   UNL d   1      52.940  30.513  53.417  0.00  0.00    -0.251 N 
ATOM      3  C   UNL d   1      53.008  30.090  52.707  0.00  0.00     0.378 A 
ATOM      4  O   UNL d   1      53.190  29.306  52.875  0.00  0.00    -0.258 OA
ATOM      5  O   UNL d   1      52.907  30.411  51.948  0.00  0.00    -0.237 OA
ATOM      6  C   UNL d   1      53.237  29.237  53.713  0.00  0.00     0.121 A 
ATOM      7  C   UNL d   1      53.400  28.594  54.204  0.00  0.00     0.026 A 
ATOM      8  C   UNL d   1      53.084  29.976  54.037  0.00  0.00     0.092 A 
ATOM      9  C   UNL d   1      53.408  28.697  55.026  0.00  0.00     0.002 A 
ATOM     10  C   UNL d   1      53.255  29.436  55.350  0.00  0.00     0.002 A 
ATOM     11  C   UNL d   1      53.092  30.082  54.856  0.00  0.00     0.020 A 
ENDBRANCH   1   2
BRANCH   1  12
ATOM     12  C   UNL d   1      53.340  31.878  53.417  0.00  0.00     0.046 C 
BRANCH  12  13
ATOM     13  C   UNL d   1      53.131  32.677  53.470  0.00  0.00     0.124 C 
BRANCH  13  14
ATOM     14  O   UNL d   1      53.647  33.211  53.829  0.00  0.00    -0.304 OA
BRANCH  14  15
ATOM     15  C   UNL d   1      53.390  33.982  53.998  0.00  0.00     0.111 A 
ATOM     16  C   UNL d   1      53.653  34.367  54.677  0.00  0.00     0.080 A 
ATOM     17 CL   UNL d   1      54.175  33.994  55.196  0.00  0.00    -0.080 Cl
ATOM     18  C   UNL d   1      53.396  35.132  54.842  0.00  0.00     0.013 A 
ATOM     19  C   UNL d   1      52.879  35.508  54.333  0.00  0.00     0.001 A 
ATOM     20  C   UNL d   1      52.610  35.128  53.649  0.00  0.00     0.002 A 
ATOM     21  C   UNL d   1      52.868  34.363  53.485  0.00  0.00     0.026 A 
ENDBRANCH  14  15
ENDBRANCH  13  14
ENDBRANCH  12  13
ENDBRANCH   1  12
TORSDOF 5
ENDMDL
MODEL 6
REMARK VINA RESULT:      -6.2      2.221      5.729
REMARK  5 active torsions:
REMARK  status: ('A' for Active; 'I' for Inactive)
REMARK    1  A    between atoms: C_9  and  N_2 
REMARK    2  A    between atoms: C_8  and  O_11 
REMARK    3  A    between atoms: C_12  and  C_9 
REMARK    4  A    between atoms: O_11  and  C_15 
REMARK    5  A    between atoms: C_15  and  C_12 
ROOT
ATOM      1  C   UNL d   1      48.757  35.787  52.938  0.00  0.00     0.087 C 
ENDROOT
BRANCH   1   2
ATOM      2  N   UNL d   1      47.939  35.906  52.908  0.00  0.00    -0.251 N 
ATOM      3  C   UNL d   1      47.607  36.183  53.615  0.00  0.00     0.378 A 
ATOM      4  O   UNL d   1      46.797  36.278  53.515  0.00  0.00    -0.258 OA
ATOM      5  O   UNL d   1      48.029  36.337  54.313  0.00  0.00    -0.237 OA
ATOM      6  C   UNL d   1      46.618  36.055  52.723  0.00  0.00     0.121 A 
ATOM      7  C   UNL d   1      45.907  36.034  52.305  0.00  0.00     0.026 A 
ATOM      8  C   UNL d   1      47.319  35.830  52.359  0.00  0.00     0.092 A 
ATOM      9  C   UNL d   1      45.903  35.785  51.514  0.00  0.00     0.002 A 
ATOM     10  C   UNL d   1      46.603  35.559  51.150  0.00  0.00     0.002 A 
ATOM     11  C   UNL d   1      47.318  35.580  51.571  0.00  0.00     0.020 A 
ENDBRANCH   1   2
BRANCH   1  12
ATOM     12  C   UNL d   1      49.059  35.028  52.930  0.00  0.00     0.046 C 
BRANCH  12  13
ATOM     13  C   UNL d   1      49.879  34.914  52.940  0.00  0.00     0.124 C 
BRANCH  13  14
ATOM     14  O   UNL d   1      50.183  34.147  52.944  0.00  0.00    -0.304 OA
BRANCH  14  15
ATOM     15  C   UNL d   1      51.000  34.028  53.029  0.00  0.00     0.111 A 
ATOM     16  C   UNL d   1      51.295  33.281  53.209  0.00  0.00     0.080 A 
ATOM     17 CL   UNL d   1      50.783  32.641  53.308  0.00  0.00    -0.080 Cl
ATOM     18  C   UNL d   1      52.106  33.167  53.293  0.00  0.00     0.013 A 
ATOM     19  C   UNL d   1      52.619  33.796  53.197  0.00  0.00     0.001 A 
ATOM     20  C   UNL d   1      52.330  34.550  53.015  0.00  0.00     0.002 A 
ATOM     21  C   UNL d   1      51.518  34.663  52.932  0.00  0.00     0.026 A 
ENDBRANCH  14  15
ENDBRANCH  13  14
ENDBRANCH  12  13
ENDBRANCH   1  12
TORSDOF 5
ENDMDL
MODEL 7
REMARK VINA RESULT:      -5.5     10.630     11.115
REMARK  5 active torsions:
REMARK  status: ('A' for Active; 'I' for Inactive)
REMARK    1  A    between atoms: C_9  and  N_2 
REMARK    2  A    between atoms: C_8  and  O_11 
REMARK    3  A    between atoms: C_12  and  C_9 
REMARK    4  A    between atoms: O_11  and  C_15 
REMARK    5  A    between atoms: C_15  and  C_12 
ROOT
ATOM      1  C   UNL d   1      44.972  30.294  60.686  0.00  0.00     0.087 C 
ENDROOT
BRANCH   1   2
ATOM      2  N   UNL d   1      44.753  30.200  61.477  0.00  0.00    -0.251 N 
ATOM      3  C   UNL d   1      44.520  30.901  61.854  0.00  0.00     0.378 A 
ATOM      4  O   UNL d   1      44.317  30.736  62.633  0.00  0.00    -0.258 OA
ATOM      5  O   UNL d   1      44.496  31.651  61.497  0.00  0.00    -0.237 OA
ATOM      6  C   UNL d   1      44.426  29.909  62.746  0.00  0.00     0.121 A 
ATOM      7  C   UNL d   1      44.314  29.425  63.406  0.00  0.00     0.026 A 
ATOM      8  C   UNL d   1      44.692  29.589  62.038  0.00  0.00     0.092 A 
ATOM      9  C   UNL d   1      44.471  28.613  63.349  0.00  0.00     0.002 A 
ATOM     10  C   UNL d   1      44.737  28.293  62.641  0.00  0.00     0.002 A 
ATOM     11  C   UNL d   1      44.849  28.780  61.979  0.00  0.00     0.020 A 
ENDBRANCH   1   2
BRANCH   1  12
ATOM     12  C   UNL d   1      44.701  29.768  60.123  0.00  0.00     0.046 C 
BRANCH  12  13
ATOM     13  C   UNL d   1      44.821  29.930  59.320  0.00  0.00     0.124 C 
BRANCH  13  14
ATOM     14  O   UNL d   1      45.116  29.339  58.825  0.00  0.00    -0.304 OA
BRANCH  14  15
ATOM     15  C   UNL d   1      45.006  29.396  58.004  0.00  0.00     0.111 A 
ATOM     16  C   UNL d   1      45.144  28.744  57.521  0.00  0.00     0.080 A 
ATOM     17 CL   UNL d   1      45.393  28.027  57.844  0.00  0.00    -0.080 Cl
ATOM     18  C   UNL d   1      45.033  28.805  56.707  0.00  0.00     0.013 A 
ATOM     19  C   UNL d   1      44.787  29.511  56.379  0.00  0.00     0.001 A 
ATOM     20  C   UNL d   1      44.646  30.171  56.859  0.00  0.00     0.002 A 
ATOM     21  C   UNL d   1      44.757  30.110  57.673  0.00  0.00     0.026 A 
ENDBRANCH  14  15
ENDBRANCH  13  14
ENDBRANCH  12  13
ENDBRANCH   1  12
TORSDOF 5
ENDMDL
