MODEL 1
REMARK VINA RESULT:      14.4      0.000      0.000
REMARK  3 active torsions:
REMARK  status: ('A' for Active; 'I' for Inactive)
REMARK    1  A    between atoms: C_6  and  C_1 
REMARK    2  A    between atoms: O_9  and  C_6 
REMARK    3  A    between atoms: C_12  and  O_9 
ROOT
ATOM      1  C   UNL d   1     -57.243 -98.801 -44.513  0.00  0.00     0.182 A 
ATOM      2  C   UNL d   1     -57.903 -98.795 -45.029  0.00  0.00     0.133 A 
ATOM      3  O   UNL d   1     -57.531 -98.795 -43.731  0.00  0.00    -0.300 OA
ATOM      4  C   UNL d   1     -58.590 -98.787 -44.564  0.00  0.00     0.044 A 
ATOM      5  C   UNL d   1     -58.365 -98.786 -43.761  0.00  0.00     0.102 A 
ATOM      6  N   UNL d   1     -57.876 -98.798 -45.854  0.00  0.00    -0.146 N 
ATOM      7  C   UNL d   1     -59.385 -98.779 -44.755  0.00  0.00     0.004 A 
ATOM      8  C   UNL d   1     -58.942 -98.778 -43.179  0.00  0.00     0.025 A 
ATOM      9  C   UNL d   1     -59.960 -98.771 -44.170  0.00  0.00     0.000 A 
ATOM     10  C   UNL d   1     -59.736 -98.771 -43.372  0.00  0.00     0.002 A 
ENDROOT
BRANCH   1  11
ATOM     11  C   UNL d   1     -56.450 -98.810 -44.736  0.00  0.00     0.325 C 
ATOM     12  O   UNL d   1     -56.253 -98.764 -45.529  0.00  0.00    -0.257 OA
BRANCH  11  13
ATOM     13  O   UNL d   1     -55.861 -98.865 -44.164  0.00  0.00    -0.269 OA
BRANCH  13  14
ATOM     14  C   UNL d   1     -55.091 -99.062 -44.385  0.00  0.00     0.126 C 
ATOM     15  C   UNL d   1     -54.789 -99.808 -44.208  0.00  0.00     0.029 C 
ENDBRANCH  13  14
ENDBRANCH  11  13
ENDBRANCH   1  11
TORSDOF 3
ENDMDL
MODEL 2
REMARK VINA RESULT:      15.3      0.873      3.262
REMARK  3 active torsions:
REMARK  status: ('A' for Active; 'I' for Inactive)
REMARK    1  A    between atoms: C_6  and  C_1 
REMARK    2  A    between atoms: O_9  and  C_6 
REMARK    3  A    between atoms: C_12  and  O_9 
ROOT
ATOM      1  C   UNL d   1     -57.488 -98.763 -44.328  0.00  0.00     0.182 A 
ATOM      2  C   UNL d   1     -57.006 -98.770 -45.013  0.00  0.00     0.133 A 
ATOM      3  O   UNL d   1     -56.986 -98.758 -43.663  0.00  0.00    -0.300 OA
ATOM      4  C   UNL d   1     -56.214 -98.770 -44.768  0.00  0.00     0.044 A 
ATOM      5  C   UNL d   1     -56.196 -98.762 -43.934  0.00  0.00     0.102 A 
ATOM      6  N   UNL d   1     -57.272 -98.777 -45.795  0.00  0.00    -0.146 N 
ATOM      7  C   UNL d   1     -55.509 -98.775 -45.181  0.00  0.00     0.004 A 
ATOM      8  C   UNL d   1     -55.475 -98.760 -43.545  0.00  0.00     0.025 A 
ATOM      9  C   UNL d   1     -54.789 -98.773 -44.788  0.00  0.00     0.000 A 
ATOM     10  C   UNL d   1     -54.772 -98.766 -43.959  0.00  0.00     0.002 A 
ENDROOT
BRANCH   1  11
ATOM     11  C   UNL d   1     -58.312 -98.761 -44.311  0.00  0.00     0.325 C 
ATOM     12  O   UNL d   1     -58.730 -98.760 -45.015  0.00  0.00    -0.257 OA
BRANCH  11  13
ATOM     13  O   UNL d   1     -58.710 -98.760 -43.591  0.00  0.00    -0.269 OA
BRANCH  13  14
ATOM     14  C   UNL d   1     -59.535 -98.765 -43.578  0.00  0.00     0.126 C 
ATOM     15  C   UNL d   1     -59.936 -98.874 -42.866  0.00  0.00     0.029 C 
ENDBRANCH  13  14
ENDBRANCH  11  13
ENDBRANCH   1  11
TORSDOF 3
ENDMDL
