MODEL 1
REMARK VINA RESULT:      -2.0      0.000      0.000
REMARK  4 active torsions:
REMARK  status: ('A' for Active; 'I' for Inactive)
REMARK    1  A    between atoms: C_7  and  C_1 
REMARK    2  A    between atoms: O_10  and  C_2 
REMARK    3  A    between atoms: C_17  and  O_10 
REMARK    4  A    between atoms: C_19  and  C_12 
ROOT
ATOM      1  C   UNL d   1     -41.404-121.448 -51.656  0.00  0.00     0.197 A 
ATOM      2  C   UNL d   1     -41.477-122.226 -51.380  0.00  0.00     0.165 A 
ATOM      3  O   UNL d   1     -41.346-121.322 -52.460  0.00  0.00    -0.301 OA
ATOM      4  C   UNL d   1     -41.491-122.856 -51.916  0.00  0.00     0.222 A 
ATOM      5  C   UNL d   1     -41.432-122.700 -52.705  0.00  0.00     0.064 A 
ATOM      6  C   UNL d   1     -41.358-121.922 -52.981  0.00  0.00     0.106 A 
ATOM      7  C   UNL d   1     -41.446-123.330 -53.241  0.00  0.00     0.008 A 
ATOM      8  C   UNL d   1     -41.301-121.796 -53.785  0.00  0.00     0.067 A 
ATOM      9  C   UNL d   1     -41.313-122.401 -54.321  0.00  0.00     0.198 A 
ATOM     10  C   UNL d   1     -41.387-123.180 -54.045  0.00  0.00     0.039 A 
ATOM     11  O   UNL d   1     -41.563-123.613 -51.648  0.00  0.00    -0.284 OA
ATOM     12  O   UNL d   1     -41.253-122.256 -55.131  0.00  0.00    -0.286 OA
ENDROOT
BRANCH   2  13
ATOM     13  O   UNL d   1     -41.537-122.374 -50.569  0.00  0.00    -0.302 OA
BRANCH  13  14
ATOM     14  C   UNL d   1     -42.219-122.712 -50.262  0.00  0.00     0.100 A 
ATOM     15  C   UNL d   1     -42.174-123.470 -49.929  0.00  0.00     0.025 A 
ATOM     16  C   UNL d   1     -42.842-123.802 -49.627  0.00  0.00     0.002 A 
ATOM     17  C   UNL d   1     -43.564-123.379 -49.656  0.00  0.00     0.000 A 
ATOM     18  C   UNL d   1     -43.594-122.646 -49.981  0.00  0.00     0.002 A 
ATOM     19  C   UNL d   1     -42.912-122.308 -50.289  0.00  0.00     0.025 A 
ENDBRANCH  13  14
ENDBRANCH   2  13
BRANCH   1  20
ATOM     20  C   UNL d   1     -41.390-120.822 -51.120  0.00  0.00     0.442 C 
ATOM     21  F   UNL d   1     -41.378-120.183 -50.581  0.00  0.00    -0.164 F 
ATOM     22  F   UNL d   1     -41.656-120.311 -51.711  0.00  0.00    -0.164 F 
ATOM     23  F   UNL d   1     -41.123-121.335 -50.529  0.00  0.00    -0.164 F 
ENDBRANCH   1  20
BRANCH  10  24
ATOM     24  C   UNL d   1     -41.401-123.809 -54.580  0.00  0.00     0.003 C 
ATOM     25  C   UNL d   1     -41.952-123.813 -55.192  0.00  0.00     0.000 C 
ENDBRANCH  10  24
TORSDOF 4
ENDMDL
