MODEL 1
REMARK VINA RESULT:      -8.7      0.000      0.000
REMARK  4 active torsions:
REMARK  status: ('A' for Active; 'I' for Inactive)
REMARK    1  A    between atoms: C_2  and  N_1 
REMARK       I    between atoms: C_3  and  N_1 
REMARK    2  A    between atoms: N_4  and  C_2 
REMARK    3  A    between atoms: C_7  and  C_3 
REMARK    4  A    between atoms: C_8  and  N_4 
ROOT
ATOM      1  C   UNL d   1      52.954  32.889  53.310  0.00  0.00     0.179 C 
ATOM      2  S   UNL d   1      53.328  33.262  53.947  0.00  0.00    -0.040 SA
ENDROOT
BRANCH   1   3
ATOM      3  N   UNL d   1      52.191  33.110  53.086  0.00  0.00    -0.299 N 
ATOM      4  C   UNL d   1      52.050  33.887  52.884  0.00  0.00     0.259 C 
ATOM      5  O   UNL d   1      52.660  34.447  52.903  0.00  0.00    -0.267 OA
ATOM      6  H   UNL d   1      51.590  32.559  53.068  0.00  0.00     0.171 HD
BRANCH   4   7
ATOM      7  C   UNL d   1      51.280  34.117  52.657  0.00  0.00     0.056 A 
ATOM      8  C   UNL d   1      50.738  34.342  53.224  0.00  0.00     0.005 A 
ATOM      9  C   UNL d   1      49.976  34.570  53.005  0.00  0.00     0.000 A 
ATOM     10  C   UNL d   1      49.768  34.568  52.206  0.00  0.00     0.000 A 
ATOM     11  C   UNL d   1      50.310  34.343  51.639  0.00  0.00     0.000 A 
ATOM     12  C   UNL d   1      51.072  34.115  51.858  0.00  0.00     0.005 A 
ENDBRANCH   4   7
ENDBRANCH   1   3
BRANCH   1  13
ATOM     13  N   UNL d   1      53.339  32.291  52.892  0.00  0.00    -0.332 N 
ATOM     14  H   UNL d   1      53.738  32.462  52.201  0.00  0.00     0.168 HD
BRANCH  13  15
ATOM     15  C   UNL d   1      53.316  31.524  53.181  0.00  0.00     0.058 A 
ATOM     16  C   UNL d   1      53.762  31.310  53.845  0.00  0.00     0.018 A 
ATOM     17  C   UNL d   1      53.725  30.537  54.119  0.00  0.00     0.013 A 
ATOM     18  C   UNL d   1      53.260  29.975  53.753  0.00  0.00     0.058 A 
ATOM     19  C   UNL d   1      52.814  30.188  53.089  0.00  0.00     0.013 A 
ATOM     20 CL   UNL d   1      53.225  29.207  54.027  0.00  0.00    -0.082 Cl
ATOM     21  C   UNL d   1      52.839  30.961  52.800  0.00  0.00     0.018 A 
ENDBRANCH  13  15
ENDBRANCH   1  13
TORSDOF 4
ENDMDL
MODEL 2
REMARK VINA RESULT:      -8.4      2.366      4.145
REMARK  4 active torsions:
REMARK  status: ('A' for Active; 'I' for Inactive)
REMARK    1  A    between atoms: C_2  and  N_1 
REMARK       I    between atoms: C_3  and  N_1 
REMARK    2  A    between atoms: N_4  and  C_2 
REMARK    3  A    between atoms: C_7  and  C_3 
REMARK    4  A    between atoms: C_8  and  N_4 
ROOT
ATOM      1  C   UNL d   1      52.735  32.419  53.128  0.00  0.00     0.179 C 
ATOM      2  S   UNL d   1      52.611  31.607  53.231  0.00  0.00    -0.040 SA
ENDROOT
BRANCH   1   3
ATOM      3  N   UNL d   1      53.191  32.843  53.670  0.00  0.00    -0.299 N 
ATOM      4  C   UNL d   1      53.938  32.573  53.851  0.00  0.00     0.259 C 
ATOM      5  O   UNL d   1      54.238  31.886  53.499  0.00  0.00    -0.267 OA
ATOM      6  H   UNL d   1      52.896  33.520  54.017  0.00  0.00     0.171 HD
BRANCH   4   7
ATOM      7  C   UNL d   1      54.404  32.998  54.399  0.00  0.00     0.056 A 
ATOM      8  C   UNL d   1      54.213  32.987  55.192  0.00  0.00     0.005 A 
ATOM      9  C   UNL d   1      54.670  33.405  55.738  0.00  0.00     0.000 A 
ATOM     10  C   UNL d   1      55.322  33.835  55.472  0.00  0.00     0.000 A 
ATOM     11  C   UNL d   1      55.513  33.846  54.679  0.00  0.00     0.000 A 
ATOM     12  C   UNL d   1      55.057  33.428  54.134  0.00  0.00     0.005 A 
ENDBRANCH   4   7
ENDBRANCH   1   3
BRANCH   1  13
ATOM     13  N   UNL d   1      52.404  32.813  52.483  0.00  0.00    -0.332 N 
ATOM     14  H   UNL d   1      52.729  32.731  51.739  0.00  0.00     0.168 HD
BRANCH  13  15
ATOM     15  C   UNL d   1      51.746  33.288  52.601  0.00  0.00     0.058 A 
ATOM     16  C   UNL d   1      51.114  33.023  53.066  0.00  0.00     0.018 A 
ATOM     17  C   UNL d   1      50.463  33.514  53.171  0.00  0.00     0.013 A 
ATOM     18  C   UNL d   1      50.426  34.254  52.831  0.00  0.00     0.058 A 
ATOM     19  C   UNL d   1      51.058  34.519  52.367  0.00  0.00     0.013 A 
ATOM     20 CL   UNL d   1      49.778  34.740  52.938  0.00  0.00    -0.082 Cl
ATOM     21  C   UNL d   1      51.719  34.040  52.250  0.00  0.00     0.018 A 
ENDBRANCH  13  15
ENDBRANCH   1  13
TORSDOF 4
ENDMDL
MODEL 3
REMARK VINA RESULT:      -8.4      2.339      4.353
REMARK  4 active torsions:
REMARK  status: ('A' for Active; 'I' for Inactive)
REMARK    1  A    between atoms: C_2  and  N_1 
REMARK       I    between atoms: C_3  and  N_1 
REMARK    2  A    between atoms: N_4  and  C_2 
REMARK    3  A    between atoms: C_7  and  C_3 
REMARK    4  A    between atoms: C_8  and  N_4 
ROOT
ATOM      1  C   UNL d   1      52.619  32.681  53.137  0.00  0.00     0.179 C 
ATOM      2  S   UNL d   1      51.880  32.855  52.805  0.00  0.00    -0.040 SA
ENDROOT
BRANCH   1   3
ATOM      3  N   UNL d   1      52.756  31.946  53.486  0.00  0.00    -0.299 N 
ATOM      4  C   UNL d   1      52.828  31.290  53.008  0.00  0.00     0.259 C 
ATOM      5  O   UNL d   1      52.764  31.357  52.185  0.00  0.00    -0.267 OA
ATOM      6  H   UNL d   1      52.820  31.881  54.297  0.00  0.00     0.171 HD
BRANCH   4   7
ATOM      7  C   UNL d   1      52.967  30.544  53.357  0.00  0.00     0.056 A 
ATOM      8  C   UNL d   1      52.400  29.959  53.308  0.00  0.00     0.005 A 
ATOM      9  C   UNL d   1      52.532  29.220  53.650  0.00  0.00     0.000 A 
ATOM     10  C   UNL d   1      53.244  29.079  54.042  0.00  0.00     0.000 A 
ATOM     11  C   UNL d   1      53.811  29.663  54.091  0.00  0.00     0.000 A 
ATOM     12  C   UNL d   1      53.679  30.402  53.749  0.00  0.00     0.005 A 
ENDBRANCH   4   7
ENDBRANCH   1   3
BRANCH   1  13
ATOM     13  N   UNL d   1      53.225  33.240  53.121  0.00  0.00    -0.332 N 
ATOM     14  H   UNL d   1      53.897  33.108  52.677  0.00  0.00     0.168 HD
BRANCH  13  15
ATOM     15  C   UNL d   1      53.143  33.930  53.558  0.00  0.00     0.058 A 
ATOM     16  C   UNL d   1      52.754  34.587  53.237  0.00  0.00     0.018 A 
ATOM     17  C   UNL d   1      52.682  35.268  53.691  0.00  0.00     0.013 A 
ATOM     18  C   UNL d   1      52.983  35.312  54.448  0.00  0.00     0.058 A 
ATOM     19  C   UNL d   1      53.372  34.655  54.769  0.00  0.00     0.013 A 
ATOM     20 CL   UNL d   1      52.910  35.990  54.897  0.00  0.00    -0.082 Cl
ATOM     21  C   UNL d   1      53.453  33.963  54.327  0.00  0.00     0.018 A 
ENDBRANCH  13  15
ENDBRANCH   1  13
TORSDOF 4
ENDMDL
MODEL 4
REMARK VINA RESULT:      -8.3      1.780      4.204
REMARK  4 active torsions:
REMARK  status: ('A' for Active; 'I' for Inactive)
REMARK    1  A    between atoms: C_2  and  N_1 
REMARK       I    between atoms: C_3  and  N_1 
REMARK    2  A    between atoms: N_4  and  C_2 
REMARK    3  A    between atoms: C_7  and  C_3 
REMARK    4  A    between atoms: C_8  and  N_4 
ROOT
ATOM      1  C   UNL d   1      53.009  32.921  53.597  0.00  0.00     0.179 C 
ATOM      2  S   UNL d   1      53.727  33.234  53.328  0.00  0.00    -0.040 SA
ENDROOT
BRANCH   1   3
ATOM      3  N   UNL d   1      52.862  32.110  53.544  0.00  0.00    -0.299 N 
ATOM      4  C   UNL d   1      53.466  31.589  53.708  0.00  0.00     0.259 C 
ATOM      5  O   UNL d   1      54.216  31.864  53.925  0.00  0.00    -0.267 OA
ATOM      6  H   UNL d   1      52.122  31.839  53.330  0.00  0.00     0.171 HD
BRANCH   4   7
ATOM      7  C   UNL d   1      53.322  30.768  53.656  0.00  0.00     0.056 A 
ATOM      8  C   UNL d   1      53.454  30.289  54.304  0.00  0.00     0.005 A 
ATOM      9  C   UNL d   1      53.314  29.477  54.258  0.00  0.00     0.000 A 
ATOM     10  C   UNL d   1      53.039  29.155  53.550  0.00  0.00     0.000 A 
ATOM     11  C   UNL d   1      52.908  29.633  52.902  0.00  0.00     0.000 A 
ATOM     12  C   UNL d   1      53.048  30.445  52.948  0.00  0.00     0.005 A 
ENDBRANCH   4   7
ENDBRANCH   1   3
BRANCH   1  13
ATOM     13  N   UNL d   1      52.434  33.415  53.921  0.00  0.00    -0.332 N 
ATOM     14  H   UNL d   1      52.467  33.626  54.709  0.00  0.00     0.168 HD
BRANCH  13  15
ATOM     15  C   UNL d   1      51.829  33.691  53.441  0.00  0.00     0.058 A 
ATOM     16  C   UNL d   1      51.991  34.206  52.814  0.00  0.00     0.018 A 
ATOM     17  C   UNL d   1      51.370  34.470  52.344  0.00  0.00     0.013 A 
ATOM     18  C   UNL d   1      50.600  34.238  52.481  0.00  0.00     0.058 A 
ATOM     19  C   UNL d   1      50.438  33.723  53.109  0.00  0.00     0.013 A 
ATOM     20 CL   UNL d   1      49.986  34.503  52.014  0.00  0.00    -0.082 Cl
ATOM     21  C   UNL d   1      51.049  33.447  53.590  0.00  0.00     0.018 A 
ENDBRANCH  13  15
ENDBRANCH   1  13
TORSDOF 4
ENDMDL
MODEL 5
REMARK VINA RESULT:      -8.1      2.094      2.492
REMARK  4 active torsions:
REMARK  status: ('A' for Active; 'I' for Inactive)
REMARK    1  A    between atoms: C_2  and  N_1 
REMARK       I    between atoms: C_3  and  N_1 
REMARK    2  A    between atoms: N_4  and  C_2 
REMARK    3  A    between atoms: C_7  and  C_3 
REMARK    4  A    between atoms: C_8  and  N_4 
ROOT
ATOM      1  C   UNL d   1      53.050  32.131  53.578  0.00  0.00     0.179 C 
ATOM      2  S   UNL d   1      53.207  31.528  53.032  0.00  0.00    -0.040 SA
ENDROOT
BRANCH   1   3
ATOM      3  N   UNL d   1      52.577  32.773  53.366  0.00  0.00    -0.299 N 
ATOM      4  C   UNL d   1      51.826  32.632  53.085  0.00  0.00     0.259 C 
ATOM      5  O   UNL d   1      51.538  31.859  53.013  0.00  0.00    -0.267 OA
ATOM      6  H   UNL d   1      52.861  33.535  53.437  0.00  0.00     0.171 HD
BRANCH   4   7
ATOM      7  C   UNL d   1      51.342  33.278  52.868  0.00  0.00     0.056 A 
ATOM      8  C   UNL d   1      50.704  33.483  53.333  0.00  0.00     0.005 A 
ATOM      9  C   UNL d   1      50.223  34.120  53.124  0.00  0.00     0.000 A 
ATOM     10  C   UNL d   1      50.396  34.548  52.440  0.00  0.00     0.000 A 
ATOM     11  C   UNL d   1      51.034  34.344  51.975  0.00  0.00     0.000 A 
ATOM     12  C   UNL d   1      51.515  33.706  52.184  0.00  0.00     0.005 A 
ENDBRANCH   4   7
ENDBRANCH   1   3
BRANCH   1  13
ATOM     13  N   UNL d   1      53.364  32.095  54.340  0.00  0.00    -0.332 N 
ATOM     14  H   UNL d   1      53.070  31.561  54.883  0.00  0.00     0.168 HD
BRANCH  13  15
ATOM     15  C   UNL d   1      53.975  32.604  54.544  0.00  0.00     0.058 A 
ATOM     16  C   UNL d   1      54.587  32.762  54.009  0.00  0.00     0.018 A 
ATOM     17  C   UNL d   1      55.189  33.274  54.232  0.00  0.00     0.013 A 
ATOM     18  C   UNL d   1      55.199  33.630  54.966  0.00  0.00     0.058 A 
ATOM     19  C   UNL d   1      54.586  33.472  55.501  0.00  0.00     0.013 A 
ATOM     20 CL   UNL d   1      55.798  34.138  55.185  0.00  0.00    -0.082 Cl
ATOM     21  C   UNL d   1      53.973  32.960  55.294  0.00  0.00     0.018 A 
ENDBRANCH  13  15
ENDBRANCH   1  13
TORSDOF 4
ENDMDL
MODEL 6
REMARK VINA RESULT:      -7.8      1.583      2.022
REMARK  4 active torsions:
REMARK  status: ('A' for Active; 'I' for Inactive)
REMARK    1  A    between atoms: C_2  and  N_1 
REMARK       I    between atoms: C_3  and  N_1 
REMARK    2  A    between atoms: N_4  and  C_2 
REMARK    3  A    between atoms: C_7  and  C_3 
REMARK    4  A    between atoms: C_8  and  N_4 
ROOT
ATOM      1  C   UNL d   1      52.491  32.125  53.058  0.00  0.00     0.179 C 
ATOM      2  S   UNL d   1      51.689  32.051  52.866  0.00  0.00    -0.040 SA
ENDROOT
BRANCH   1   3
ATOM      3  N   UNL d   1      52.753  32.754  53.524  0.00  0.00    -0.299 N 
ATOM      4  C   UNL d   1      52.512  33.509  53.336  0.00  0.00     0.259 C 
ATOM      5  O   UNL d   1      52.014  33.646  52.688  0.00  0.00    -0.267 OA
ATOM      6  H   UNL d   1      53.243  32.618  54.162  0.00  0.00     0.171 HD
BRANCH   4   7
ATOM      7  C   UNL d   1      52.774  34.150  53.804  0.00  0.00     0.056 A 
ATOM      8  C   UNL d   1      53.039  34.017  54.564  0.00  0.00     0.005 A 
ATOM      9  C   UNL d   1      53.299  34.646  55.031  0.00  0.00     0.000 A 
ATOM     10  C   UNL d   1      53.287  35.411  54.721  0.00  0.00     0.000 A 
ATOM     11  C   UNL d   1      53.022  35.543  53.961  0.00  0.00     0.000 A 
ATOM     12  C   UNL d   1      52.762  34.914  53.494  0.00  0.00     0.005 A 
ENDBRANCH   4   7
ENDBRANCH   1   3
BRANCH   1  13
ATOM     13  N   UNL d   1      53.038  31.570  52.786  0.00  0.00    -0.332 N 
ATOM     14  H   UNL d   1      53.481  31.721  52.117  0.00  0.00     0.168 HD
BRANCH  13  15
ATOM     15  C   UNL d   1      53.129  30.866  53.196  0.00  0.00     0.058 A 
ATOM     16  C   UNL d   1      53.701  30.796  53.790  0.00  0.00     0.018 A 
ATOM     17  C   UNL d   1      53.777  30.082  54.189  0.00  0.00     0.013 A 
ATOM     18  C   UNL d   1      53.302  29.441  54.015  0.00  0.00     0.058 A 
ATOM     19  C   UNL d   1      52.730  29.511  53.421  0.00  0.00     0.013 A 
ATOM     20 CL   UNL d   1      53.379  28.733  54.413  0.00  0.00    -0.082 Cl
ATOM     21  C   UNL d   1      52.640  30.221  53.009  0.00  0.00     0.018 A 
ENDBRANCH  13  15
ENDBRANCH   1  13
TORSDOF 4
ENDMDL
