MODEL 1
REMARK VINA RESULT:      36.3      0.000      0.000
REMARK  3 active torsions:
REMARK  status: ('A' for Active; 'I' for Inactive)
REMARK    1  A    between atoms: C_4  and  C_1 
REMARK    2  A    between atoms: C_8  and  C_3 
REMARK    3  A    between atoms: O_20  and  C_16 
ROOT
ATOM      1  C   UNL d   1      46.325 -18.214  44.212  0.00  0.00     0.107 A 
ATOM      2  N   UNL d   1      46.503 -18.526  44.954  0.00  0.00    -0.148 NA
ATOM      3  C   UNL d   1      46.353 -18.826  43.669  0.00  0.00     0.039 A 
ATOM      4  N   UNL d   1      46.643 -19.341  44.869  0.00  0.00    -0.148 NA
ATOM      5  C   UNL d   1      46.554 -19.543  44.077  0.00  0.00     0.104 A 
ATOM      6  C   UNL d   1      46.644 -20.297  43.755  0.00  0.00     0.023 C 
ENDROOT
BRANCH   1   7
ATOM      7  C   UNL d   1      46.155 -17.419  44.085  0.00  0.00     0.059 A 
ATOM      8  C   UNL d   1      45.503 -17.076  44.445  0.00  0.00     0.200 A 
ATOM      9  C   UNL d   1      45.331 -16.283  44.320  0.00  0.00     0.084 A 
ATOM     10  O   UNL d   1      44.998 -17.541  44.953  0.00  0.00    -0.286 OA
ATOM     11  C   UNL d   1      45.831 -15.831  43.820  0.00  0.00     0.199 A 
ATOM     12  C   UNL d   1      46.481 -16.173  43.461  0.00  0.00     0.042 A 
ATOM     13  O   UNL d   1      45.670 -15.006  43.677  0.00  0.00    -0.286 OA
ATOM     14  C   UNL d   1      46.637 -16.978  43.601  0.00  0.00     0.008 A 
ENDBRANCH   1   7
BRANCH   3  15
ATOM     15  C   UNL d   1      46.192 -18.672  42.846  0.00  0.00     0.003 A 
ATOM     16  C   UNL d   1      46.644 -18.133  42.421  0.00  0.00     0.002 A 
ATOM     17  C   UNL d   1      46.470 -17.993  41.609  0.00  0.00     0.024 A 
ATOM     18  C   UNL d   1      45.852 -18.398  41.259  0.00  0.00     0.094 A 
ATOM     19  C   UNL d   1      45.384 -18.949  41.677  0.00  0.00     0.024 A 
ATOM     20  C   UNL d   1      45.558 -19.089  42.488  0.00  0.00     0.002 A 
BRANCH  18  21
ATOM     21  O   UNL d   1      45.678 -18.258  40.446  0.00  0.00    -0.328 OA
ATOM     22  C   UNL d   1      45.919 -18.826  39.881  0.00  0.00     0.181 C 
ENDBRANCH  18  21
ENDBRANCH   3  15
TORSDOF 3
ENDMDL
