MODEL 1
REMARK VINA RESULT:      -1.3      0.000      0.000
REMARK  6 active torsions:
REMARK  status: ('A' for Active; 'I' for Inactive)
REMARK    1  A    between atoms: C_11  and  N_3 
REMARK    2  A    between atoms: C_10  and  C_4 
REMARK    3  A    between atoms: C_18  and  C_11 
REMARK    4  A    between atoms: O_21  and  C_13 
REMARK    5  A    between atoms: O_22  and  C_15 
REMARK    6  A    between atoms: C_23  and  C_18 
ROOT
ATOM      1  N   UNL d   1      32.836  19.391 -22.873  0.00  0.00    -0.122 N 
ATOM      2  C   UNL d   1      32.937  19.841 -22.187  0.00  0.00     0.741 A 
ATOM      3  N   UNL d   1      33.072  20.665 -22.243  0.00  0.00    -0.103 N 
ATOM      4  C   UNL d   1      32.713  18.602 -22.652  0.00  0.00     0.185 A 
ATOM      5  C   UNL d   1      33.105  21.028 -22.986  0.00  0.00     0.280 A 
ATOM      6  N   UNL d   1      32.877  19.337 -21.538  0.00  0.00     0.045 NA
ATOM      7  C   UNL d   1      32.869  19.754 -23.619  0.00  0.00     0.087 A 
ATOM      8  N   UNL d   1      32.738  18.565 -21.823  0.00  0.00    -0.114 NA
ATOM      9  C   UNL d   1      33.003  20.566 -23.667  0.00  0.00     0.074 A 
ATOM     10  O   UNL d   1      33.238  21.841 -23.042  0.00  0.00    -0.266 OA
ATOM     11  C   UNL d   1      33.035  20.928 -24.414  0.00  0.00     0.006 A 
ATOM     12  C   UNL d   1      32.769  19.304 -24.302  0.00  0.00     0.018 A 
ATOM     13  C   UNL d   1      32.935  20.479 -25.096  0.00  0.00     0.000 A 
ATOM     14  C   UNL d   1      32.801  19.667 -25.040  0.00  0.00     0.002 A 
ENDROOT
BRANCH   4  15
ATOM     15  C   UNL d   1      32.588  17.964 -23.163  0.00  0.00     0.039 A 
ATOM     16  C   UNL d   1      31.835  17.787 -23.416  0.00  0.00     0.029 A 
ATOM     17  C   UNL d   1      31.708  17.153 -23.925  0.00  0.00     0.116 A 
ATOM     18  C   UNL d   1      32.351  16.693 -24.180  0.00  0.00     0.116 A 
ATOM     19  C   UNL d   1      33.114  16.875 -23.921  0.00  0.00     0.026 A 
ATOM     20  C   UNL d   1      33.239  17.513 -23.410  0.00  0.00     0.005 A 
BRANCH  17  21
ATOM     21  O   UNL d   1      30.952  16.979 -24.176  0.00  0.00    -0.326 OA
ATOM     22  C   UNL d   1      30.411  16.623 -23.660  0.00  0.00     0.181 C 
ENDBRANCH  17  21
BRANCH  18  23
ATOM     23  O   UNL d   1      32.223  16.059 -24.689  0.00  0.00    -0.326 OA
ATOM     24  C   UNL d   1      32.802  15.472 -24.765  0.00  0.00     0.181 C 
ENDBRANCH  18  23
ENDBRANCH   4  15
BRANCH   3  25
ATOM     25  C   UNL d   1      33.173  21.115 -21.561  0.00  0.00     0.101 C 
BRANCH  25  26
ATOM     26  C   UNL d   1      32.538  21.225 -21.046  0.00  0.00     0.020 C 
BRANCH  26  27
ATOM     27  C   UNL d   1      32.498  21.900 -20.564  0.00  0.00     0.002 A 
ATOM     28  C   UNL d   1      31.921  22.473 -20.705  0.00  0.00     0.000 A 
ATOM     29  C   UNL d   1      31.885  23.132 -20.233  0.00  0.00     0.000 A 
ATOM     30  C   UNL d   1      32.415  23.224 -19.626  0.00  0.00     0.000 A 
ATOM     31  C   UNL d   1      32.992  22.658 -19.479  0.00  0.00     0.000 A 
ATOM     32  C   UNL d   1      33.027  21.991 -19.958  0.00  0.00     0.000 A 
ENDBRANCH  26  27
ENDBRANCH  25  26
ENDBRANCH   3  25
TORSDOF 6
ENDMDL
