MODEL 1
REMARK VINA RESULT:      74.0      0.000      0.000
REMARK  4 active torsions:
REMARK  status: ('A' for Active; 'I' for Inactive)
REMARK    1  A    between atoms: C_11  and  C_4 
REMARK    2  A    between atoms: N_10  and  C_7 
REMARK    3  A    between atoms: C_14  and  N_10 
REMARK    4  A    between atoms: C_21  and  C_14 
ROOT
ATOM      1  C   UNL d   1     -52.305  24.667  33.324  0.00  0.00     0.186 A 
ATOM      2  N   UNL d   1     -51.898  23.942  33.330  0.00  0.00    -0.193 N 
ATOM      3  N   UNL d   1     -51.868  25.381  33.317  0.00  0.00    -0.206 NA
ATOM      4  C   UNL d   1     -53.113  24.509  33.327  0.00  0.00     0.140 A 
ATOM      5  N   UNL d   1     -52.466  23.335  33.336  0.00  0.00    -0.058 NA
ATOM      6  N   UNL d   1     -53.219  23.684  33.334  0.00  0.00    -0.127 NA
ATOM      7  C   UNL d   1     -51.041  25.367  33.316  0.00  0.00     0.166 A 
ATOM      8  C   UNL d   1     -50.648  24.637  33.322  0.00  0.00     0.054 A 
ATOM      9  C   UNL d   1     -51.075  23.931  33.329  0.00  0.00     0.089 A 
ATOM     10  C   UNL d   1     -49.825  24.624  33.321  0.00  0.00     0.005 A 
ATOM     11  C   UNL d   1     -50.672  23.209  33.334  0.00  0.00     0.019 A 
ATOM     12  C   UNL d   1     -49.425  23.905  33.326  0.00  0.00     0.000 A 
ATOM     13  C   UNL d   1     -49.848  23.197  33.333  0.00  0.00     0.002 A 
ENDROOT
BRANCH   7  14
ATOM     14  N   UNL d   1     -50.610  26.071  33.310  0.00  0.00    -0.225 NA
BRANCH  14  15
ATOM     15  C   UNL d   1     -50.856  26.700  33.773  0.00  0.00     0.101 C 
BRANCH  15  16
ATOM     16  C   UNL d   1     -50.327  27.070  34.286  0.00  0.00     0.019 A 
ATOM     17  C   UNL d   1     -50.028  27.818  34.109  0.00  0.00     0.002 A 
ATOM     18  C   UNL d   1     -49.498  28.188  34.623  0.00  0.00     0.000 A 
ATOM     19  C   UNL d   1     -49.267  27.802  35.318  0.00  0.00     0.000 A 
ATOM     20  C   UNL d   1     -49.569  27.048  35.495  0.00  0.00     0.000 A 
ATOM     21  C   UNL d   1     -50.098  26.689  34.975  0.00  0.00     0.002 A 
ENDBRANCH  15  16
ENDBRANCH  14  15
ENDBRANCH   7  14
BRANCH   4  22
ATOM     22  C   UNL d   1     -53.709  25.070  33.323  0.00  0.00     0.023 A 
ATOM     23  C   UNL d   1     -54.496  24.827  33.331  0.00  0.00     0.004 A 
ATOM     24  C   UNL d   1     -55.104  25.394  33.327  0.00  0.00     0.030 A 
ATOM     25  C   UNL d   1     -54.918  26.192  33.315  0.00  0.00     0.140 A 
ATOM     26  C   UNL d   1     -54.121  26.428  33.307  0.00  0.00     0.030 A 
ATOM     27  F   UNL d   1     -55.514  26.753  33.311  0.00  0.00    -0.204 F 
ATOM     28  C   UNL d   1     -53.524  25.867  33.311  0.00  0.00     0.004 A 
ENDBRANCH   4  22
TORSDOF 4
ENDMDL
