MODEL 1
REMARK VINA RESULT:      -7.2      0.000      0.000
REMARK  1 active torsions:
REMARK  status: ('A' for Active; 'I' for Inactive)
REMARK    1  A    between atoms: N_4  and  C_1 
ROOT
ATOM      1  C   UNL d   1     -48.696  14.347  22.810  0.00  0.00     0.735 A 
ATOM      2  N   UNL d   1     -48.535  13.553  23.030  0.00  0.00    -0.059 NA
ATOM      3  N   UNL d   1     -47.940  14.696  22.674  0.00  0.00    -0.059 NA
ATOM      4  C   UNL d   1     -47.735  13.434  23.025  0.00  0.00     0.118 A 
ATOM      5  C   UNL d   1     -47.368  14.141  22.805  0.00  0.00     0.118 A 
ATOM      6  C   UNL d   1     -47.284  12.750  23.199  0.00  0.00     0.021 A 
ATOM      7  C   UNL d   1     -46.545  14.170  22.757  0.00  0.00     0.021 A 
ATOM      8  C   UNL d   1     -46.454  12.805  23.143  0.00  0.00     0.002 A 
ATOM      9  C   UNL d   1     -46.087  13.511  22.924  0.00  0.00     0.002 A 
ENDROOT
BRANCH   1  10
ATOM     10  N   UNL d   1     -49.446  14.664  22.756  0.00  0.00    -0.133 N 
ATOM     11  C   UNL d   1     -50.091  14.502  22.319  0.00  0.00     0.125 A 
ATOM     12  C   UNL d   1     -50.784  14.935  22.394  0.00  0.00     0.142 A 
ATOM     13  O   UNL d   1     -50.837  15.555  22.927  0.00  0.00    -0.300 OA
ATOM     14  C   UNL d   1     -50.139  15.734  23.403  0.00  0.00     0.142 A 
ATOM     15  C   UNL d   1     -49.470  15.290  23.306  0.00  0.00     0.125 A 
ENDBRANCH   1  10
TORSDOF 1
ENDMDL
MODEL 2
REMARK VINA RESULT:      -7.0      2.438      3.933
REMARK  1 active torsions:
REMARK  status: ('A' for Active; 'I' for Inactive)
REMARK    1  A    between atoms: N_4  and  C_1 
ROOT
ATOM      1  C   UNL d   1     -48.307  12.176  23.091  0.00  0.00     0.735 A 
ATOM      2  N   UNL d   1     -48.939  12.100  23.637  0.00  0.00    -0.059 NA
ATOM      3  N   UNL d   1     -48.671  12.389  22.360  0.00  0.00    -0.059 NA
ATOM      4  C   UNL d   1     -49.636  12.257  23.259  0.00  0.00     0.118 A 
ATOM      5  C   UNL d   1     -49.471  12.436  22.470  0.00  0.00     0.118 A 
ATOM      6  C   UNL d   1     -50.424  12.259  23.545  0.00  0.00     0.021 A 
ATOM      7  C   UNL d   1     -50.091  12.618  21.958  0.00  0.00     0.021 A 
ATOM      8  C   UNL d   1     -51.033  12.447  23.009  0.00  0.00     0.002 A 
ATOM      9  C   UNL d   1     -50.868  12.626  22.220  0.00  0.00     0.002 A 
ENDROOT
BRANCH   1  10
ATOM     10  N   UNL d   1     -47.522  12.057  23.279  0.00  0.00    -0.133 N 
ATOM     11  C   UNL d   1     -47.101  11.443  23.561  0.00  0.00     0.125 A 
ATOM     12  C   UNL d   1     -46.294  11.498  23.696  0.00  0.00     0.142 A 
ATOM     13  O   UNL d   1     -45.888  12.194  23.544  0.00  0.00    -0.300 OA
ATOM     14  C   UNL d   1     -46.341  12.863  23.238  0.00  0.00     0.142 A 
ATOM     15  C   UNL d   1     -47.136  12.778  23.115  0.00  0.00     0.125 A 
ENDBRANCH   1  10
TORSDOF 1
ENDMDL
MODEL 3
REMARK VINA RESULT:      -6.9      1.790      2.123
REMARK  1 active torsions:
REMARK  status: ('A' for Active; 'I' for Inactive)
REMARK    1  A    between atoms: N_4  and  C_1 
ROOT
ATOM      1  C   UNL d   1     -48.439  12.888  23.007  0.00  0.00     0.735 A 
ATOM      2  N   UNL d   1     -47.727  12.482  22.826  0.00  0.00    -0.059 NA
ATOM      3  N   UNL d   1     -48.223  13.702  23.050  0.00  0.00    -0.059 NA
ATOM      4  C   UNL d   1     -47.125  13.017  22.765  0.00  0.00     0.118 A 
ATOM      5  C   UNL d   1     -47.432  13.772  22.903  0.00  0.00     0.118 A 
ATOM      6  C   UNL d   1     -46.312  12.907  22.595  0.00  0.00     0.021 A 
ATOM      7  C   UNL d   1     -46.928  14.424  22.873  0.00  0.00     0.021 A 
ATOM      8  C   UNL d   1     -45.824  13.582  22.570  0.00  0.00     0.002 A 
ATOM      9  C   UNL d   1     -46.130  14.336  22.708  0.00  0.00     0.002 A 
ENDROOT
BRANCH   1  10
ATOM     10  N   UNL d   1     -49.162  12.523  23.110  0.00  0.00    -0.133 N 
ATOM     11  C   UNL d   1     -49.498  12.105  23.698  0.00  0.00     0.125 A 
ATOM     12  C   UNL d   1     -50.257  11.801  23.632  0.00  0.00     0.142 A 
ATOM     13  O   UNL d   1     -50.700  11.918  22.952  0.00  0.00    -0.300 OA
ATOM     14  C   UNL d   1     -50.338  12.371  22.312  0.00  0.00     0.142 A 
ATOM     15  C   UNL d   1     -49.588  12.658  22.406  0.00  0.00     0.125 A 
ENDBRANCH   1  10
TORSDOF 1
ENDMDL
