MODEL 1
REMARK VINA RESULT:      -3.8      0.000      0.000
REMARK  2 active torsions:
REMARK  status: ('A' for Active; 'I' for Inactive)
REMARK    1  A    between atoms: C_5  and  C_1 
REMARK    2  A    between atoms: C_7  and  C_5 
ROOT
ATOM      1  C   UNL d   1     -41.561-122.119 -51.673  0.00  0.00     0.158 A 
ATOM      2  C   UNL d   1     -41.594-121.454 -52.158  0.00  0.00     0.131 A 
ATOM      3  O   UNL d   1     -41.503-122.873 -52.018  0.00  0.00    -0.302 OA
ATOM      4  C   UNL d   1     -41.510-122.307 -53.334  0.00  0.00     0.044 A 
ATOM      5  C   UNL d   1     -41.477-122.972 -52.849  0.00  0.00     0.102 A 
ATOM      6  N   UNL d   1     -41.651-120.713 -51.819  0.00  0.00    -0.146 N 
ATOM      7  C   UNL d   1     -41.484-122.405 -54.157  0.00  0.00     0.004 A 
ATOM      8  C   UNL d   1     -41.419-123.726 -53.194  0.00  0.00     0.025 A 
ATOM      9  C   UNL d   1     -41.427-123.152 -54.498  0.00  0.00     0.000 A 
ATOM     10  C   UNL d   1     -41.394-123.817 -54.013  0.00  0.00     0.002 A 
ENDROOT
BRANCH   1  11
ATOM     11  C   UNL d   1     -41.586-122.026 -50.862  0.00  0.00     0.220 C 
ATOM     12  O   UNL d   1     -41.123-121.462 -50.513  0.00  0.00    -0.284 OA
BRANCH  11  13
ATOM     13  C   UNL d   1     -42.056-122.475 -50.397  0.00  0.00     0.041 A 
ATOM     14  C   UNL d   1     -41.808-123.211 -50.123  0.00  0.00     0.003 A 
ATOM     15  C   UNL d   1     -42.312-123.667 -49.639  0.00  0.00     0.000 A 
ATOM     16  C   UNL d   1     -43.078-123.371 -49.431  0.00  0.00     0.000 A 
ATOM     17  C   UNL d   1     -43.311-122.630 -49.715  0.00  0.00     0.000 A 
ATOM     18  C   UNL d   1     -43.583-123.817 -48.952  0.00  0.00     0.000 C 
ATOM     19  C   UNL d   1     -42.822-122.179 -50.190  0.00  0.00     0.003 A 
ENDBRANCH  11  13
ENDBRANCH   1  11
TORSDOF 2
ENDMDL
MODEL 2
REMARK VINA RESULT:      -3.4      0.928      3.729
REMARK  2 active torsions:
REMARK  status: ('A' for Active; 'I' for Inactive)
REMARK    1  A    between atoms: C_5  and  C_1 
REMARK    2  A    between atoms: C_7  and  C_5 
ROOT
ATOM      1  C   UNL d   1     -41.740-122.281 -50.785  0.00  0.00     0.158 A 
ATOM      2  C   UNL d   1     -42.530-122.120 -50.616  0.00  0.00     0.131 A 
ATOM      3  O   UNL d   1     -41.295-122.741 -50.254  0.00  0.00    -0.302 OA
ATOM      4  C   UNL d   1     -42.423-122.884 -49.382  0.00  0.00     0.044 A 
ATOM      5  C   UNL d   1     -41.632-123.045 -49.551  0.00  0.00     0.102 A 
ATOM      6  N   UNL d   1     -42.968-121.668 -51.138  0.00  0.00    -0.146 N 
ATOM      7  C   UNL d   1     -42.757-123.184 -48.685  0.00  0.00     0.004 A 
ATOM      8  C   UNL d   1     -41.187-123.504 -49.020  0.00  0.00     0.025 A 
ATOM      9  C   UNL d   1     -42.316-123.640 -48.160  0.00  0.00     0.000 A 
ATOM     10  C   UNL d   1     -41.526-123.801 -48.329  0.00  0.00     0.002 A 
ENDROOT
BRANCH   1  11
ATOM     11  C   UNL d   1     -41.408-121.986 -51.471  0.00  0.00     0.220 C 
ATOM     12  O   UNL d   1     -41.123-121.229 -51.480  0.00  0.00    -0.284 OA
BRANCH  11  13
ATOM     13  C   UNL d   1     -41.355-122.422 -52.138  0.00  0.00     0.041 A 
ATOM     14  C   UNL d   1     -41.174-123.226 -52.110  0.00  0.00     0.003 A 
ATOM     15  C   UNL d   1     -41.123-123.666 -52.817  0.00  0.00     0.000 A 
ATOM     16  C   UNL d   1     -41.258-123.285 -53.561  0.00  0.00     0.000 A 
ATOM     17  C   UNL d   1     -41.439-122.478 -53.571  0.00  0.00     0.000 A 
ATOM     18  C   UNL d   1     -41.209-123.714 -54.267  0.00  0.00     0.000 C 
ATOM     19  C   UNL d   1     -41.491-122.041 -52.882  0.00  0.00     0.003 A 
ENDBRANCH  11  13
ENDBRANCH   1  11
TORSDOF 2
ENDMDL
MODEL 3
REMARK VINA RESULT:      -1.4      1.763      4.337
REMARK  2 active torsions:
REMARK  status: ('A' for Active; 'I' for Inactive)
REMARK    1  A    between atoms: C_5  and  C_1 
REMARK    2  A    between atoms: C_7  and  C_5 
ROOT
ATOM      1  C   UNL d   1     -42.464-123.107 -49.663  0.00  0.00     0.158 A 
ATOM      2  C   UNL d   1     -43.205-123.085 -49.304  0.00  0.00     0.131 A 
ATOM      3  O   UNL d   1     -41.780-123.087 -49.191  0.00  0.00    -0.302 OA
ATOM      4  C   UNL d   1     -42.569-123.022 -47.997  0.00  0.00     0.044 A 
ATOM      5  C   UNL d   1     -41.828-123.044 -48.356  0.00  0.00     0.102 A 
ATOM      6  N   UNL d   1     -43.877-123.104 -49.768  0.00  0.00    -0.146 N 
ATOM      7  C   UNL d   1     -42.616-122.979 -47.170  0.00  0.00     0.004 A 
ATOM      8  C   UNL d   1     -41.144-123.024 -47.884  0.00  0.00     0.025 A 
ATOM      9  C   UNL d   1     -41.938-122.959 -46.702  0.00  0.00     0.000 A 
ATOM     10  C   UNL d   1     -41.197-122.982 -47.062  0.00  0.00     0.002 A 
ENDROOT
BRANCH   1  11
ATOM     11  C   UNL d   1     -42.415-123.149 -50.478  0.00  0.00     0.220 C 
ATOM     12  O   UNL d   1     -42.676-123.814 -50.858  0.00  0.00    -0.284 OA
BRANCH  11  13
ATOM     13  C   UNL d   1     -42.116-122.551 -50.916  0.00  0.00     0.041 A 
ATOM     14  C   UNL d   1     -42.455-121.800 -50.903  0.00  0.00     0.003 A 
ATOM     15  C   UNL d   1     -42.130-121.188 -51.367  0.00  0.00     0.000 A 
ATOM     16  C   UNL d   1     -41.451-121.340 -51.850  0.00  0.00     0.000 A 
ATOM     17  C   UNL d   1     -41.123-122.100 -51.851  0.00  0.00     0.000 A 
ATOM     18  C   UNL d   1     -41.123-120.738 -52.312  0.00  0.00     0.000 C 
ATOM     19  C   UNL d   1     -41.437-122.703 -51.399  0.00  0.00     0.003 A 
ENDBRANCH  11  13
ENDBRANCH   1  11
TORSDOF 2
ENDMDL
