MODEL 1
REMARK VINA RESULT:      -0.8      0.000      0.000
REMARK  5 active torsions:
REMARK  status: ('A' for Active; 'I' for Inactive)
REMARK    1  A    between atoms: C_11  and  C_4 
REMARK    2  A    between atoms: N_10  and  C_6 
REMARK    3  A    between atoms: C_13  and  C_9 
REMARK    4  A    between atoms: C_14  and  N_10 
REMARK    5  A    between atoms: C_15  and  C_14 
ROOT
ATOM      1  C   UNL d   1      32.851  21.712 -21.662  0.00  0.00     0.167 A 
ATOM      2  N   UNL d   1      33.019  21.033 -22.090  0.00  0.00    -0.195 N 
ATOM      3  N   UNL d   1      33.080  20.295 -20.895  0.00  0.00    -0.163 NA
ATOM      4  C   UNL d   1      32.800  21.678 -20.865  0.00  0.00     0.055 A 
ATOM      5  N   UNL d   1      32.740  22.412 -22.053  0.00  0.00    -0.227 NA
ATOM      6  C   UNL d   1      33.069  21.077 -22.895  0.00  0.00     0.167 A 
ATOM      7  C   UNL d   1      32.912  20.974 -20.467  0.00  0.00     0.104 A 
ATOM      8  C   UNL d   1      32.952  21.804 -23.290  0.00  0.00     0.058 A 
ATOM      9  C   UNL d   1      32.791  22.448 -22.853  0.00  0.00     0.086 A 
ATOM     10  C   UNL d   1      32.860  20.941 -19.673  0.00  0.00     0.023 C 
ENDROOT
BRANCH   6  11
ATOM     11  N   UNL d   1      33.241  20.383 -23.338  0.00  0.00    -0.224 NA
BRANCH  11  12
ATOM     12  C   UNL d   1      33.093  20.021 -24.084  0.00  0.00     0.120 C 
BRANCH  12  13
ATOM     13  C   UNL d   1      32.859  19.219 -24.128  0.00  0.00     0.101 A 
ATOM     14  N   UNL d   1      33.132  18.668 -23.554  0.00  0.00    -0.242 NA
ATOM     15  C   UNL d   1      32.898  17.864 -23.597  0.00  0.00     0.099 A 
ATOM     16  C   UNL d   1      32.388  17.612 -24.220  0.00  0.00     0.021 A 
ATOM     17  C   UNL d   1      32.112  18.162 -24.798  0.00  0.00     0.003 A 
ATOM     18  C   UNL d   1      32.352  18.966 -24.747  0.00  0.00     0.021 A 
ENDBRANCH  12  13
ENDBRANCH  11  12
ENDBRANCH   6  11
BRANCH   9  19
ATOM     19  C   UNL d   1      32.672  23.188 -23.261  0.00  0.00     0.018 C 
ATOM     20  C   UNL d   1      31.975  23.652 -23.088  0.00  0.00     0.002 C 
ATOM     21  C   UNL d   1      33.241  23.458 -23.829  0.00  0.00     0.002 C 
ENDBRANCH   9  19
BRANCH   4  22
ATOM     22  C   UNL d   1      32.631  22.364 -20.432  0.00  0.00     0.004 A 
ATOM     23  C   UNL d   1      33.231  22.850 -20.197  0.00  0.00     0.000 A 
ATOM     24  C   UNL d   1      33.064  23.526 -19.770  0.00  0.00     0.000 A 
ATOM     25  C   UNL d   1      32.300  23.702 -19.588  0.00  0.00     0.000 A 
ATOM     26  C   UNL d   1      31.696  23.209 -19.827  0.00  0.00     0.000 A 
ATOM     27  C   UNL d   1      31.869  22.545 -20.247  0.00  0.00     0.000 A 
ENDBRANCH   4  22
TORSDOF 5
ENDMDL
MODEL 2
REMARK VINA RESULT:       1.5      1.074      1.766
REMARK  5 active torsions:
REMARK  status: ('A' for Active; 'I' for Inactive)
REMARK    1  A    between atoms: C_11  and  C_4 
REMARK    2  A    between atoms: N_10  and  C_6 
REMARK    3  A    between atoms: C_13  and  C_9 
REMARK    4  A    between atoms: C_14  and  N_10 
REMARK    5  A    between atoms: C_15  and  C_14 
ROOT
ATOM      1  C   UNL d   1      32.825  20.616 -22.337  0.00  0.00     0.167 A 
ATOM      2  N   UNL d   1      32.924  19.826 -22.532  0.00  0.00    -0.195 N 
ATOM      3  N   UNL d   1      32.790  19.476 -21.176  0.00  0.00    -0.163 NA
ATOM      4  C   UNL d   1      32.712  20.827 -21.575  0.00  0.00     0.055 A 
ATOM      5  N   UNL d   1      32.845  21.175 -22.922  0.00  0.00    -0.227 NA
ATOM      6  C   UNL d   1      33.038  19.621 -23.304  0.00  0.00     0.167 A 
ATOM      7  C   UNL d   1      32.692  20.266 -20.982  0.00  0.00     0.104 A 
ATOM      8  C   UNL d   1      33.056  20.205 -23.902  0.00  0.00     0.058 A 
ATOM      9  C   UNL d   1      32.959  20.965 -23.688  0.00  0.00     0.086 A 
ATOM     10  C   UNL d   1      32.579  20.478 -20.223  0.00  0.00     0.023 C 
ENDROOT
BRANCH   6  11
ATOM     11  N   UNL d   1      33.139  18.811 -23.509  0.00  0.00    -0.224 NA
BRANCH  11  12
ATOM     12  C   UNL d   1      33.232  18.303 -24.174  0.00  0.00     0.120 C 
BRANCH  12  13
ATOM     13  C   UNL d   1      33.147  17.475 -24.092  0.00  0.00     0.101 A 
ATOM     14  N   UNL d   1      33.144  16.981 -24.774  0.00  0.00    -0.242 NA
ATOM     15  C   UNL d   1      33.059  16.151 -24.691  0.00  0.00     0.099 A 
ATOM     16  C   UNL d   1      32.975  15.815 -23.922  0.00  0.00     0.021 A 
ATOM     17  C   UNL d   1      32.978  16.307 -23.236  0.00  0.00     0.003 A 
ATOM     18  C   UNL d   1      33.064  17.138 -23.327  0.00  0.00     0.021 A 
ENDBRANCH  12  13
ENDBRANCH  11  12
ENDBRANCH   6  11
BRANCH   9  19
ATOM     19  C   UNL d   1      32.978  21.558 -24.301  0.00  0.00     0.018 C 
ATOM     20  C   UNL d   1      32.744  21.345 -25.095  0.00  0.00     0.002 C 
ATOM     21  C   UNL d   1      33.227  22.349 -24.122  0.00  0.00     0.002 C 
ENDBRANCH   9  19
BRANCH   4  22
ATOM     22  C   UNL d   1      32.613  21.627 -21.378  0.00  0.00     0.004 A 
ATOM     23  C   UNL d   1      31.887  21.972 -21.452  0.00  0.00     0.000 A 
ATOM     24  C   UNL d   1      31.789  22.759 -21.259  0.00  0.00     0.000 A 
ATOM     25  C   UNL d   1      32.419  23.184 -20.995  0.00  0.00     0.000 A 
ATOM     26  C   UNL d   1      33.152  22.832 -20.921  0.00  0.00     0.000 A 
ATOM     27  C   UNL d   1      33.239  22.056 -21.114  0.00  0.00     0.000 A 
ENDBRANCH   4  22
TORSDOF 5
ENDMDL
