MODEL 1
REMARK VINA RESULT:      -9.6      0.000      0.000
REMARK  1 active torsions:
REMARK  status: ('A' for Active; 'I' for Inactive)
REMARK    1  A    between atoms: C_6  and  C_1 
ROOT
ATOM      1  C   UNL d   1      54.324  33.475  54.729  0.00  0.00     0.128 A 
ATOM      2  C   UNL d   1      53.739  34.005  54.492  0.00  0.00     0.306 A 
ATOM      3  C   UNL d   1      54.305  32.686  54.463  0.00  0.00     0.013 A 
ATOM      4  O   UNL d   1      53.130  33.750  53.987  0.00  0.00    -0.273 OA
ATOM      5  C   UNL d   1      53.697  32.439  53.962  0.00  0.00     0.023 A 
ATOM      6  C   UNL d   1      53.112  32.970  53.725  0.00  0.00     0.103 A 
ATOM      7  O   UNL d   1      53.758  34.785  54.754  0.00  0.00    -0.259 OA
ATOM      8  C   UNL d   1      53.677  31.659  53.699  0.00  0.00     0.002 A 
ATOM      9  C   UNL d   1      52.506  32.721  53.224  0.00  0.00     0.025 A 
ATOM     10  C   UNL d   1      53.073  31.410  53.199  0.00  0.00     0.000 A 
ATOM     11  C   UNL d   1      52.488  31.941  52.962  0.00  0.00     0.002 A 
ATOM     12  C   UNL d   1      53.053  30.630  52.936  0.00  0.00     0.000 C 
ENDROOT
BRANCH   1  13
ATOM     13  C   UNL d   1      54.931  33.727  55.231  0.00  0.00     0.216 C 
ATOM     14  O   UNL d   1      55.612  34.069  54.914  0.00  0.00    -0.644 OA
ATOM     15  O   UNL d   1      54.855  33.639  56.045  0.00  0.00    -0.644 OA
ENDBRANCH   1  13
TORSDOF 1
ENDMDL
MODEL 2
REMARK VINA RESULT:      -9.4      1.512      3.122
REMARK  1 active torsions:
REMARK  status: ('A' for Active; 'I' for Inactive)
REMARK    1  A    between atoms: C_6  and  C_1 
ROOT
ATOM      1  C   UNL d   1      52.992  31.664  53.225  0.00  0.00     0.128 A 
ATOM      2  C   UNL d   1      52.515  32.285  52.966  0.00  0.00     0.306 A 
ATOM      3  C   UNL d   1      53.595  31.806  53.783  0.00  0.00     0.013 A 
ATOM      4  O   UNL d   1      52.637  33.052  53.263  0.00  0.00    -0.273 OA
ATOM      5  C   UNL d   1      53.710  32.570  54.072  0.00  0.00     0.023 A 
ATOM      6  C   UNL d   1      53.233  33.191  53.813  0.00  0.00     0.103 A 
ATOM      7  O   UNL d   1      51.919  32.146  52.416  0.00  0.00    -0.259 OA
ATOM      8  C   UNL d   1      54.306  32.711  54.623  0.00  0.00     0.002 A 
ATOM      9  C   UNL d   1      53.351  33.952  54.105  0.00  0.00     0.025 A 
ATOM     10  C   UNL d   1      54.424  33.471  54.915  0.00  0.00     0.000 A 
ATOM     11  C   UNL d   1      53.947  34.092  54.655  0.00  0.00     0.002 A 
ATOM     12  C   UNL d   1      55.020  33.611  55.466  0.00  0.00     0.000 C 
ENDROOT
BRANCH   1  13
ATOM     13  C   UNL d   1      52.871  30.901  52.931  0.00  0.00     0.216 C 
ATOM     14  O   UNL d   1      52.436  30.355  53.370  0.00  0.00    -0.644 OA
ATOM     15  O   UNL d   1      53.185  30.686  52.202  0.00  0.00    -0.644 OA
ENDBRANCH   1  13
TORSDOF 1
ENDMDL
MODEL 3
REMARK VINA RESULT:      -9.1      1.412      2.661
REMARK  1 active torsions:
REMARK  status: ('A' for Active; 'I' for Inactive)
REMARK    1  A    between atoms: C_6  and  C_1 
ROOT
ATOM      1  C   UNL d   1      52.022  33.707  52.871  0.00  0.00     0.128 A 
ATOM      2  C   UNL d   1      52.639  34.110  53.242  0.00  0.00     0.306 A 
ATOM      3  C   UNL d   1      52.042  32.876  52.814  0.00  0.00     0.013 A 
ATOM      4  O   UNL d   1      53.279  33.685  53.558  0.00  0.00    -0.273 OA
ATOM      5  C   UNL d   1      52.681  32.461  53.130  0.00  0.00     0.023 A 
ATOM      6  C   UNL d   1      53.298  32.864  53.501  0.00  0.00     0.103 A 
ATOM      7  O   UNL d   1      52.621  34.931  53.300  0.00  0.00    -0.259 OA
ATOM      8  C   UNL d   1      52.700  31.639  53.074  0.00  0.00     0.002 A 
ATOM      9  C   UNL d   1      53.934  32.445  53.815  0.00  0.00     0.025 A 
ATOM     10  C   UNL d   1      53.336  31.221  53.387  0.00  0.00     0.000 A 
ATOM     11  C   UNL d   1      53.953  31.624  53.758  0.00  0.00     0.002 A 
ATOM     12  C   UNL d   1      53.355  30.400  53.331  0.00  0.00     0.000 C 
ENDROOT
BRANCH   1  13
ATOM     13  C   UNL d   1      51.385  34.129  52.557  0.00  0.00     0.216 C 
ATOM     14  O   UNL d   1      51.382  34.333  51.757  0.00  0.00    -0.644 OA
ATOM     15  O   UNL d   1      50.755  34.345  53.040  0.00  0.00    -0.644 OA
ENDBRANCH   1  13
TORSDOF 1
ENDMDL
MODEL 4
REMARK VINA RESULT:      -9.1      1.777      3.139
REMARK  1 active torsions:
REMARK  status: ('A' for Active; 'I' for Inactive)
REMARK    1  A    between atoms: C_6  and  C_1 
ROOT
ATOM      1  C   UNL d   1      52.109  33.417  53.346  0.00  0.00     0.128 A 
ATOM      2  C   UNL d   1      52.436  32.847  52.847  0.00  0.00     0.306 A 
ATOM      3  C   UNL d   1      52.559  33.728  53.974  0.00  0.00     0.013 A 
ATOM      4  O   UNL d   1      53.215  32.585  52.972  0.00  0.00    -0.273 OA
ATOM      5  C   UNL d   1      53.332  33.463  54.093  0.00  0.00     0.023 A 
ATOM      6  C   UNL d   1      53.658  32.893  53.594  0.00  0.00     0.103 A 
ATOM      7  O   UNL d   1      51.993  32.539  52.226  0.00  0.00    -0.259 OA
ATOM      8  C   UNL d   1      53.776  33.771  54.714  0.00  0.00     0.002 A 
ATOM      9  C   UNL d   1      54.430  32.631  53.715  0.00  0.00     0.025 A 
ATOM     10  C   UNL d   1      54.547  33.509  54.836  0.00  0.00     0.000 A 
ATOM     11  C   UNL d   1      54.874  32.940  54.336  0.00  0.00     0.002 A 
ATOM     12  C   UNL d   1      54.992  33.817  55.457  0.00  0.00     0.000 C 
ENDROOT
BRANCH   1  13
ATOM     13  C   UNL d   1      51.335  33.678  53.222  0.00  0.00     0.216 C 
ATOM     14  O   UNL d   1      51.198  34.372  52.798  0.00  0.00    -0.644 OA
ATOM     15  O   UNL d   1      50.701  33.246  53.520  0.00  0.00    -0.644 OA
ENDBRANCH   1  13
TORSDOF 1
ENDMDL
MODEL 5
REMARK VINA RESULT:      -8.8      1.860      2.933
REMARK  1 active torsions:
REMARK  status: ('A' for Active; 'I' for Inactive)
REMARK    1  A    between atoms: C_6  and  C_1 
ROOT
ATOM      1  C   UNL d   1      53.289  31.974  53.461  0.00  0.00     0.128 A 
ATOM      2  C   UNL d   1      52.739  31.975  52.845  0.00  0.00     0.306 A 
ATOM      3  C   UNL d   1      53.451  32.677  53.876  0.00  0.00     0.013 A 
ATOM      4  O   UNL d   1      52.349  32.680  52.641  0.00  0.00    -0.273 OA
ATOM      5  C   UNL d   1      53.059  33.373  53.669  0.00  0.00     0.023 A 
ATOM      6  C   UNL d   1      52.510  33.374  53.053  0.00  0.00     0.103 A 
ATOM      7  O   UNL d   1      52.579  31.281  52.433  0.00  0.00    -0.259 OA
ATOM      8  C   UNL d   1      53.219  34.068  54.080  0.00  0.00     0.002 A 
ATOM      9  C   UNL d   1      52.121  34.071  52.848  0.00  0.00     0.025 A 
ATOM     10  C   UNL d   1      52.831  34.764  53.875  0.00  0.00     0.000 A 
ATOM     11  C   UNL d   1      52.281  34.766  53.260  0.00  0.00     0.002 A 
ATOM     12  C   UNL d   1      52.991  35.460  54.286  0.00  0.00     0.000 C 
ENDROOT
BRANCH   1  13
ATOM     13  C   UNL d   1      53.678  31.273  53.664  0.00  0.00     0.216 C 
ATOM     14  O   UNL d   1      54.411  31.098  53.329  0.00  0.00    -0.644 OA
ATOM     15  O   UNL d   1      53.334  30.752  54.200  0.00  0.00    -0.644 OA
ENDBRANCH   1  13
TORSDOF 1
ENDMDL
MODEL 6
REMARK VINA RESULT:      -8.7      1.303      2.185
REMARK  1 active torsions:
REMARK  status: ('A' for Active; 'I' for Inactive)
REMARK    1  A    between atoms: C_6  and  C_1 
ROOT
ATOM      1  C   UNL d   1      53.466  32.401  53.523  0.00  0.00     0.128 A 
ATOM      2  C   UNL d   1      52.966  32.329  52.871  0.00  0.00     0.306 A 
ATOM      3  C   UNL d   1      53.670  31.728  53.969  0.00  0.00     0.013 A 
ATOM      4  O   UNL d   1      52.667  31.583  52.661  0.00  0.00    -0.273 OA
ATOM      5  C   UNL d   1      53.370  30.990  53.754  0.00  0.00     0.023 A 
ATOM      6  C   UNL d   1      52.870  30.918  53.102  0.00  0.00     0.103 A 
ATOM      7  O   UNL d   1      52.764  32.994  52.430  0.00  0.00    -0.259 OA
ATOM      8  C   UNL d   1      53.571  30.324  54.194  0.00  0.00     0.002 A 
ATOM      9  C   UNL d   1      52.571  30.180  52.890  0.00  0.00     0.025 A 
ATOM     10  C   UNL d   1      53.274  29.587  53.983  0.00  0.00     0.000 A 
ATOM     11  C   UNL d   1      52.774  29.515  53.331  0.00  0.00     0.002 A 
ATOM     12  C   UNL d   1      53.476  28.921  54.424  0.00  0.00     0.000 C 
ENDROOT
BRANCH   1  13
ATOM     13  C   UNL d   1      53.764  33.144  53.734  0.00  0.00     0.216 C 
ATOM     14  O   UNL d   1      54.517  33.370  53.484  0.00  0.00    -0.644 OA
ATOM     15  O   UNL d   1      53.311  33.655  54.192  0.00  0.00    -0.644 OA
ENDBRANCH   1  13
TORSDOF 1
ENDMDL
MODEL 7
REMARK VINA RESULT:      -8.6      0.925      1.806
REMARK  1 active torsions:
REMARK  status: ('A' for Active; 'I' for Inactive)
REMARK    1  A    between atoms: C_6  and  C_1 
ROOT
ATOM      1  C   UNL d   1      53.139  34.413  54.182  0.00  0.00     0.128 A 
ATOM      2  C   UNL d   1      53.632  34.211  54.813  0.00  0.00     0.306 A 
ATOM      3  C   UNL d   1      52.896  33.830  53.640  0.00  0.00     0.013 A 
ATOM      4  O   UNL d   1      53.884  33.425  54.904  0.00  0.00    -0.273 OA
ATOM      5  C   UNL d   1      53.150  33.051  53.738  0.00  0.00     0.023 A 
ATOM      6  C   UNL d   1      53.642  32.849  54.368  0.00  0.00     0.103 A 
ATOM      7  O   UNL d   1      53.873  34.787  55.349  0.00  0.00    -0.259 OA
ATOM      8  C   UNL d   1      52.909  32.474  53.202  0.00  0.00     0.002 A 
ATOM      9  C   UNL d   1      53.894  32.070  54.462  0.00  0.00     0.025 A 
ATOM     10  C   UNL d   1      53.160  31.697  53.296  0.00  0.00     0.000 A 
ATOM     11  C   UNL d   1      53.652  31.494  53.926  0.00  0.00     0.002 A 
ATOM     12  C   UNL d   1      52.919  31.120  52.760  0.00  0.00     0.000 C 
ENDROOT
BRANCH   1  13
ATOM     13  C   UNL d   1      52.888  35.196  54.090  0.00  0.00     0.216 C 
ATOM     14  O   UNL d   1      53.445  35.798  54.001  0.00  0.00    -0.644 OA
ATOM     15  O   UNL d   1      52.085  35.373  54.088  0.00  0.00    -0.644 OA
ENDBRANCH   1  13
TORSDOF 1
ENDMDL
MODEL 8
REMARK VINA RESULT:      -8.5      1.273      2.034
REMARK  1 active torsions:
REMARK  status: ('A' for Active; 'I' for Inactive)
REMARK    1  A    between atoms: C_6  and  C_1 
ROOT
ATOM      1  C   UNL d   1      53.916  33.370  54.420  0.00  0.00     0.128 A 
ATOM      2  C   UNL d   1      54.098  32.864  53.795  0.00  0.00     0.306 A 
ATOM      3  C   UNL d   1      53.204  33.802  54.412  0.00  0.00     0.013 A 
ATOM      4  O   UNL d   1      53.571  32.787  53.157  0.00  0.00    -0.273 OA
ATOM      5  C   UNL d   1      52.685  33.722  53.776  0.00  0.00     0.023 A 
ATOM      6  C   UNL d   1      52.868  33.216  53.150  0.00  0.00     0.103 A 
ATOM      7  O   UNL d   1      54.801  32.436  53.801  0.00  0.00    -0.259 OA
ATOM      8  C   UNL d   1      51.981  34.149  53.768  0.00  0.00     0.002 A 
ATOM      9  C   UNL d   1      52.347  33.137  52.517  0.00  0.00     0.025 A 
ATOM     10  C   UNL d   1      51.461  34.071  53.135  0.00  0.00     0.000 A 
ATOM     11  C   UNL d   1      51.644  33.565  52.510  0.00  0.00     0.002 A 
ATOM     12  C   UNL d   1      50.757  34.499  53.127  0.00  0.00     0.000 C 
ENDROOT
BRANCH   1  13
ATOM     13  C   UNL d   1      54.440  33.446  55.055  0.00  0.00     0.216 C 
ATOM     14  O   UNL d   1      54.978  34.072  55.070  0.00  0.00    -0.644 OA
ATOM     15  O   UNL d   1      54.426  32.900  55.669  0.00  0.00    -0.644 OA
ENDBRANCH   1  13
TORSDOF 1
ENDMDL
