MODEL 1
REMARK VINA RESULT:      -7.3      0.000      0.000
REMARK  0 active torsions:
REMARK  status: ('A' for Active; 'I' for Inactive)
ROOT
ATOM      1  N   UNL d   1     -47.098  12.059  23.475  0.00  0.00    -0.248 N 
ATOM      2  C   UNL d   1     -47.912  12.097  23.445  0.00  0.00     0.208 A 
ATOM      3  C   UNL d   1     -46.630  12.743  23.283  0.00  0.00     0.268 A 
ATOM      4  C   UNL d   1     -46.992  13.420  23.073  0.00  0.00     0.074 A 
ATOM      5  N   UNL d   1     -48.272  12.819  23.222  0.00  0.00    -0.218 NA
ATOM      6  C   UNL d   1     -47.811  13.458  23.043  0.00  0.00     0.088 A 
ATOM      7  S   UNL d   1     -48.389  11.436  23.630  0.00  0.00    -0.038 SA
ATOM      8  O   UNL d   1     -45.801  12.704  23.314  0.00  0.00    -0.267 OA
ATOM      9  C   UNL d   1     -46.696  11.343  23.697  0.00  0.00     0.104 C 
ATOM     10  C   UNL d   1     -46.538  14.096  22.883  0.00  0.00     0.006 A 
ATOM     11  C   UNL d   1     -48.193  14.183  22.818  0.00  0.00     0.019 A 
ATOM     12  C   UNL d   1     -46.907  14.802  22.665  0.00  0.00     0.000 A 
ATOM     13  C   UNL d   1     -47.731  14.840  22.634  0.00  0.00     0.002 A 
ENDROOT
TORSDOF 0
ENDMDL
MODEL 2
REMARK VINA RESULT:      -7.0      1.802      2.339
REMARK  0 active torsions:
REMARK  status: ('A' for Active; 'I' for Inactive)
ROOT
ATOM      1  N   UNL d   1     -47.462  12.121  23.147  0.00  0.00    -0.248 N 
ATOM      2  C   UNL d   1     -47.193  12.812  22.808  0.00  0.00     0.208 A 
ATOM      3  C   UNL d   1     -48.235  11.821  22.956  0.00  0.00     0.268 A 
ATOM      4  C   UNL d   1     -48.694  12.220  22.442  0.00  0.00     0.074 A 
ATOM      5  N   UNL d   1     -47.693  13.215  22.270  0.00  0.00    -0.218 NA
ATOM      6  C   UNL d   1     -48.424  12.915  22.100  0.00  0.00     0.088 A 
ATOM      7  S   UNL d   1     -46.437  13.122  22.984  0.00  0.00    -0.038 SA
ATOM      8  O   UNL d   1     -48.508  11.118  23.301  0.00  0.00    -0.267 OA
ATOM      9  C   UNL d   1     -46.984  11.683  23.698  0.00  0.00     0.104 C 
ATOM     10  C   UNL d   1     -49.454  11.931  22.249  0.00  0.00     0.006 A 
ATOM     11  C   UNL d   1     -48.917  13.338  21.553  0.00  0.00     0.019 A 
ATOM     12  C   UNL d   1     -49.936  12.340  21.717  0.00  0.00     0.000 A 
ATOM     13  C   UNL d   1     -49.664  13.040  21.373  0.00  0.00     0.002 A 
ENDROOT
TORSDOF 0
ENDMDL
MODEL 3
REMARK VINA RESULT:      -6.9      1.718      2.541
REMARK  0 active torsions:
REMARK  status: ('A' for Active; 'I' for Inactive)
ROOT
ATOM      1  N   UNL d   1     -49.503  12.296  23.048  0.00  0.00    -0.248 N 
ATOM      2  C   UNL d   1     -49.302  13.020  22.732  0.00  0.00     0.208 A 
ATOM      3  C   UNL d   1     -48.903  11.790  23.377  0.00  0.00     0.268 A 
ATOM      4  C   UNL d   1     -48.144  12.029  23.375  0.00  0.00     0.074 A 
ATOM      5  N   UNL d   1     -48.497  13.251  22.741  0.00  0.00    -0.218 NA
ATOM      6  C   UNL d   1     -47.941  12.758  23.058  0.00  0.00     0.088 A 
ATOM      7  S   UNL d   1     -49.877  13.531  22.404  0.00  0.00    -0.038 SA
ATOM      8  O   UNL d   1     -49.108  11.052  23.698  0.00  0.00    -0.267 OA
ATOM      9  C   UNL d   1     -50.309  12.026  23.057  0.00  0.00     0.104 C 
ATOM     10  C   UNL d   1     -47.549  11.537  23.697  0.00  0.00     0.006 A 
ATOM     11  C   UNL d   1     -47.130  13.009  23.058  0.00  0.00     0.019 A 
ATOM     12  C   UNL d   1     -46.759  11.779  23.698  0.00  0.00     0.000 A 
ATOM     13  C   UNL d   1     -46.556  12.512  23.379  0.00  0.00     0.002 A 
ENDROOT
TORSDOF 0
ENDMDL
MODEL 4
REMARK VINA RESULT:      -6.8      1.484      2.416
REMARK  0 active torsions:
REMARK  status: ('A' for Active; 'I' for Inactive)
ROOT
ATOM      1  N   UNL d   1     -48.857  14.557  22.784  0.00  0.00    -0.248 N 
ATOM      2  C   UNL d   1     -49.151  13.835  23.020  0.00  0.00     0.208 A 
ATOM      3  C   UNL d   1     -48.019  14.667  22.685  0.00  0.00     0.268 A 
ATOM      4  C   UNL d   1     -47.524  14.059  22.825  0.00  0.00     0.074 A 
ATOM      5  N   UNL d   1     -48.613  13.209  23.162  0.00  0.00    -0.218 NA
ATOM      6  C   UNL d   1     -47.821  13.332  23.063  0.00  0.00     0.088 A 
ATOM      7  S   UNL d   1     -49.972  13.707  23.123  0.00  0.00    -0.038 SA
ATOM      8  O   UNL d   1     -47.719  15.403  22.444  0.00  0.00    -0.267 OA
ATOM      9  C   UNL d   1     -49.372  15.216  22.630  0.00  0.00     0.104 C 
ATOM     10  C   UNL d   1     -46.700  14.160  22.730  0.00  0.00     0.006 A 
ATOM     11  C   UNL d   1     -47.290  12.686  23.211  0.00  0.00     0.019 A 
ATOM     12  C   UNL d   1     -46.181  13.533  22.874  0.00  0.00     0.000 A 
ATOM     13  C   UNL d   1     -46.479  12.802  23.113  0.00  0.00     0.002 A 
ENDROOT
TORSDOF 0
ENDMDL
MODEL 5
REMARK VINA RESULT:      -6.6      1.529      2.063
REMARK  0 active torsions:
REMARK  status: ('A' for Active; 'I' for Inactive)
ROOT
ATOM      1  N   UNL d   1     -47.306  12.756  23.045  0.00  0.00    -0.248 N 
ATOM      2  C   UNL d   1     -47.591  12.009  23.206  0.00  0.00     0.208 A 
ATOM      3  C   UNL d   1     -47.748  13.286  22.547  0.00  0.00     0.268 A 
ATOM      4  C   UNL d   1     -48.443  13.047  22.239  0.00  0.00     0.074 A 
ATOM      5  N   UNL d   1     -48.323  11.779  22.871  0.00  0.00    -0.218 NA
ATOM      6  C   UNL d   1     -48.729  12.296  22.401  0.00  0.00     0.088 A 
ATOM      7  S   UNL d   1     -47.171  11.475  23.693  0.00  0.00    -0.038 SA
ATOM      8  O   UNL d   1     -47.458  14.046  22.384  0.00  0.00    -0.267 OA
ATOM      9  C   UNL d   1     -46.567  13.026  23.367  0.00  0.00     0.104 C 
ATOM     10  C   UNL d   1     -48.882  13.562  21.749  0.00  0.00     0.006 A 
ATOM     11  C   UNL d   1     -49.470  12.044  22.070  0.00  0.00     0.019 A 
ATOM     12  C   UNL d   1     -49.603  13.320  21.426  0.00  0.00     0.000 A 
ATOM     13  C   UNL d   1     -49.892  12.564  21.589  0.00  0.00     0.002 A 
ENDROOT
TORSDOF 0
ENDMDL
MODEL 6
REMARK VINA RESULT:      -5.2      8.004      8.669
REMARK  0 active torsions:
REMARK  status: ('A' for Active; 'I' for Inactive)
ROOT
ATOM      1  N   UNL d   1     -40.175  14.810  17.940  0.00  0.00    -0.248 N 
ATOM      2  C   UNL d   1     -39.809  15.531  18.043  0.00  0.00     0.208 A 
ATOM      3  C   UNL d   1     -40.561  14.427  18.595  0.00  0.00     0.268 A 
ATOM      4  C   UNL d   1     -40.563  14.779  19.309  0.00  0.00     0.074 A 
ATOM      5  N   UNL d   1     -39.823  15.883  18.803  0.00  0.00    -0.218 NA
ATOM      6  C   UNL d   1     -40.195  15.505  19.413  0.00  0.00     0.088 A 
ATOM      7  S   UNL d   1     -39.425  15.922  17.412  0.00  0.00    -0.038 SA
ATOM      8  O   UNL d   1     -40.934  13.693  18.490  0.00  0.00    -0.267 OA
ATOM      9  C   UNL d   1     -40.183  14.421  17.184  0.00  0.00     0.104 C 
ATOM     10  C   UNL d   1     -40.940  14.409  19.957  0.00  0.00     0.006 A 
ATOM     11  C   UNL d   1     -40.198  15.877  20.176  0.00  0.00     0.019 A 
ATOM     12  C   UNL d   1     -40.945  14.769  20.701  0.00  0.00     0.000 A 
ATOM     13  C   UNL d   1     -40.575  15.499  20.805  0.00  0.00     0.002 A 
ENDROOT
TORSDOF 0
ENDMDL
MODEL 7
REMARK VINA RESULT:      -5.1      9.652     10.180
REMARK  0 active torsions:
REMARK  status: ('A' for Active; 'I' for Inactive)
ROOT
ATOM      1  N   UNL d   1     -38.526  13.549  16.898  0.00  0.00    -0.248 N 
ATOM      2  C   UNL d   1     -38.520  14.121  16.318  0.00  0.00     0.208 A 
ATOM      3  C   UNL d   1     -39.120  13.562  17.508  0.00  0.00     0.268 A 
ATOM      4  C   UNL d   1     -39.670  14.138  17.507  0.00  0.00     0.074 A 
ATOM      5  N   UNL d   1     -39.107  14.717  16.336  0.00  0.00    -0.218 NA
ATOM      6  C   UNL d   1     -39.663  14.714  16.923  0.00  0.00     0.088 A 
ATOM      7  S   UNL d   1     -37.944  14.125  15.711  0.00  0.00    -0.038 SA
ATOM      8  O   UNL d   1     -39.126  12.980  18.098  0.00  0.00    -0.267 OA
ATOM      9  C   UNL d   1     -37.946  12.927  16.913  0.00  0.00     0.104 C 
ATOM     10  C   UNL d   1     -40.256  14.158  18.102  0.00  0.00     0.006 A 
ATOM     11  C   UNL d   1     -40.252  15.327  16.925  0.00  0.00     0.019 A 
ATOM     12  C   UNL d   1     -40.829  14.752  18.107  0.00  0.00     0.000 A 
ATOM     13  C   UNL d   1     -40.823  15.332  17.520  0.00  0.00     0.002 A 
ENDROOT
TORSDOF 0
ENDMDL
MODEL 8
REMARK VINA RESULT:      -5.0      9.573     10.198
REMARK  0 active torsions:
REMARK  status: ('A' for Active; 'I' for Inactive)
ROOT
ATOM      1  N   UNL d   1     -40.205  14.599  17.794  0.00  0.00    -0.248 N 
ATOM      2  C   UNL d   1     -40.208  14.982  17.075  0.00  0.00     0.208 A 
ATOM      3  C   UNL d   1     -39.622  14.000  17.958  0.00  0.00     0.268 A 
ATOM      4  C   UNL d   1     -39.081  13.818  17.403  0.00  0.00     0.074 A 
ATOM      5  N   UNL d   1     -39.629  14.775  16.507  0.00  0.00    -0.218 NA
ATOM      6  C   UNL d   1     -39.084  14.204  16.680  0.00  0.00     0.088 A 
ATOM      7  S   UNL d   1     -40.772  15.573  16.895  0.00  0.00    -0.038 SA
ATOM      8  O   UNL d   1     -39.619  13.609  18.690  0.00  0.00    -0.267 OA
ATOM      9  C   UNL d   1     -40.776  14.782  18.396  0.00  0.00     0.104 C 
ATOM     10  C   UNL d   1     -38.505  13.230  17.558  0.00  0.00     0.006 A 
ATOM     11  C   UNL d   1     -38.504  14.006  16.091  0.00  0.00     0.019 A 
ATOM     12  C   UNL d   1     -37.941  13.037  16.987  0.00  0.00     0.000 A 
ATOM     13  C   UNL d   1     -37.944  13.425  16.259  0.00  0.00     0.002 A 
ENDROOT
TORSDOF 0
ENDMDL
MODEL 9
REMARK VINA RESULT:      -4.3      1.782      2.364
REMARK  0 active torsions:
REMARK  status: ('A' for Active; 'I' for Inactive)
ROOT
ATOM      1  N   UNL d   1     -44.765  11.549  22.974  0.00  0.00    -0.248 N 
ATOM      2  C   UNL d   1     -45.172  11.010  23.431  0.00  0.00     0.208 A 
ATOM      3  C   UNL d   1     -45.145  12.263  22.712  0.00  0.00     0.268 A 
ATOM      4  C   UNL d   1     -45.903  12.402  22.915  0.00  0.00     0.074 A 
ATOM      5  N   UNL d   1     -45.968  11.176  23.633  0.00  0.00    -0.218 NA
ATOM      6  C   UNL d   1     -46.313  11.860  23.374  0.00  0.00     0.088 A 
ATOM      7  S   UNL d   1     -44.816  10.302  23.698  0.00  0.00    -0.038 SA
ATOM      8  O   UNL d   1     -44.730  12.812  22.247  0.00  0.00    -0.267 OA
ATOM      9  C   UNL d   1     -43.956  11.415  22.748  0.00  0.00     0.104 C 
ATOM     10  C   UNL d   1     -46.283  13.102  22.661  0.00  0.00     0.006 A 
ATOM     11  C   UNL d   1     -47.120  12.012  23.589  0.00  0.00     0.019 A 
ATOM     12  C   UNL d   1     -47.068  13.252  22.868  0.00  0.00     0.000 A 
ATOM     13  C   UNL d   1     -47.480  12.706  23.330  0.00  0.00     0.002 A 
ENDROOT
TORSDOF 0
ENDMDL
