MODEL 1
REMARK VINA RESULT:      44.6      0.000      0.000
REMARK  4 active torsions:
REMARK  status: ('A' for Active; 'I' for Inactive)
REMARK    1  A    between atoms: C_6  and  C_2 
REMARK    2  A    between atoms: C_7  and  C_5 
REMARK    3  A    between atoms: O_8  and  C_7 
REMARK    4  A    between atoms: C_9  and  O_8 
ROOT
ATOM      1  N   UNL d   1     -49.332  26.107  33.377  0.00  0.00    -0.121 NA
ATOM      2  C   UNL d   1     -50.097  26.312  33.588  0.00  0.00     0.204 A 
ATOM      3  O   UNL d   1     -50.072  27.076  33.916  0.00  0.00    -0.267 OA
ATOM      4  N   UNL d   1     -48.831  26.733  33.569  0.00  0.00    -0.119 NA
ATOM      5  C   UNL d   1     -49.289  27.333  33.903  0.00  0.00     0.230 A 
ENDROOT
BRANCH   5   6
ATOM      6  C   UNL d   1     -49.007  28.059  34.174  0.00  0.00     0.169 C 
BRANCH   6   7
ATOM      7  O   UNL d   1     -48.246  28.118  34.493  0.00  0.00    -0.301 OA
BRANCH   7   8
ATOM      8  C   UNL d   1     -48.054  28.764  34.974  0.00  0.00     0.100 A 
ATOM      9  C   UNL d   1     -47.911  29.504  34.637  0.00  0.00     0.025 A 
ATOM     10  C   UNL d   1     -47.721  30.142  35.121  0.00  0.00     0.002 A 
ATOM     11  C   UNL d   1     -47.672  30.045  35.938  0.00  0.00     0.000 A 
ATOM     12  C   UNL d   1     -47.816  29.301  36.273  0.00  0.00     0.002 A 
ATOM     13  C   UNL d   1     -48.007  28.654  35.796  0.00  0.00     0.025 A 
ENDBRANCH   7   8
ENDBRANCH   6   7
ENDBRANCH   5   6
BRANCH   2  14
ATOM     14  C   UNL d   1     -50.773  25.849  33.494  0.00  0.00     0.043 A 
ATOM     15  C   UNL d   1     -51.521  26.203  33.494  0.00  0.00     0.004 A 
ATOM     16  C   UNL d   1     -52.197  25.740  33.400  0.00  0.00     0.000 A 
ATOM     17  C   UNL d   1     -52.127  24.924  33.306  0.00  0.00     0.000 A 
ATOM     18  C   UNL d   1     -51.379  24.570  33.306  0.00  0.00     0.000 A 
ATOM     19  C   UNL d   1     -50.703  25.033  33.400  0.00  0.00     0.004 A 
ENDBRANCH   2  14
TORSDOF 4
ENDMDL
MODEL 2
REMARK VINA RESULT:      46.1      1.064      5.067
REMARK  4 active torsions:
REMARK  status: ('A' for Active; 'I' for Inactive)
REMARK    1  A    between atoms: C_6  and  C_2 
REMARK    2  A    between atoms: C_7  and  C_5 
REMARK    3  A    between atoms: O_8  and  C_7 
REMARK    4  A    between atoms: C_9  and  O_8 
ROOT
ATOM      1  N   UNL d   1     -50.014  27.558  33.472  0.00  0.00    -0.121 NA
ATOM      2  C   UNL d   1     -49.627  27.342  34.161  0.00  0.00     0.204 A 
ATOM      3  O   UNL d   1     -49.962  26.630  34.428  0.00  0.00    -0.267 OA
ATOM      4  N   UNL d   1     -50.588  26.989  33.306  0.00  0.00    -0.119 NA
ATOM      5  C   UNL d   1     -50.556  26.414  33.898  0.00  0.00     0.230 A 
ENDROOT
BRANCH   5   6
ATOM      6  C   UNL d   1     -51.036  25.745  33.945  0.00  0.00     0.169 C 
BRANCH   6   7
ATOM      7  O   UNL d   1     -51.023  25.180  33.340  0.00  0.00    -0.301 OA
BRANCH   7   8
ATOM      8  C   UNL d   1     -51.592  24.577  33.333  0.00  0.00     0.100 A 
ATOM      9  C   UNL d   1     -51.358  23.787  33.323  0.00  0.00     0.025 A 
ATOM     10  C   UNL d   1     -51.927  23.193  33.316  0.00  0.00     0.002 A 
ATOM     11  C   UNL d   1     -52.729  23.385  33.319  0.00  0.00     0.000 A 
ATOM     12  C   UNL d   1     -52.961  24.180  33.329  0.00  0.00     0.002 A 
ATOM     13  C   UNL d   1     -52.397  24.783  33.336  0.00  0.00     0.025 A 
ENDBRANCH   7   8
ENDBRANCH   6   7
ENDBRANCH   5   6
BRANCH   2  14
ATOM     14  C   UNL d   1     -49.013  27.753  34.528  0.00  0.00     0.043 A 
ATOM     15  C   UNL d   1     -49.140  28.518  34.814  0.00  0.00     0.004 A 
ATOM     16  C   UNL d   1     -48.526  28.929  35.181  0.00  0.00     0.000 A 
ATOM     17  C   UNL d   1     -47.786  28.576  35.263  0.00  0.00     0.000 A 
ATOM     18  C   UNL d   1     -47.658  27.810  34.977  0.00  0.00     0.000 A 
ATOM     19  C   UNL d   1     -48.272  27.399  34.610  0.00  0.00     0.004 A 
ENDBRANCH   2  14
TORSDOF 4
ENDMDL
MODEL 3
REMARK VINA RESULT:      46.7      1.032      4.995
REMARK  4 active torsions:
REMARK  status: ('A' for Active; 'I' for Inactive)
REMARK    1  A    between atoms: C_6  and  C_2 
REMARK    2  A    between atoms: C_7  and  C_5 
REMARK    3  A    between atoms: O_8  and  C_7 
REMARK    4  A    between atoms: C_9  and  O_8 
ROOT
ATOM      1  N   UNL d   1     -48.714  28.470  35.924  0.00  0.00    -0.121 NA
ATOM      2  C   UNL d   1     -48.325  28.896  35.342  0.00  0.00     0.204 A 
ATOM      3  O   UNL d   1     -48.445  28.504  34.619  0.00  0.00    -0.267 OA
ATOM      4  N   UNL d   1     -49.075  27.817  35.573  0.00  0.00    -0.119 NA
ATOM      5  C   UNL d   1     -48.909  27.837  34.765  0.00  0.00     0.230 A 
ENDROOT
BRANCH   5   6
ATOM      6  C   UNL d   1     -49.164  27.286  34.207  0.00  0.00     0.169 C 
BRANCH   6   7
ATOM      7  O   UNL d   1     -49.855  27.422  33.773  0.00  0.00    -0.301 OA
BRANCH   7   8
ATOM      8  C   UNL d   1     -50.370  26.792  33.616  0.00  0.00     0.100 A 
ATOM      9  C   UNL d   1     -51.178  26.929  33.531  0.00  0.00     0.025 A 
ATOM     10  C   UNL d   1     -51.684  26.299  33.376  0.00  0.00     0.002 A 
ATOM     11  C   UNL d   1     -51.387  25.534  33.306  0.00  0.00     0.000 A 
ATOM     12  C   UNL d   1     -50.574  25.400  33.393  0.00  0.00     0.002 A 
ATOM     13  C   UNL d   1     -50.058  26.025  33.548  0.00  0.00     0.025 A 
ENDBRANCH   7   8
ENDBRANCH   6   7
ENDBRANCH   5   6
BRANCH   2  14
ATOM     14  C   UNL d   1     -47.892  29.590  35.448  0.00  0.00     0.043 A 
ATOM     15  C   UNL d   1     -47.359  29.653  36.077  0.00  0.00     0.004 A 
ATOM     16  C   UNL d   1     -46.926  30.347  36.183  0.00  0.00     0.000 A 
ATOM     17  C   UNL d   1     -47.024  30.977  35.660  0.00  0.00     0.000 A 
ATOM     18  C   UNL d   1     -47.556  30.914  35.030  0.00  0.00     0.000 A 
ATOM     19  C   UNL d   1     -47.990  30.220  34.924  0.00  0.00     0.004 A 
ENDBRANCH   2  14
TORSDOF 4
ENDMDL
