MODEL 1
REMARK VINA RESULT:      11.0      0.000      0.000
REMARK  2 active torsions:
REMARK  status: ('A' for Active; 'I' for Inactive)
REMARK       I    between atoms: N_2  and  C_1 
REMARK    1  A    between atoms: C_4  and  C_1 
REMARK    2  A    between atoms: C_3  and  N_2 
ROOT
ATOM      1  C   UNL d   1      46.280 -17.879  43.761  0.00  0.00     0.085 A 
ATOM      2  C   UNL d   1      46.466 -19.113  43.084  0.00  0.00     0.002 A 
ATOM      3  C   UNL d   1      46.400 -18.290  43.074  0.00  0.00     0.018 A 
ATOM      4  C   UNL d   1      46.411 -19.527  43.786  0.00  0.00     0.000 A 
ATOM      5  C   UNL d   1      46.588 -19.531  42.391  0.00  0.00     0.000 A 
ATOM      6  C   UNL d   1      46.222 -18.290  44.483  0.00  0.00     0.019 A 
ATOM      7  C   UNL d   1      46.288 -19.115  44.493  0.00  0.00     0.002 A 
ATOM      8  C   UNL d   1      46.497 -20.330  43.624  0.00  0.00     0.000 A 
ATOM      9  C   UNL d   1      46.630 -20.330  42.573  0.00  0.00     0.000 A 
ATOM     10  C   UNL d   1      46.455 -17.876  42.370  0.00  0.00     0.002 A 
ATOM     11  C   UNL d   1      46.581 -18.294  41.649  0.00  0.00     0.000 A 
ATOM     12  C   UNL d   1      46.647 -19.117  41.660  0.00  0.00     0.000 A 
ENDROOT
BRANCH   1  13
ATOM     13  N   UNL d   1      46.214 -17.063  43.750  0.00  0.00    -0.206 NA
ATOM     14  C   UNL d   1      45.874 -16.691  44.382  0.00  0.00     0.302 C 
ATOM     15  O   UNL d   1      45.632 -17.125  44.955  0.00  0.00    -0.263 OA
BRANCH  14  16
ATOM     16  C   UNL d   1      45.777 -15.870  44.434  0.00  0.00     0.158 A 
ATOM     17  O   UNL d   1      46.296 -15.325  44.111  0.00  0.00    -0.300 OA
ATOM     18  C   UNL d   1      45.999 -14.553  44.287  0.00  0.00     0.123 A 
ATOM     19  C   UNL d   1      45.312 -14.635  44.709  0.00  0.00     0.029 A 
ATOM     20  C   UNL d   1      45.153 -15.440  44.814  0.00  0.00     0.032 A 
ENDBRANCH  14  16
ENDBRANCH   1  13
TORSDOF 2
ENDMDL
