MODEL 1
REMARK VINA RESULT:      24.0      0.000      0.000
REMARK  4 active torsions:
REMARK  status: ('A' for Active; 'I' for Inactive)
REMARK    1  A    between atoms: N_6  and  C_1 
REMARK    2  A    between atoms: C_7  and  N_2 
REMARK    3  A    between atoms: C_11  and  N_6 
REMARK    4  A    between atoms: C_14  and  C_11 
ROOT
ATOM      1  C   UNL d   1     -57.650 -98.910 -44.349  0.00  0.00     0.735 A 
ATOM      2  N   UNL d   1     -58.453 -98.871 -44.162  0.00  0.00    -0.139 N 
ATOM      3  N   UNL d   1     -57.591 -98.894 -45.196  0.00  0.00    -0.059 NA
ATOM      4  C   UNL d   1     -58.882 -98.834 -44.842  0.00  0.00     0.100 A 
ATOM      5  C   UNL d   1     -58.338 -98.848 -45.494  0.00  0.00     0.116 A 
ATOM      6  C   UNL d   1     -59.693 -98.788 -44.982  0.00  0.00     0.020 A 
ATOM      7  C   UNL d   1     -58.682 -98.813 -46.242  0.00  0.00     0.021 A 
ATOM      8  C   UNL d   1     -59.956 -98.757 -45.739  0.00  0.00     0.002 A 
ATOM      9  C   UNL d   1     -59.428 -98.771 -46.373  0.00  0.00     0.002 A 
ENDROOT
BRANCH   1  10
ATOM     10  N   UNL d   1     -56.998 -98.955 -43.844  0.00  0.00    -0.056 NA
BRANCH  10  11
ATOM     11  C   UNL d   1     -56.293 -99.197 -44.141  0.00  0.00     0.163 C 
BRANCH  11  12
ATOM     12  C   UNL d   1     -55.600 -98.989 -43.744  0.00  0.00     0.255 C 
ATOM     13  O   UNL d   1     -54.874 -98.978 -44.162  0.00  0.00    -0.281 OA
ENDBRANCH  11  12
ENDBRANCH  10  11
ENDBRANCH   1  10
BRANCH   2  14
ATOM     14  C   UNL d   1     -58.576 -98.882 -43.373  0.00  0.00     0.082 C 
ATOM     15  C   UNL d   1     -57.932 -99.005 -42.865  0.00  0.00     0.020 C 
ATOM     16  C   UNL d   1     -59.340 -98.771 -43.081  0.00  0.00     0.020 C 
ENDBRANCH   2  14
TORSDOF 4
ENDMDL
MODEL 2
REMARK VINA RESULT:      25.4      1.574      3.172
REMARK  4 active torsions:
REMARK  status: ('A' for Active; 'I' for Inactive)
REMARK    1  A    between atoms: N_6  and  C_1 
REMARK    2  A    between atoms: C_7  and  N_2 
REMARK    3  A    between atoms: C_11  and  N_6 
REMARK    4  A    between atoms: C_14  and  C_11 
ROOT
ATOM      1  C   UNL d   1     -58.062 -98.768 -43.723  0.00  0.00     0.735 A 
ATOM      2  N   UNL d   1     -57.772 -98.778 -44.496  0.00  0.00    -0.139 N 
ATOM      3  N   UNL d   1     -57.388 -98.767 -43.206  0.00  0.00    -0.059 NA
ATOM      4  C   UNL d   1     -56.967 -98.784 -44.478  0.00  0.00     0.100 A 
ATOM      5  C   UNL d   1     -56.725 -98.777 -43.664  0.00  0.00     0.116 A 
ATOM      6  C   UNL d   1     -56.400 -98.795 -45.076  0.00  0.00     0.020 A 
ATOM      7  C   UNL d   1     -55.912 -98.782 -43.537  0.00  0.00     0.021 A 
ATOM      8  C   UNL d   1     -55.623 -98.798 -44.877  0.00  0.00     0.002 A 
ATOM      9  C   UNL d   1     -55.388 -98.792 -44.086  0.00  0.00     0.002 A 
ENDROOT
BRANCH   1  10
ATOM     10  N   UNL d   1     -58.844 -98.759 -43.460  0.00  0.00    -0.056 NA
BRANCH  10  11
ATOM     11  C   UNL d   1     -59.078 -99.306 -42.921  0.00  0.00     0.163 C 
BRANCH  11  12
ATOM     12  C   UNL d   1     -59.714 -99.131 -42.426  0.00  0.00     0.255 C 
ATOM     13  O   UNL d   1     -59.798 -99.546 -41.703  0.00  0.00    -0.281 OA
ENDBRANCH  11  12
ENDBRANCH  10  11
ENDBRANCH   1  10
BRANCH   2  14
ATOM     14  C   UNL d   1     -58.361 -98.779 -45.035  0.00  0.00     0.082 C 
ATOM     15  C   UNL d   1     -59.148 -98.755 -44.774  0.00  0.00     0.020 C 
ATOM     16  C   UNL d   1     -58.174 -98.805 -45.839  0.00  0.00     0.020 C 
ENDBRANCH   2  14
TORSDOF 4
ENDMDL
MODEL 3
REMARK VINA RESULT:      26.4      3.861      4.561
REMARK  4 active torsions:
REMARK  status: ('A' for Active; 'I' for Inactive)
REMARK    1  A    between atoms: N_6  and  C_1 
REMARK    2  A    between atoms: C_7  and  N_2 
REMARK    3  A    between atoms: C_11  and  N_6 
REMARK    4  A    between atoms: C_14  and  C_11 
ROOT
ATOM      1  C   UNL d   1     -54.745-101.230 -43.455  0.00  0.00     0.735 A 
ATOM      2  N   UNL d   1     -54.807-101.169 -44.276  0.00  0.00    -0.139 N 
ATOM      3  N   UNL d   1     -54.711-100.437 -43.150  0.00  0.00    -0.059 NA
ATOM      4  C   UNL d   1     -54.812-100.393 -44.486  0.00  0.00     0.100 A 
ATOM      5  C   UNL d   1     -54.752 -99.931 -43.776  0.00  0.00     0.116 A 
ATOM      6  C   UNL d   1     -54.863-100.018 -45.218  0.00  0.00     0.020 A 
ATOM      7  C   UNL d   1     -54.749 -99.114 -43.884  0.00  0.00     0.021 A 
ATOM      8  C   UNL d   1     -54.854 -99.217 -45.248  0.00  0.00     0.002 A 
ATOM      9  C   UNL d   1     -54.795 -98.768 -44.558  0.00  0.00     0.002 A 
ENDROOT
BRANCH   1  10
ATOM     10  N   UNL d   1     -54.719-101.905 -42.982  0.00  0.00    -0.056 NA
BRANCH  10  11
ATOM     11  C   UNL d   1     -54.926-101.846 -42.209  0.00  0.00     0.163 C 
BRANCH  11  12
ATOM     12  C   UNL d   1     -54.727-102.460 -41.694  0.00  0.00     0.255 C 
ATOM     13  O   UNL d   1     -55.047-102.467 -40.920  0.00  0.00    -0.281 OA
ENDBRANCH  11  12
ENDBRANCH  10  11
ENDBRANCH   1  10
BRANCH   2  14
ATOM     14  C   UNL d   1     -54.843-101.888 -44.625  0.00  0.00     0.082 C 
ATOM     15  C   UNL d   1     -54.714-101.947 -45.441  0.00  0.00     0.020 C 
ATOM     16  C   UNL d   1     -55.009-102.552 -44.164  0.00  0.00     0.020 C 
ENDBRANCH   2  14
TORSDOF 4
ENDMDL
