MODEL 1
REMARK VINA RESULT:      -8.7      0.000      0.000
REMARK  4 active torsions:
REMARK  status: ('A' for Active; 'I' for Inactive)
REMARK    1  A    between atoms: N_6  and  C_1 
REMARK    2  A    between atoms: C_7  and  N_2 
REMARK    3  A    between atoms: C_11  and  N_6 
REMARK    4  A    between atoms: C_14  and  C_11 
ROOT
ATOM      1  C   UNL d   1      53.018  32.156  53.338  0.00  0.00     0.735 A 
ATOM      2  N   UNL d   1      53.341  32.868  53.602  0.00  0.00    -0.139 N 
ATOM      3  N   UNL d   1      52.301  32.348  52.924  0.00  0.00    -0.059 NA
ATOM      4  C   UNL d   1      52.867  33.476  53.374  0.00  0.00     0.100 A 
ATOM      5  C   UNL d   1      52.211  33.148  52.946  0.00  0.00     0.116 A 
ATOM      6  C   UNL d   1      52.920  34.292  53.485  0.00  0.00     0.020 A 
ATOM      7  C   UNL d   1      51.661  33.695  52.667  0.00  0.00     0.021 A 
ATOM      8  C   UNL d   1      52.346  34.764  53.185  0.00  0.00     0.002 A 
ATOM      9  C   UNL d   1      51.709  34.446  52.769  0.00  0.00     0.002 A 
ENDROOT
BRANCH   1  10
ATOM     10  N   UNL d   1      53.301  31.387  53.434  0.00  0.00    -0.056 NA
BRANCH  10  11
ATOM     11  C   UNL d   1      52.857  30.774  53.167  0.00  0.00     0.163 C 
BRANCH  11  12
ATOM     12  C   UNL d   1      53.153  30.007  53.236  0.00  0.00     0.255 C 
ATOM     13  O   UNL d   1      52.639  29.387  53.468  0.00  0.00    -0.281 OA
ENDBRANCH  11  12
ENDBRANCH  10  11
ENDBRANCH   1  10
BRANCH   2  14
ATOM     14  C   UNL d   1      54.023  32.754  54.003  0.00  0.00     0.082 C 
ATOM     15  C   UNL d   1      54.740  32.746  53.587  0.00  0.00     0.020 C 
ATOM     16  C   UNL d   1      53.998  32.648  54.821  0.00  0.00     0.020 C 
ENDBRANCH   2  14
TORSDOF 4
ENDMDL
MODEL 2
REMARK VINA RESULT:      -8.2      1.552      3.082
REMARK  4 active torsions:
REMARK  status: ('A' for Active; 'I' for Inactive)
REMARK    1  A    between atoms: N_6  and  C_1 
REMARK    2  A    between atoms: C_7  and  N_2 
REMARK    3  A    between atoms: C_11  and  N_6 
REMARK    4  A    between atoms: C_14  and  C_11 
ROOT
ATOM      1  C   UNL d   1      53.064  32.677  53.340  0.00  0.00     0.735 A 
ATOM      2  N   UNL d   1      53.623  32.203  53.721  0.00  0.00    -0.139 N 
ATOM      3  N   UNL d   1      52.540  32.155  52.923  0.00  0.00    -0.059 NA
ATOM      4  C   UNL d   1      53.470  31.430  53.561  0.00  0.00     0.100 A 
ATOM      5  C   UNL d   1      52.787  31.399  53.058  0.00  0.00     0.116 A 
ATOM      6  C   UNL d   1      53.843  30.732  53.792  0.00  0.00     0.020 A 
ATOM      7  C   UNL d   1      52.545  30.644  52.834  0.00  0.00     0.021 A 
ATOM      8  C   UNL d   1      53.552  30.030  53.535  0.00  0.00     0.002 A 
ATOM      9  C   UNL d   1      52.888  30.001  53.046  0.00  0.00     0.002 A 
ENDROOT
BRANCH   1  10
ATOM     10  N   UNL d   1      52.992  33.499  53.338  0.00  0.00    -0.056 NA
BRANCH  10  11
ATOM     11  C   UNL d   1      52.313  33.828  53.063  0.00  0.00     0.163 C 
BRANCH  11  12
ATOM     12  C   UNL d   1      52.273  34.648  52.979  0.00  0.00     0.255 C 
ATOM     13  O   UNL d   1      51.657  35.070  53.358  0.00  0.00    -0.281 OA
ENDBRANCH  11  12
ENDBRANCH  10  11
ENDBRANCH   1  10
BRANCH   2  14
ATOM     14  C   UNL d   1      54.150  32.639  54.135  0.00  0.00     0.082 C 
ATOM     15  C   UNL d   1      54.010  32.786  54.939  0.00  0.00     0.020 C 
ATOM     16  C   UNL d   1      54.820  32.933  53.753  0.00  0.00     0.020 C 
ENDBRANCH   2  14
TORSDOF 4
ENDMDL
MODEL 3
REMARK VINA RESULT:      -7.9      1.997      3.532
REMARK  4 active torsions:
REMARK  status: ('A' for Active; 'I' for Inactive)
REMARK    1  A    between atoms: N_6  and  C_1 
REMARK    2  A    between atoms: C_7  and  N_2 
REMARK    3  A    between atoms: C_11  and  N_6 
REMARK    4  A    between atoms: C_14  and  C_11 
ROOT
ATOM      1  C   UNL d   1      52.729  33.712  53.730  0.00  0.00     0.735 A 
ATOM      2  N   UNL d   1      52.292  33.199  53.253  0.00  0.00    -0.139 N 
ATOM      3  N   UNL d   1      53.388  33.269  54.032  0.00  0.00    -0.059 NA
ATOM      4  C   UNL d   1      52.645  32.476  53.247  0.00  0.00     0.100 A 
ATOM      5  C   UNL d   1      53.336  32.521  53.738  0.00  0.00     0.116 A 
ATOM      6  C   UNL d   1      52.452  31.769  52.870  0.00  0.00     0.020 A 
ATOM      7  C   UNL d   1      53.773  31.824  53.799  0.00  0.00     0.021 A 
ATOM      8  C   UNL d   1      52.925  31.129  52.975  0.00  0.00     0.002 A 
ATOM      9  C   UNL d   1      53.596  31.173  53.453  0.00  0.00     0.002 A 
ENDROOT
BRANCH   1  10
ATOM     10  N   UNL d   1      52.589  34.506  53.907  0.00  0.00    -0.056 NA
BRANCH  10  11
ATOM     11  C   UNL d   1      53.123  34.903  54.355  0.00  0.00     0.163 C 
BRANCH  11  12
ATOM     12  C   UNL d   1      52.891  35.604  54.725  0.00  0.00     0.255 C 
ATOM     13  O   UNL d   1      53.289  36.318  54.539  0.00  0.00    -0.281 OA
ENDBRANCH  11  12
ENDBRANCH  10  11
ENDBRANCH   1  10
BRANCH   2  14
ATOM     14  C   UNL d   1      51.653  33.559  52.936  0.00  0.00     0.082 C 
ATOM     15  C   UNL d   1      51.738  33.989  52.233  0.00  0.00     0.020 C 
ATOM     16  C   UNL d   1      50.923  33.494  53.317  0.00  0.00     0.020 C 
ENDBRANCH   2  14
TORSDOF 4
ENDMDL
MODEL 4
REMARK VINA RESULT:      -7.8      0.824      2.098
REMARK  4 active torsions:
REMARK  status: ('A' for Active; 'I' for Inactive)
REMARK    1  A    between atoms: N_6  and  C_1 
REMARK    2  A    between atoms: C_7  and  N_2 
REMARK    3  A    between atoms: C_11  and  N_6 
REMARK    4  A    between atoms: C_14  and  C_11 
ROOT
ATOM      1  C   UNL d   1      53.132  32.174  53.612  0.00  0.00     0.735 A 
ATOM      2  N   UNL d   1      52.909  32.967  53.669  0.00  0.00    -0.139 N 
ATOM      3  N   UNL d   1      53.808  32.070  54.115  0.00  0.00    -0.059 NA
ATOM      4  C   UNL d   1      53.407  33.347  54.174  0.00  0.00     0.100 A 
ATOM      5  C   UNL d   1      53.974  32.782  54.455  0.00  0.00     0.116 A 
ATOM      6  C   UNL d   1      53.443  34.130  54.432  0.00  0.00     0.020 A 
ATOM      7  C   UNL d   1      54.535  33.075  54.983  0.00  0.00     0.021 A 
ATOM      8  C   UNL d   1      54.018  34.344  54.948  0.00  0.00     0.002 A 
ATOM      9  C   UNL d   1      54.569  33.794  55.221  0.00  0.00     0.002 A 
ENDROOT
BRANCH   1  10
ATOM     10  N   UNL d   1      52.792  31.568  53.166  0.00  0.00    -0.056 NA
BRANCH  10  11
ATOM     11  C   UNL d   1      53.058  30.817  53.267  0.00  0.00     0.163 C 
BRANCH  11  12
ATOM     12  C   UNL d   1      52.686  30.204  52.858  0.00  0.00     0.255 C 
ATOM     13  O   UNL d   1      52.602  29.457  53.227  0.00  0.00    -0.281 OA
ENDBRANCH  11  12
ENDBRANCH  10  11
ENDBRANCH   1  10
BRANCH   2  14
ATOM     14  C   UNL d   1      52.272  33.130  53.215  0.00  0.00     0.082 C 
ATOM     15  C   UNL d   1      51.513  33.038  53.535  0.00  0.00     0.020 C 
ATOM     16  C   UNL d   1      52.385  33.388  52.439  0.00  0.00     0.020 C 
ENDBRANCH   2  14
TORSDOF 4
ENDMDL
MODEL 5
REMARK VINA RESULT:      -7.5      1.720      3.280
REMARK  4 active torsions:
REMARK  status: ('A' for Active; 'I' for Inactive)
REMARK    1  A    between atoms: N_6  and  C_1 
REMARK    2  A    between atoms: C_7  and  N_2 
REMARK    3  A    between atoms: C_11  and  N_6 
REMARK    4  A    between atoms: C_14  and  C_11 
ROOT
ATOM      1  C   UNL d   1      53.646  32.518  54.122  0.00  0.00     0.735 A 
ATOM      2  N   UNL d   1      53.071  32.416  53.539  0.00  0.00    -0.139 N 
ATOM      3  N   UNL d   1      53.960  31.749  54.299  0.00  0.00    -0.059 NA
ATOM      4  C   UNL d   1      53.017  31.635  53.353  0.00  0.00     0.100 A 
ATOM      5  C   UNL d   1      53.578  31.215  53.832  0.00  0.00     0.116 A 
ATOM      6  C   UNL d   1      52.544  31.225  52.817  0.00  0.00     0.020 A 
ATOM      7  C   UNL d   1      53.602  30.399  53.716  0.00  0.00     0.021 A 
ATOM      8  C   UNL d   1      52.622  30.429  52.757  0.00  0.00     0.002 A 
ATOM      9  C   UNL d   1      53.167  30.020  53.223  0.00  0.00     0.002 A 
ENDROOT
BRANCH   1  10
ATOM     10  N   UNL d   1      53.899  33.213  54.489  0.00  0.00    -0.056 NA
BRANCH  10  11
ATOM     11  C   UNL d   1      54.525  33.182  54.989  0.00  0.00     0.163 C 
BRANCH  11  12
ATOM     12  C   UNL d   1      54.749  33.867  55.392  0.00  0.00     0.255 C 
ATOM     13  O   UNL d   1      55.523  34.171  55.287  0.00  0.00    -0.281 OA
ENDBRANCH  11  12
ENDBRANCH  10  11
ENDBRANCH   1  10
BRANCH   2  14
ATOM     14  C   UNL d   1      52.735  33.110  53.327  0.00  0.00     0.082 C 
ATOM     15  C   UNL d   1      52.050  33.363  53.720  0.00  0.00     0.020 C 
ATOM     16  C   UNL d   1      53.077  33.556  52.723  0.00  0.00     0.020 C 
ENDBRANCH   2  14
TORSDOF 4
ENDMDL
MODEL 6
REMARK VINA RESULT:      -7.2      1.776      3.085
REMARK  4 active torsions:
REMARK  status: ('A' for Active; 'I' for Inactive)
REMARK    1  A    between atoms: N_6  and  C_1 
REMARK    2  A    between atoms: C_7  and  N_2 
REMARK    3  A    between atoms: C_11  and  N_6 
REMARK    4  A    between atoms: C_14  and  C_11 
ROOT
ATOM      1  C   UNL d   1      52.060  33.596  53.278  0.00  0.00     0.735 A 
ATOM      2  N   UNL d   1      52.811  33.679  53.609  0.00  0.00    -0.139 N 
ATOM      3  N   UNL d   1      51.983  32.785  53.037  0.00  0.00    -0.059 NA
ATOM      4  C   UNL d   1      53.193  32.971  53.584  0.00  0.00     0.100 A 
ATOM      5  C   UNL d   1      52.670  32.407  53.223  0.00  0.00     0.116 A 
ATOM      6  C   UNL d   1      53.943  32.737  53.833  0.00  0.00     0.020 A 
ATOM      7  C   UNL d   1      52.970  31.643  53.150  0.00  0.00     0.021 A 
ATOM      8  C   UNL d   1      54.168  31.974  53.730  0.00  0.00     0.002 A 
ATOM      9  C   UNL d   1      53.660  31.426  53.379  0.00  0.00     0.002 A 
ENDROOT
BRANCH   1  10
ATOM     10  N   UNL d   1      51.468  34.163  53.179  0.00  0.00    -0.056 NA
BRANCH  10  11
ATOM     11  C   UNL d   1      50.785  33.951  52.814  0.00  0.00     0.163 C 
BRANCH  11  12
ATOM     12  C   UNL d   1      50.163  34.493  52.786  0.00  0.00     0.255 C 
ATOM     13  O   UNL d   1      49.640  34.484  52.131  0.00  0.00    -0.281 OA
ENDBRANCH  11  12
ENDBRANCH  10  11
ENDBRANCH   1  10
BRANCH   2  14
ATOM     14  C   UNL d   1      52.946  34.426  53.858  0.00  0.00     0.082 C 
ATOM     15  C   UNL d   1      52.838  34.612  54.658  0.00  0.00     0.020 C 
ATOM     16  C   UNL d   1      53.190  34.996  53.312  0.00  0.00     0.020 C 
ENDBRANCH   2  14
TORSDOF 4
ENDMDL
MODEL 7
REMARK VINA RESULT:      -6.9      1.733      2.521
REMARK  4 active torsions:
REMARK  status: ('A' for Active; 'I' for Inactive)
REMARK    1  A    between atoms: N_6  and  C_1 
REMARK    2  A    between atoms: C_7  and  N_2 
REMARK    3  A    between atoms: C_11  and  N_6 
REMARK    4  A    between atoms: C_14  and  C_11 
ROOT
ATOM      1  C   UNL d   1      53.318  33.348  54.077  0.00  0.00     0.735 A 
ATOM      2  N   UNL d   1      52.942  32.874  53.515  0.00  0.00    -0.139 N 
ATOM      3  N   UNL d   1      52.895  34.084  54.105  0.00  0.00    -0.059 NA
ATOM      4  C   UNL d   1      52.320  33.277  53.202  0.00  0.00     0.100 A 
ATOM      5  C   UNL d   1      52.290  34.040  53.573  0.00  0.00     0.116 A 
ATOM      6  C   UNL d   1      51.762  33.076  52.629  0.00  0.00     0.020 A 
ATOM      7  C   UNL d   1      51.682  34.534  53.319  0.00  0.00     0.021 A 
ATOM      8  C   UNL d   1      51.197  33.609  52.431  0.00  0.00     0.002 A 
ATOM      9  C   UNL d   1      51.169  34.351  52.792  0.00  0.00     0.002 A 
ENDROOT
BRANCH   1  10
ATOM     10  N   UNL d   1      53.977  33.179  54.544  0.00  0.00    -0.056 NA
BRANCH  10  11
ATOM     11  C   UNL d   1      54.283  33.759  55.007  0.00  0.00     0.163 C 
BRANCH  11  12
ATOM     12  C   UNL d   1      54.948  33.593  55.468  0.00  0.00     0.255 C 
ATOM     13  O   UNL d   1      55.606  34.111  55.441  0.00  0.00    -0.281 OA
ENDBRANCH  11  12
ENDBRANCH  10  11
ENDBRANCH   1  10
BRANCH   2  14
ATOM     14  C   UNL d   1      53.295  32.161  53.442  0.00  0.00     0.082 C 
ATOM     15  C   UNL d   1      52.991  31.515  53.862  0.00  0.00     0.020 C 
ATOM     16  C   UNL d   1      53.955  32.086  52.951  0.00  0.00     0.020 C 
ENDBRANCH   2  14
TORSDOF 4
ENDMDL
MODEL 8
REMARK VINA RESULT:      -6.0      2.007      2.808
REMARK  4 active torsions:
REMARK  status: ('A' for Active; 'I' for Inactive)
REMARK    1  A    between atoms: N_6  and  C_1 
REMARK    2  A    between atoms: C_7  and  N_2 
REMARK    3  A    between atoms: C_11  and  N_6 
REMARK    4  A    between atoms: C_14  and  C_11 
ROOT
ATOM      1  C   UNL d   1      53.175  33.978  54.255  0.00  0.00     0.735 A 
ATOM      2  N   UNL d   1      52.674  34.549  53.931  0.00  0.00    -0.139 N 
ATOM      3  N   UNL d   1      52.873  33.220  54.018  0.00  0.00    -0.059 NA
ATOM      4  C   UNL d   1      52.090  34.185  53.515  0.00  0.00     0.100 A 
ATOM      5  C   UNL d   1      52.215  33.347  53.569  0.00  0.00     0.116 A 
ATOM      6  C   UNL d   1      51.451  34.479  53.085  0.00  0.00     0.020 A 
ATOM      7  C   UNL d   1      51.665  32.880  53.172  0.00  0.00     0.021 A 
ATOM      8  C   UNL d   1      50.954  33.964  52.723  0.00  0.00     0.002 A 
ATOM      9  C   UNL d   1      51.076  33.150  52.776  0.00  0.00     0.002 A 
ENDROOT
BRANCH   1  10
ATOM     10  N   UNL d   1      53.848  34.079  54.722  0.00  0.00    -0.056 NA
BRANCH  10  11
ATOM     11  C   UNL d   1      54.341  33.455  54.831  0.00  0.00     0.163 C 
BRANCH  11  12
ATOM     12  C   UNL d   1      54.891  33.484  55.446  0.00  0.00     0.255 C 
ATOM     13  O   UNL d   1      55.640  33.835  55.312  0.00  0.00    -0.281 OA
ENDBRANCH  11  12
ENDBRANCH  10  11
ENDBRANCH   1  10
BRANCH   2  14
ATOM     14  C   UNL d   1      52.907  35.290  54.120  0.00  0.00     0.082 C 
ATOM     15  C   UNL d   1      52.628  35.635  54.820  0.00  0.00     0.020 C 
ATOM     16  C   UNL d   1      53.419  35.693  53.614  0.00  0.00     0.020 C 
ENDBRANCH   2  14
TORSDOF 4
ENDMDL
