MODEL 1
REMARK VINA RESULT:      27.2      0.000      0.000
REMARK  3 active torsions:
REMARK  status: ('A' for Active; 'I' for Inactive)
REMARK    1  A    between atoms: C_2  and  N_1 
REMARK    2  A    between atoms: N_8  and  C_3 
REMARK       I    between atoms: C_9  and  N_8 
REMARK    3  A    between atoms: C_10  and  C_9 
ROOT
ATOM      1  N   UNL d   1      14.550  12.723  -1.706  0.00  0.00    -0.189 N 
ATOM      2  C   UNL d   1      14.844  13.379  -1.295  0.00  0.00     0.171 A 
ATOM      3  N   UNL d   1      14.739  12.047  -1.282  0.00  0.00    -0.162 NA
ATOM      4  C   UNL d   1      15.212  13.085  -0.618  0.00  0.00     0.060 A 
ATOM      5  C   UNL d   1      15.152  12.280  -0.605  0.00  0.00     0.105 A 
ATOM      6  C   UNL d   1      15.453  11.779  -0.014  0.00  0.00     0.023 C 
ENDROOT
BRANCH   1   7
ATOM      7  C   UNL d   1      14.132  12.718  -2.425  0.00  0.00     0.197 A 
ATOM      8  N   UNL d   1      13.898  12.019  -2.794  0.00  0.00    -0.221 NA
ATOM      9  C   UNL d   1      13.496  12.229  -3.495  0.00  0.00     0.090 A 
ATOM     10  C   UNL d   1      13.143  11.796  -4.081  0.00  0.00     0.020 A 
ATOM     11  C   UNL d   1      13.499  13.055  -3.529  0.00  0.00     0.050 A 
ATOM     12  C   UNL d   1      12.781  12.168  -4.722  0.00  0.00     0.002 A 
ATOM     13  C   UNL d   1      12.785  12.979  -4.754  0.00  0.00     0.001 A 
ATOM     14  C   UNL d   1      13.141  13.430  -4.163  0.00  0.00     0.008 A 
ATOM     15  S   UNL d   1      13.891  13.343  -2.869  0.00  0.00    -0.047 SA
ENDBRANCH   1   7
BRANCH   2  16
ATOM     16  N   UNL d   1      14.781  14.174  -1.518  0.00  0.00    -0.189 NA
ATOM     17  C   UNL d   1      15.004  14.753  -0.991  0.00  0.00     0.281 C 
ATOM     18  O   UNL d   1      15.288  14.545  -0.246  0.00  0.00    -0.265 OA
BRANCH  17  19
ATOM     19  C   UNL d   1      14.943  15.548  -1.209  0.00  0.00     0.058 A 
ATOM     20  C   UNL d   1      14.884  16.353  -1.426  0.00  0.00     0.005 A 
ATOM     21  C   UNL d   1      15.324  16.130  -0.763  0.00  0.00     0.005 A 
ENDBRANCH  17  19
ENDBRANCH   2  16
TORSDOF 3
ENDMDL
