MODEL 1
REMARK VINA RESULT:      -4.6      0.000      0.000
REMARK  2 active torsions:
REMARK  status: ('A' for Active; 'I' for Inactive)
REMARK    1  A    between atoms: C_6  and  N_2 
REMARK    2  A    between atoms: C_4  and  C_6 
ROOT
ATOM      1  C   UNL d   1     -41.188-123.000 -52.259  0.00  0.00     0.206 A 
ATOM      2  N   UNL d   1     -41.271-122.615 -52.981  0.00  0.00    -0.277 N 
ATOM      3  N   UNL d   1     -41.122-122.419 -51.671  0.00  0.00    -0.215 NA
ATOM      4  C   UNL d   1     -41.167-121.678 -52.039  0.00  0.00     0.120 A 
ATOM      5  C   UNL d   1     -41.259-121.799 -52.849  0.00  0.00     0.103 A 
ATOM      6  S   UNL d   1     -41.171-123.816 -52.139  0.00  0.00    -0.038 SA
ENDROOT
BRANCH   2   7
ATOM      7  C   UNL d   1     -41.354-122.982 -53.718  0.00  0.00     0.107 C 
BRANCH   7   8
ATOM      8  C   UNL d   1     -41.720-122.580 -54.340  0.00  0.00     0.118 A 
ATOM      9  O   UNL d   1     -42.523-122.374 -54.383  0.00  0.00    -0.304 OA
ATOM     10  C   UNL d   1     -42.645-121.983 -55.095  0.00  0.00     0.123 A 
ATOM     11  C   UNL d   1     -41.923-121.944 -55.494  0.00  0.00     0.029 A 
ATOM     12  C   UNL d   1     -41.355-122.313 -55.026  0.00  0.00     0.028 A 
ENDBRANCH   7   8
ENDBRANCH   2   7
TORSDOF 2
ENDMDL
MODEL 2
REMARK VINA RESULT:      -4.1      1.380      2.725
REMARK  2 active torsions:
REMARK  status: ('A' for Active; 'I' for Inactive)
REMARK    1  A    between atoms: C_6  and  N_2 
REMARK    2  A    between atoms: C_4  and  C_6 
ROOT
ATOM      1  C   UNL d   1     -41.647-123.053 -54.313  0.00  0.00     0.206 A 
ATOM      2  N   UNL d   1     -41.569-122.555 -53.664  0.00  0.00    -0.277 N 
ATOM      3  N   UNL d   1     -42.138-122.674 -54.863  0.00  0.00    -0.215 NA
ATOM      4  C   UNL d   1     -42.359-121.941 -54.544  0.00  0.00     0.120 A 
ATOM      5  C   UNL d   1     -42.007-121.868 -53.802  0.00  0.00     0.103 A 
ATOM      6  S   UNL d   1     -41.300-123.796 -54.404  0.00  0.00    -0.038 SA
ENDROOT
BRANCH   2   7
ATOM      7  C   UNL d   1     -41.127-122.714 -52.982  0.00  0.00     0.107 C 
BRANCH   7   8
ATOM      8  C   UNL d   1     -41.384-122.436 -52.249  0.00  0.00     0.118 A 
ATOM      9  O   UNL d   1     -41.953-122.793 -51.763  0.00  0.00    -0.304 OA
ATOM     10  C   UNL d   1     -42.037-122.331 -51.090  0.00  0.00     0.123 A 
ATOM     11  C   UNL d   1     -41.524-121.687 -51.153  0.00  0.00     0.029 A 
ATOM     12  C   UNL d   1     -41.123-121.755 -51.869  0.00  0.00     0.028 A 
ENDBRANCH   7   8
ENDBRANCH   2   7
TORSDOF 2
ENDMDL
MODEL 3
REMARK VINA RESULT:      -3.8      2.318      3.748
REMARK  2 active torsions:
REMARK  status: ('A' for Active; 'I' for Inactive)
REMARK    1  A    between atoms: C_6  and  N_2 
REMARK    2  A    between atoms: C_4  and  C_6 
ROOT
ATOM      1  C   UNL d   1     -41.202-122.946 -52.057  0.00  0.00     0.206 A 
ATOM      2  N   UNL d   1     -41.353-122.813 -51.261  0.00  0.00    -0.277 N 
ATOM      3  N   UNL d   1     -41.123-122.208 -52.426  0.00  0.00    -0.215 NA
ATOM      4  C   UNL d   1     -41.227-121.623 -51.848  0.00  0.00     0.120 A 
ATOM      5  C   UNL d   1     -41.369-121.997 -51.127  0.00  0.00     0.103 A 
ATOM      6  S   UNL d   1     -41.140-123.682 -52.427  0.00  0.00    -0.038 SA
ENDROOT
BRANCH   2   7
ATOM      7  C   UNL d   1     -41.471-123.397 -50.686  0.00  0.00     0.107 C 
BRANCH   7   8
ATOM      8  C   UNL d   1     -41.983-123.257 -50.054  0.00  0.00     0.118 A 
ATOM      9  O   UNL d   1     -42.811-123.220 -50.095  0.00  0.00    -0.304 OA
ATOM     10  C   UNL d   1     -43.095-123.070 -49.340  0.00  0.00     0.123 A 
ATOM     11  C   UNL d   1     -42.450-123.013 -48.828  0.00  0.00     0.029 A 
ATOM     12  C   UNL d   1     -41.765-123.129 -49.272  0.00  0.00     0.028 A 
ENDBRANCH   7   8
ENDBRANCH   2   7
TORSDOF 2
ENDMDL
MODEL 4
REMARK VINA RESULT:      -2.1      4.322      5.754
REMARK  2 active torsions:
REMARK  status: ('A' for Active; 'I' for Inactive)
REMARK    1  A    between atoms: C_6  and  N_2 
REMARK    2  A    between atoms: C_4  and  C_6 
ROOT
ATOM      1  C   UNL d   1     -42.545-122.814 -49.935  0.00  0.00     0.206 A 
ATOM      2  N   UNL d   1     -42.331-123.194 -49.239  0.00  0.00    -0.277 N 
ATOM      3  N   UNL d   1     -43.224-123.188 -50.228  0.00  0.00    -0.215 NA
ATOM      4  C   UNL d   1     -43.423-123.799 -49.705  0.00  0.00     0.120 A 
ATOM      5  C   UNL d   1     -42.871-123.804 -49.093  0.00  0.00     0.103 A 
ATOM      6  S   UNL d   1     -42.155-122.175 -50.282  0.00  0.00    -0.038 SA
ENDROOT
BRANCH   2   7
ATOM      7  C   UNL d   1     -41.683-123.002 -48.761  0.00  0.00     0.107 C 
BRANCH   7   8
ATOM      8  C   UNL d   1     -41.680-123.217 -47.964  0.00  0.00     0.118 A 
ATOM      9  O   UNL d   1     -42.226-122.972 -47.389  0.00  0.00    -0.304 OA
ATOM     10  C   UNL d   1     -42.013-123.318 -46.676  0.00  0.00     0.123 A 
ATOM     11  C   UNL d   1     -41.338-123.777 -46.802  0.00  0.00     0.029 A 
ATOM     12  C   UNL d   1     -41.135-123.712 -47.598  0.00  0.00     0.028 A 
ENDBRANCH   7   8
ENDBRANCH   2   7
TORSDOF 2
ENDMDL
