MODEL 1
REMARK VINA RESULT:      51.1      0.000      0.000
REMARK  5 active torsions:
REMARK  status: ('A' for Active; 'I' for Inactive)
REMARK    1  A    between atoms: C_2  and  C_1 
REMARK    2  A    between atoms: S_3  and  C_4 
REMARK    3  A    between atoms: C_7  and  S_3 
REMARK    4  A    between atoms: C_5  and  C_7 
REMARK    5  A    between atoms: C_6  and  C_5 
ROOT
ATOM      1  S   UNL d   1     -50.168  27.155  34.047  0.00  0.00    -0.083 SA
ENDROOT
BRANCH   1   2
ATOM      2  C   UNL d   1     -50.177  26.348  33.797  0.00  0.00     0.035 A 
ATOM      3  C   UNL d   1     -50.879  25.918  33.735  0.00  0.00     0.070 A 
ATOM      4  C   UNL d   1     -50.867  25.145  33.494  0.00  0.00     0.007 A 
ATOM      5  C   UNL d   1     -50.160  24.771  33.307  0.00  0.00     0.000 A 
ATOM      6  C   UNL d   1     -49.439  25.200  33.367  0.00  0.00     0.001 A 
ATOM      7  C   UNL d   1     -49.477  25.992  33.616  0.00  0.00     0.007 A 
BRANCH   3   8
ATOM      8  C   UNL d   1     -51.592  26.278  33.919  0.00  0.00     0.211 C 
ATOM      9  O   UNL d   1     -52.021  26.659  33.306  0.00  0.00    -0.644 OA
ATOM     10  O   UNL d   1     -51.886  26.265  34.693  0.00  0.00    -0.644 OA
ENDBRANCH   3   8
ENDBRANCH   1   2
BRANCH   1  11
ATOM     11  C   UNL d   1     -49.460  27.486  34.242  0.00  0.00     0.077 C 
BRANCH  11  12
ATOM     12  C   UNL d   1     -49.340  28.305  34.145  0.00  0.00     0.202 C 
ATOM     13  O   UNL d   1     -49.766  28.709  33.573  0.00  0.00    -0.286 OA
BRANCH  12  14
ATOM     14  C   UNL d   1     -48.793  28.668  34.638  0.00  0.00     0.040 A 
ATOM     15  C   UNL d   1     -48.341  29.297  34.317  0.00  0.00     0.003 A 
ATOM     16  C   UNL d   1     -47.787  29.672  34.798  0.00  0.00     0.000 A 
ATOM     17  C   UNL d   1     -47.691  29.436  35.550  0.00  0.00     0.000 A 
ATOM     18  C   UNL d   1     -48.144  28.809  35.869  0.00  0.00     0.000 A 
ATOM     19  C   UNL d   1     -47.123  29.820  36.047  0.00  0.00     0.000 C 
ATOM     20  C   UNL d   1     -48.703  28.434  35.373  0.00  0.00     0.003 A 
ENDBRANCH  12  14
ENDBRANCH  11  12
ENDBRANCH   1  11
TORSDOF 5
ENDMDL
MODEL 2
REMARK VINA RESULT:      51.6      3.248      5.628
REMARK  5 active torsions:
REMARK  status: ('A' for Active; 'I' for Inactive)
REMARK    1  A    between atoms: C_2  and  C_1 
REMARK    2  A    between atoms: S_3  and  C_4 
REMARK    3  A    between atoms: C_7  and  S_3 
REMARK    4  A    between atoms: C_5  and  C_7 
REMARK    5  A    between atoms: C_6  and  C_5 
ROOT
ATOM      1  S   UNL d   1     -47.642  31.827  34.999  0.00  0.00    -0.083 SA
ENDROOT
BRANCH   1   2
ATOM      2  C   UNL d   1     -47.499  32.430  34.424  0.00  0.00     0.035 A 
ATOM      3  C   UNL d   1     -48.116  32.818  34.036  0.00  0.00     0.070 A 
ATOM      4  C   UNL d   1     -47.958  33.394  33.488  0.00  0.00     0.007 A 
ATOM      5  C   UNL d   1     -47.185  33.604  33.306  0.00  0.00     0.000 A 
ATOM      6  C   UNL d   1     -46.550  33.215  33.695  0.00  0.00     0.001 A 
ATOM      7  C   UNL d   1     -46.737  32.627  34.254  0.00  0.00     0.007 A 
BRANCH   3   8
ATOM      8  C   UNL d   1     -48.892  32.619  34.207  0.00  0.00     0.211 C 
ATOM      9  O   UNL d   1     -49.246  31.982  33.790  0.00  0.00    -0.644 OA
ATOM     10  O   UNL d   1     -49.320  33.036  34.780  0.00  0.00    -0.644 OA
ENDBRANCH   3   8
ENDBRANCH   1   2
BRANCH   1  11
ATOM     11  C   UNL d   1     -47.053  31.301  35.155  0.00  0.00     0.077 C 
BRANCH  11  12
ATOM     12  C   UNL d   1     -47.120  30.776  35.798  0.00  0.00     0.202 C 
ATOM     13  O   UNL d   1     -46.894  31.026  36.546  0.00  0.00    -0.286 OA
BRANCH  12  14
ATOM     14  C   UNL d   1     -47.413  30.025  35.644  0.00  0.00     0.040 A 
ATOM     15  C   UNL d   1     -48.110  29.792  36.048  0.00  0.00     0.003 A 
ATOM     16  C   UNL d   1     -48.417  29.040  35.905  0.00  0.00     0.000 A 
ATOM     17  C   UNL d   1     -48.053  28.554  35.394  0.00  0.00     0.000 A 
ATOM     18  C   UNL d   1     -47.357  28.788  34.992  0.00  0.00     0.000 A 
ATOM     19  C   UNL d   1     -48.367  27.781  35.245  0.00  0.00     0.000 C 
ATOM     20  C   UNL d   1     -47.053  29.552  35.144  0.00  0.00     0.003 A 
ENDBRANCH  12  14
ENDBRANCH  11  12
ENDBRANCH   1  11
TORSDOF 5
ENDMDL
