MODEL 1
REMARK VINA RESULT:      -9.2      0.000      0.000
REMARK  1 active torsions:
REMARK  status: ('A' for Active; 'I' for Inactive)
REMARK    1  A    between atoms: C_2  and  C_1 
ROOT
ATOM      1  C   UNL d   1     -47.944  13.432  22.977  0.00  0.00     0.087 A 
ATOM      2  C   UNL d   1     -47.228  13.814  22.827  0.00  0.00     0.302 A 
ATOM      3  C   UNL d   1     -47.957  12.644  23.233  0.00  0.00     0.009 A 
ATOM      4  O   UNL d   1     -46.523  13.409  22.933  0.00  0.00    -0.273 OA
ATOM      5  C   UNL d   1     -46.520  12.628  23.186  0.00  0.00     0.106 A 
ATOM      6  C   UNL d   1     -47.236  12.246  23.336  0.00  0.00     0.023 A 
ATOM      7  C   UNL d   1     -45.816  12.222  23.291  0.00  0.00     0.067 A 
ATOM      8  O   UNL d   1     -47.230  14.595  22.574  0.00  0.00    -0.259 OA
ATOM      9  C   UNL d   1     -47.250  11.458  23.592  0.00  0.00     0.005 A 
ATOM     10  C   UNL d   1     -45.813  11.442  23.544  0.00  0.00     0.198 A 
ATOM     11  C   UNL d   1     -46.529  11.060  23.694  0.00  0.00     0.042 A 
ATOM     12  O   UNL d   1     -45.108  11.036  23.650  0.00  0.00    -0.286 OA
ENDROOT
BRANCH   1  13
ATOM     13  C   UNL d   1     -48.657  13.818  22.878  0.00  0.00     0.116 A 
ATOM     14  N   UNL d   1     -49.020  14.376  23.345  0.00  0.00    -0.238 NA
ATOM     15  C   UNL d   1     -49.730  14.589  23.005  0.00  0.00     0.088 A 
ATOM     16  C   UNL d   1     -50.310  15.131  23.250  0.00  0.00     0.020 A 
ATOM     17  C   UNL d   1     -49.810  14.164  22.324  0.00  0.00     0.049 A 
ATOM     18  C   UNL d   1     -50.983  15.221  22.766  0.00  0.00     0.002 A 
ATOM     19  C   UNL d   1     -51.064  14.786  22.072  0.00  0.00     0.001 A 
ATOM     20  C   UNL d   1     -50.471  14.253  21.849  0.00  0.00     0.008 A 
ATOM     21  S   UNL d   1     -49.158  13.677  22.222  0.00  0.00    -0.066 SA
ENDBRANCH   1  13
TORSDOF 1
ENDMDL
MODEL 2
REMARK VINA RESULT:      -8.8      1.110      1.408
REMARK  1 active torsions:
REMARK  status: ('A' for Active; 'I' for Inactive)
REMARK    1  A    between atoms: C_2  and  C_1 
ROOT
ATOM      1  C   UNL d   1     -48.406  12.521  23.145  0.00  0.00     0.087 A 
ATOM      2  C   UNL d   1     -48.542  11.792  23.508  0.00  0.00     0.302 A 
ATOM      3  C   UNL d   1     -47.636  12.765  22.962  0.00  0.00     0.009 A 
ATOM      4  O   UNL d   1     -47.908  11.305  23.688  0.00  0.00    -0.273 OA
ATOM      5  C   UNL d   1     -47.139  11.532  23.513  0.00  0.00     0.106 A 
ATOM      6  C   UNL d   1     -47.003  12.261  23.150  0.00  0.00     0.023 A 
ATOM      7  C   UNL d   1     -46.505  11.045  23.693  0.00  0.00     0.067 A 
ATOM      8  O   UNL d   1     -49.311  11.564  23.683  0.00  0.00    -0.259 OA
ATOM      9  C   UNL d   1     -46.232  12.505  22.967  0.00  0.00     0.005 A 
ATOM     10  C   UNL d   1     -45.736  11.273  23.518  0.00  0.00     0.198 A 
ATOM     11  C   UNL d   1     -45.600  12.002  23.156  0.00  0.00     0.042 A 
ATOM     12  O   UNL d   1     -45.102  10.786  23.698  0.00  0.00    -0.286 OA
ENDROOT
BRANCH   1  13
ATOM     13  C   UNL d   1     -49.024  13.021  22.957  0.00  0.00     0.116 A 
ATOM     14  N   UNL d   1     -49.391  13.592  23.405  0.00  0.00    -0.238 NA
ATOM     15  C   UNL d   1     -49.980  13.942  22.963  0.00  0.00     0.088 A 
ATOM     16  C   UNL d   1     -50.516  14.547  23.152  0.00  0.00     0.020 A 
ATOM     17  C   UNL d   1     -49.981  13.589  22.238  0.00  0.00     0.049 A 
ATOM     18  C   UNL d   1     -51.058  14.781  22.565  0.00  0.00     0.002 A 
ATOM     19  C   UNL d   1     -51.059  14.421  21.824  0.00  0.00     0.001 A 
ATOM     20  C   UNL d   1     -50.514  13.819  21.660  0.00  0.00     0.008 A 
ATOM     21  S   UNL d   1     -49.397  13.014  22.207  0.00  0.00    -0.066 SA
ENDBRANCH   1  13
TORSDOF 1
ENDMDL
MODEL 3
REMARK VINA RESULT:      -7.8      1.530      4.414
REMARK  1 active torsions:
REMARK  status: ('A' for Active; 'I' for Inactive)
REMARK    1  A    between atoms: C_2  and  C_1 
ROOT
ATOM      1  C   UNL d   1     -48.129  13.193  22.575  0.00  0.00     0.087 A 
ATOM      2  C   UNL d   1     -48.465  13.145  21.823  0.00  0.00     0.302 A 
ATOM      3  C   UNL d   1     -48.443  13.705  23.147  0.00  0.00     0.009 A 
ATOM      4  O   UNL d   1     -49.116  13.609  21.640  0.00  0.00    -0.273 OA
ATOM      5  C   UNL d   1     -49.438  14.120  22.195  0.00  0.00     0.106 A 
ATOM      6  C   UNL d   1     -49.102  14.168  22.947  0.00  0.00     0.023 A 
ATOM      7  C   UNL d   1     -50.089  14.584  22.012  0.00  0.00     0.067 A 
ATOM      8  O   UNL d   1     -48.142  12.634  21.267  0.00  0.00    -0.259 OA
ATOM      9  C   UNL d   1     -49.416  14.680  23.519  0.00  0.00     0.005 A 
ATOM     10  C   UNL d   1     -50.411  15.095  22.568  0.00  0.00     0.198 A 
ATOM     11  C   UNL d   1     -50.075  15.143  23.320  0.00  0.00     0.042 A 
ATOM     12  O   UNL d   1     -51.062  15.559  22.385  0.00  0.00    -0.286 OA
ENDROOT
BRANCH   1  13
ATOM     13  C   UNL d   1     -47.480  12.740  22.778  0.00  0.00     0.116 A 
ATOM     14  N   UNL d   1     -46.690  12.859  22.626  0.00  0.00    -0.238 NA
ATOM     15  C   UNL d   1     -46.260  12.245  22.948  0.00  0.00     0.088 A 
ATOM     16  C   UNL d   1     -45.443  12.096  22.952  0.00  0.00     0.020 A 
ATOM     17  C   UNL d   1     -46.783  11.742  23.301  0.00  0.00     0.049 A 
ATOM     18  C   UNL d   1     -45.179  11.405  23.337  0.00  0.00     0.002 A 
ATOM     19  C   UNL d   1     -45.712  10.893  23.697  0.00  0.00     0.001 A 
ATOM     20  C   UNL d   1     -46.523  11.064  23.679  0.00  0.00     0.008 A 
ATOM     21  S   UNL d   1     -47.547  12.026  23.211  0.00  0.00    -0.066 SA
ENDBRANCH   1  13
TORSDOF 1
ENDMDL
MODEL 4
REMARK VINA RESULT:      -7.6      1.724      4.565
REMARK  1 active torsions:
REMARK  status: ('A' for Active; 'I' for Inactive)
REMARK    1  A    between atoms: C_2  and  C_1 
ROOT
ATOM      1  C   UNL d   1     -46.790  12.982  22.878  0.00  0.00     0.087 A 
ATOM      2  C   UNL d   1     -46.727  13.727  23.226  0.00  0.00     0.302 A 
ATOM      3  C   UNL d   1     -47.440  12.792  22.399  0.00  0.00     0.009 A 
ATOM      4  O   UNL d   1     -47.313  14.286  23.096  0.00  0.00    -0.273 OA
ATOM      5  C   UNL d   1     -47.962  14.113  22.624  0.00  0.00     0.106 A 
ATOM      6  C   UNL d   1     -48.026  13.367  22.277  0.00  0.00     0.023 A 
ATOM      7  C   UNL d   1     -48.548  14.671  22.495  0.00  0.00     0.067 A 
ATOM      8  O   UNL d   1     -46.077  13.901  23.697  0.00  0.00    -0.259 OA
ATOM      9  C   UNL d   1     -48.676  13.177  21.798  0.00  0.00     0.005 A 
ATOM     10  C   UNL d   1     -49.198  14.498  22.023  0.00  0.00     0.198 A 
ATOM     11  C   UNL d   1     -49.261  13.752  21.676  0.00  0.00     0.042 A 
ATOM     12  O   UNL d   1     -49.784  15.056  21.893  0.00  0.00    -0.286 OA
ENDROOT
BRANCH   1  13
ATOM     13  C   UNL d   1     -46.217  12.411  22.994  0.00  0.00     0.116 A 
ATOM     14  N   UNL d   1     -45.433  12.406  22.783  0.00  0.00    -0.238 NA
ATOM     15  C   UNL d   1     -45.095  11.704  23.025  0.00  0.00     0.088 A 
ATOM     16  C   UNL d   1     -44.318  11.419  22.950  0.00  0.00     0.020 A 
ATOM     17  C   UNL d   1     -45.670  11.271  23.389  0.00  0.00     0.049 A 
ATOM     18  C   UNL d   1     -44.151  10.666  23.263  0.00  0.00     0.002 A 
ATOM     19  C   UNL d   1     -44.738  10.223  23.635  0.00  0.00     0.001 A 
ATOM     20  C   UNL d   1     -45.505  10.530  23.697  0.00  0.00     0.008 A 
ATOM     21  S   UNL d   1     -46.376  11.686  23.383  0.00  0.00    -0.066 SA
ENDBRANCH   1  13
TORSDOF 1
ENDMDL
MODEL 5
REMARK VINA RESULT:      -7.0      1.584      2.041
REMARK  1 active torsions:
REMARK  status: ('A' for Active; 'I' for Inactive)
REMARK    1  A    between atoms: C_2  and  C_1 
ROOT
ATOM      1  C   UNL d   1     -47.654  13.275  22.706  0.00  0.00     0.087 A 
ATOM      2  C   UNL d   1     -47.430  14.067  22.765  0.00  0.00     0.302 A 
ATOM      3  C   UNL d   1     -47.098  12.692  22.510  0.00  0.00     0.009 A 
ATOM      4  O   UNL d   1     -46.650  14.279  22.627  0.00  0.00    -0.273 OA
ATOM      5  C   UNL d   1     -46.089  13.713  22.432  0.00  0.00     0.106 A 
ATOM      6  C   UNL d   1     -46.312  12.921  22.373  0.00  0.00     0.023 A 
ATOM      7  C   UNL d   1     -45.308  13.924  22.294  0.00  0.00     0.067 A 
ATOM      8  O   UNL d   1     -47.992  14.633  22.960  0.00  0.00    -0.259 OA
ATOM      9  C   UNL d   1     -45.756  12.338  22.177  0.00  0.00     0.005 A 
ATOM     10  C   UNL d   1     -44.747  13.358  22.099  0.00  0.00     0.198 A 
ATOM     11  C   UNL d   1     -44.970  12.566  22.041  0.00  0.00     0.042 A 
ATOM     12  O   UNL d   1     -43.967  13.570  21.961  0.00  0.00    -0.286 OA
ENDROOT
BRANCH   1  13
ATOM     13  C   UNL d   1     -48.426  13.042  22.839  0.00  0.00     0.116 A 
ATOM     14  N   UNL d   1     -49.122  13.355  22.561  0.00  0.00    -0.238 NA
ATOM     15  C   UNL d   1     -49.747  12.922  22.856  0.00  0.00     0.088 A 
ATOM     16  C   UNL d   1     -50.566  13.004  22.746  0.00  0.00     0.020 A 
ATOM     17  C   UNL d   1     -49.440  12.337  23.318  0.00  0.00     0.049 A 
ATOM     18  C   UNL d   1     -51.064  12.459  23.132  0.00  0.00     0.002 A 
ATOM     19  C   UNL d   1     -50.750  11.862  23.605  0.00  0.00     0.001 A 
ATOM     20  C   UNL d   1     -49.929  11.801  23.698  0.00  0.00     0.008 A 
ATOM     21  S   UNL d   1     -48.622  12.389  23.325  0.00  0.00    -0.066 SA
ENDBRANCH   1  13
TORSDOF 1
ENDMDL
MODEL 6
REMARK VINA RESULT:      -6.7      8.879     10.498
REMARK  1 active torsions:
REMARK  status: ('A' for Active; 'I' for Inactive)
REMARK    1  A    between atoms: C_2  and  C_1 
ROOT
ATOM      1  C   UNL d   1     -39.644  14.622  18.520  0.00  0.00     0.087 A 
ATOM      2  C   UNL d   1     -40.422  14.410  18.693  0.00  0.00     0.302 A 
ATOM      3  C   UNL d   1     -39.192  15.053  19.065  0.00  0.00     0.009 A 
ATOM      4  O   UNL d   1     -40.752  14.629  19.411  0.00  0.00    -0.273 OA
ATOM      5  C   UNL d   1     -40.317  15.057  19.961  0.00  0.00     0.106 A 
ATOM      6  C   UNL d   1     -39.538  15.268  19.788  0.00  0.00     0.023 A 
ATOM      7  C   UNL d   1     -40.647  15.276  20.679  0.00  0.00     0.067 A 
ATOM      8  O   UNL d   1     -40.857  13.983  18.143  0.00  0.00    -0.259 OA
ATOM      9  C   UNL d   1     -39.087  15.700  20.333  0.00  0.00     0.005 A 
ATOM     10  C   UNL d   1     -40.212  15.703  21.229  0.00  0.00     0.198 A 
ATOM     11  C   UNL d   1     -39.433  15.915  21.056  0.00  0.00     0.042 A 
ATOM     12  O   UNL d   1     -40.541  15.922  21.947  0.00  0.00    -0.286 OA
ENDROOT
BRANCH   1  13
ATOM     13  C   UNL d   1     -39.296  14.414  17.811  0.00  0.00     0.116 A 
ATOM     14  N   UNL d   1     -39.320  14.784  17.088  0.00  0.00    -0.238 NA
ATOM     15  C   UNL d   1     -38.880  14.354  16.552  0.00  0.00     0.088 A 
ATOM     16  C   UNL d   1     -38.724  14.484  15.747  0.00  0.00     0.020 A 
ATOM     17  C   UNL d   1     -38.581  13.714  16.942  0.00  0.00     0.049 A 
ATOM     18  C   UNL d   1     -38.245  13.929  15.352  0.00  0.00     0.002 A 
ATOM     19  C   UNL d   1     -37.940  13.276  15.750  0.00  0.00     0.001 A 
ATOM     20  C   UNL d   1     -38.110  13.168  16.553  0.00  0.00     0.008 A 
ATOM     21  S   UNL d   1     -38.824  13.727  17.725  0.00  0.00    -0.066 SA
ENDBRANCH   1  13
TORSDOF 1
ENDMDL
MODEL 7
REMARK VINA RESULT:      -6.6      8.664      9.350
REMARK  1 active torsions:
REMARK  status: ('A' for Active; 'I' for Inactive)
REMARK    1  A    between atoms: C_2  and  C_1 
ROOT
ATOM      1  C   UNL d   1     -39.701  14.441  20.209  0.00  0.00     0.087 A 
ATOM      2  C   UNL d   1     -40.169  14.651  20.855  0.00  0.00     0.302 A 
ATOM      3  C   UNL d   1     -39.027  13.968  20.310  0.00  0.00     0.009 A 
ATOM      4  O   UNL d   1     -39.965  14.390  21.605  0.00  0.00    -0.273 OA
ATOM      5  C   UNL d   1     -39.301  13.922  21.721  0.00  0.00     0.106 A 
ATOM      6  C   UNL d   1     -38.833  13.711  21.075  0.00  0.00     0.023 A 
ATOM      7  C   UNL d   1     -39.097  13.660  22.471  0.00  0.00     0.067 A 
ATOM      8  O   UNL d   1     -40.833  15.119  20.738  0.00  0.00    -0.259 OA
ATOM      9  C   UNL d   1     -38.159  13.239  21.177  0.00  0.00     0.005 A 
ATOM     10  C   UNL d   1     -38.432  13.192  22.587  0.00  0.00     0.198 A 
ATOM     11  C   UNL d   1     -37.964  12.982  21.941  0.00  0.00     0.042 A 
ATOM     12  O   UNL d   1     -38.228  12.931  23.337  0.00  0.00    -0.286 OA
ENDROOT
BRANCH   1  13
ATOM     13  C   UNL d   1     -39.886  14.690  19.453  0.00  0.00     0.116 A 
ATOM     14  N   UNL d   1     -40.453  14.420  18.937  0.00  0.00    -0.238 NA
ATOM     15  C   UNL d   1     -40.416  14.854  18.247  0.00  0.00     0.088 A 
ATOM     16  C   UNL d   1     -40.864  14.807  17.550  0.00  0.00     0.020 A 
ATOM     17  C   UNL d   1     -39.825  15.396  18.334  0.00  0.00     0.049 A 
ATOM     18  C   UNL d   1     -40.682  15.342  16.937  0.00  0.00     0.002 A 
ATOM     19  C   UNL d   1     -40.078  15.895  17.025  0.00  0.00     0.001 A 
ATOM     20  C   UNL d   1     -39.646  15.921  17.731  0.00  0.00     0.008 A 
ATOM     21  S   UNL d   1     -39.479  15.316  19.073  0.00  0.00    -0.066 SA
ENDBRANCH   1  13
TORSDOF 1
ENDMDL
MODEL 8
REMARK VINA RESULT:      -6.2      1.423      2.235
REMARK  1 active torsions:
REMARK  status: ('A' for Active; 'I' for Inactive)
REMARK    1  A    between atoms: C_2  and  C_1 
ROOT
ATOM      1  C   UNL d   1     -46.479  12.027  23.205  0.00  0.00     0.087 A 
ATOM      2  C   UNL d   1     -45.886  12.534  22.937  0.00  0.00     0.302 A 
ATOM      3  C   UNL d   1     -46.296  11.258  23.457  0.00  0.00     0.009 A 
ATOM      4  O   UNL d   1     -45.108  12.275  22.920  0.00  0.00    -0.273 OA
ATOM      5  C   UNL d   1     -44.911  11.517  23.167  0.00  0.00     0.106 A 
ATOM      6  C   UNL d   1     -45.504  11.010  23.435  0.00  0.00     0.023 A 
ATOM      7  C   UNL d   1     -44.134  11.259  23.150  0.00  0.00     0.067 A 
ATOM      8  O   UNL d   1     -46.083  13.292  22.690  0.00  0.00    -0.259 OA
ATOM      9  C   UNL d   1     -45.321  10.242  23.687  0.00  0.00     0.005 A 
ATOM     10  C   UNL d   1     -43.937  10.501  23.397  0.00  0.00     0.198 A 
ATOM     11  C   UNL d   1     -44.529   9.993  23.665  0.00  0.00     0.042 A 
ATOM     12  O   UNL d   1     -43.159  10.242  23.380  0.00  0.00    -0.286 OA
ENDROOT
BRANCH   1  13
ATOM     13  C   UNL d   1     -47.260  12.264  23.230  0.00  0.00     0.116 A 
ATOM     14  N   UNL d   1     -47.602  12.965  22.999  0.00  0.00    -0.238 NA
ATOM     15  C   UNL d   1     -48.405  12.929  23.138  0.00  0.00     0.088 A 
ATOM     16  C   UNL d   1     -49.005  13.488  23.005  0.00  0.00     0.020 A 
ATOM     17  C   UNL d   1     -48.564  12.205  23.456  0.00  0.00     0.049 A 
ATOM     18  C   UNL d   1     -49.784  13.274  23.212  0.00  0.00     0.002 A 
ATOM     19  C   UNL d   1     -49.946  12.535  23.536  0.00  0.00     0.001 A 
ATOM     20  C   UNL d   1     -49.330  11.996  23.659  0.00  0.00     0.008 A 
ATOM     21  S   UNL d   1     -47.871  11.773  23.523  0.00  0.00    -0.066 SA
ENDBRANCH   1  13
TORSDOF 1
ENDMDL
