MODEL 1
REMARK VINA RESULT:      11.9      0.000      0.000
REMARK  3 active torsions:
REMARK  status: ('A' for Active; 'I' for Inactive)
REMARK    1  A    between atoms: C_6  and  C_1 
REMARK    2  A    between atoms: C_7  and  C_4 
REMARK    3  A    between atoms: O_14  and  C_6 
ROOT
ATOM      1  C   UNL d   1      45.618 -15.553  44.563  0.00  0.00     0.167 A 
ATOM      2  C   UNL d   1      45.289 -16.207  44.955  0.00  0.00     0.047 A 
ATOM      3  N   UNL d   1      46.459 -16.416  43.822  0.00  0.00    -0.148 NA
ATOM      4  C   UNL d   1      46.134 -17.069  44.209  0.00  0.00     0.105 A 
ATOM      5  N   UNL d   1      46.204 -15.655  43.995  0.00  0.00    -0.143 NA
ENDROOT
BRANCH   4   6
ATOM      6  C   UNL d   1      46.249 -17.884  44.179  0.00  0.00     0.019 A 
ATOM      7  C   UNL d   1      46.283 -18.263  43.447  0.00  0.00     0.002 A 
ATOM      8  C   UNL d   1      46.398 -19.077  43.416  0.00  0.00     0.000 A 
ATOM      9  C   UNL d   1      46.202 -17.835  42.752  0.00  0.00     0.000 C 
ATOM     10  C   UNL d   1      46.480 -19.513  44.117  0.00  0.00     0.000 A 
ATOM     11  C   UNL d   1      46.445 -19.126  44.843  0.00  0.00     0.000 A 
ATOM     12  C   UNL d   1      46.596 -20.330  44.083  0.00  0.00     0.000 C 
ATOM     13  C   UNL d   1      46.331 -18.316  44.877  0.00  0.00     0.002 A 
ENDBRANCH   4   6
BRANCH   1  14
ATOM     14  C   UNL d   1      45.352 -14.791  44.748  0.00  0.00     0.316 C 
ATOM     15  O   UNL d   1      44.560 -14.669  44.930  0.00  0.00    -0.257 OA
BRANCH  14  16
ATOM     16  O   UNL d   1      45.876 -14.162  44.748  0.00  0.00    -0.294 OA
ATOM     17  C   UNL d   1      45.592 -13.363  44.875  0.00  0.00     0.185 C 
ENDBRANCH  14  16
ENDBRANCH   1  14
TORSDOF 3
ENDMDL
MODEL 2
REMARK VINA RESULT:      12.1      1.884      4.314
REMARK  3 active torsions:
REMARK  status: ('A' for Active; 'I' for Inactive)
REMARK    1  A    between atoms: C_6  and  C_1 
REMARK    2  A    between atoms: C_7  and  C_4 
REMARK    3  A    between atoms: O_14  and  C_6 
ROOT
ATOM      1  C   UNL d   1      46.165 -17.548  43.909  0.00  0.00     0.167 A 
ATOM      2  C   UNL d   1      46.265 -16.904  43.396  0.00  0.00     0.047 A 
ATOM      3  N   UNL d   1      45.806 -16.663  44.954  0.00  0.00    -0.148 NA
ATOM      4  C   UNL d   1      45.904 -16.020  44.445  0.00  0.00     0.105 A 
ATOM      5  N   UNL d   1      45.935 -17.430  44.690  0.00  0.00    -0.143 NA
ENDROOT
BRANCH   4   6
ATOM      6  C   UNL d   1      45.826 -15.203  44.514  0.00  0.00     0.019 A 
ATOM      7  C   UNL d   1      45.109 -14.883  44.770  0.00  0.00     0.002 A 
ATOM      8  C   UNL d   1      45.030 -14.067  44.839  0.00  0.00     0.000 A 
ATOM      9  C   UNL d   1      44.477 -15.372  44.954  0.00  0.00     0.000 C 
ATOM     10  C   UNL d   1      45.668 -13.570  44.653  0.00  0.00     0.000 A 
ATOM     11  C   UNL d   1      46.380 -13.898  44.399  0.00  0.00     0.000 A 
ATOM     12  C   UNL d   1      45.587 -12.751  44.723  0.00  0.00     0.000 C 
ATOM     13  C   UNL d   1      46.460 -14.710  44.329  0.00  0.00     0.002 A 
ENDBRANCH   4   6
BRANCH   1  14
ATOM     14  C   UNL d   1      46.299 -18.315  43.631  0.00  0.00     0.316 C 
ATOM     15  O   UNL d   1      46.425 -18.927  44.165  0.00  0.00    -0.257 OA
BRANCH  14  16
ATOM     16  O   UNL d   1      46.306 -18.465  42.825  0.00  0.00    -0.294 OA
ATOM     17  C   UNL d   1      46.450 -19.259  42.535  0.00  0.00     0.185 C 
ENDBRANCH  14  16
ENDBRANCH   1  14
TORSDOF 3
ENDMDL
