MODEL 1
REMARK VINA RESULT:       0.2      0.000      0.000
REMARK  2 active torsions:
REMARK  status: ('A' for Active; 'I' for Inactive)
REMARK    1  A    between atoms: CA_3  and  C_1 
REMARK    2  A    between atoms: C_2  and  CA_3 
ROOT
ATOM      1  C   UNL d   1      45.306 -13.581  44.475  0.00  0.00     0.026 A 
ATOM      2  C   UNL d   1      45.035 -13.227  43.778  0.00  0.00     0.009 A 
ATOM      3  C   UNL d   1      45.303 -12.478  43.564  0.00  0.00     0.035 A 
ATOM      4 BR   UNL d   1      45.032 -12.128  42.870  0.00  0.00    -0.049 Br
ATOM      5  C   UNL d   1      45.845 -13.182  44.955  0.00  0.00     0.002 A 
ATOM      6  C   UNL d   1      46.114 -12.430  44.739  0.00  0.00     0.001 A 
ATOM      7  C   UNL d   1      45.843 -12.080  44.044  0.00  0.00     0.007 A 
ENDROOT
BRANCH   1   8
ATOM      8  CA  UNL d   1      45.034 -14.331  44.685  0.00  0.00     0.167 C 
ATOM      9  N   UNL d   1      44.266 -14.428  44.955  0.00  0.00    -0.142 N 
BRANCH   8  10
ATOM     10  C   UNL d   1      45.534 -14.983  44.625  0.00  0.00     0.231 C 
ATOM     11  O   UNL d   1      45.262 -15.685  44.274  0.00  0.00    -0.643 OA
ATOM     12  OXT UNL d   1      46.309 -14.943  44.914  0.00  0.00    -0.643 OA
ENDBRANCH   8  10
ENDBRANCH   1   8
TORSDOF 2
ENDMDL
MODEL 2
REMARK VINA RESULT:       0.6      2.051      2.636
REMARK  2 active torsions:
REMARK  status: ('A' for Active; 'I' for Inactive)
REMARK    1  A    between atoms: CA_3  and  C_1 
REMARK    2  A    between atoms: C_2  and  CA_3 
ROOT
ATOM      1  C   UNL d   1      45.552 -13.447  44.170  0.00  0.00     0.026 A 
ATOM      2  C   UNL d   1      44.855 -13.801  44.441  0.00  0.00     0.009 A 
ATOM      3  C   UNL d   1      44.859 -14.587  44.686  0.00  0.00     0.035 A 
ATOM      4 BR   UNL d   1      44.165 -14.937  44.955  0.00  0.00    -0.049 Br
ATOM      5  C   UNL d   1      46.252 -13.884  44.145  0.00  0.00     0.002 A 
ATOM      6  C   UNL d   1      46.254 -14.674  44.391  0.00  0.00     0.001 A 
ATOM      7  C   UNL d   1      45.559 -15.024  44.661  0.00  0.00     0.007 A 
ENDROOT
BRANCH   1   8
ATOM      8  CA  UNL d   1      45.543 -12.659  43.927  0.00  0.00     0.167 C 
ATOM      9  N   UNL d   1      45.885 -12.080  44.396  0.00  0.00    -0.142 N 
BRANCH   8  10
ATOM     10  C   UNL d   1      45.192 -12.452  43.211  0.00  0.00     0.231 C 
ATOM     11  O   UNL d   1      45.588 -12.597  42.495  0.00  0.00    -0.643 OA
ATOM     12  OXT UNL d   1      44.443 -12.098  43.200  0.00  0.00    -0.643 OA
ENDBRANCH   8  10
ENDBRANCH   1   8
TORSDOF 2
ENDMDL
MODEL 3
REMARK VINA RESULT:       1.3      5.487      6.031
REMARK  2 active torsions:
REMARK  status: ('A' for Active; 'I' for Inactive)
REMARK    1  A    between atoms: CA_3  and  C_1 
REMARK    2  A    between atoms: C_2  and  CA_3 
ROOT
ATOM      1  C   UNL d   1      46.450 -19.200  43.298  0.00  0.00     0.026 A 
ATOM      2  C   UNL d   1      46.493 -18.555  42.783  0.00  0.00     0.009 A 
ATOM      3  C   UNL d   1      46.591 -18.679  41.974  0.00  0.00     0.035 A 
ATOM      4 BR   UNL d   1      46.633 -18.036  41.463  0.00  0.00    -0.049 Br
ATOM      5  C   UNL d   1      46.506 -19.968  43.002  0.00  0.00     0.002 A 
ATOM      6  C   UNL d   1      46.604 -20.091  42.190  0.00  0.00     0.001 A 
ATOM      7  C   UNL d   1      46.647 -19.447  41.678  0.00  0.00     0.007 A 
ENDROOT
BRANCH   1   8
ATOM      8  CA  UNL d   1      46.352 -19.072  44.107  0.00  0.00     0.167 C 
ATOM      9  N   UNL d   1      46.511 -18.334  44.428  0.00  0.00    -0.142 N 
BRANCH   8  10
ATOM     10  C   UNL d   1      46.095 -19.684  44.595  0.00  0.00     0.231 C 
ATOM     11  O   UNL d   1      45.282 -19.794  44.732  0.00  0.00    -0.643 OA
ATOM     12  OXT UNL d   1      46.642 -20.194  44.950  0.00  0.00    -0.643 OA
ENDBRANCH   8  10
ENDBRANCH   1   8
TORSDOF 2
ENDMDL
MODEL 4
REMARK VINA RESULT:       1.6      5.713      6.239
REMARK  2 active torsions:
REMARK  status: ('A' for Active; 'I' for Inactive)
REMARK    1  A    between atoms: CA_3  and  C_1 
REMARK    2  A    between atoms: C_2  and  CA_3 
ROOT
ATOM      1  C   UNL d   1      46.404 -19.479  43.135  0.00  0.00     0.026 A 
ATOM      2  C   UNL d   1      46.513 -18.826  43.631  0.00  0.00     0.009 A 
ATOM      3  C   UNL d   1      46.528 -18.926  44.448  0.00  0.00     0.035 A 
ATOM      4 BR   UNL d   1      46.637 -18.275  44.939  0.00  0.00    -0.049 Br
ATOM      5  C   UNL d   1      46.309 -20.231  43.461  0.00  0.00     0.002 A 
ATOM      6  C   UNL d   1      46.323 -20.330  44.283  0.00  0.00     0.001 A 
ATOM      7  C   UNL d   1      46.432 -19.678  44.774  0.00  0.00     0.007 A 
ENDROOT
BRANCH   1   8
ATOM      8  CA  UNL d   1      46.391 -19.375  42.317  0.00  0.00     0.167 C 
ATOM      9  N   UNL d   1      46.647 -19.976  41.822  0.00  0.00    -0.142 N 
BRANCH   8  10
ATOM     10  C   UNL d   1      46.120 -18.666  41.996  0.00  0.00     0.231 C 
ATOM     11  O   UNL d   1      45.315 -18.467  42.046  0.00  0.00    -0.643 OA
ATOM     12  OXT UNL d   1      46.647 -18.149  41.621  0.00  0.00    -0.643 OA
ENDBRANCH   8  10
ENDBRANCH   1   8
TORSDOF 2
ENDMDL
