MODEL 1
REMARK VINA RESULT:      -2.6      0.000      0.000
REMARK  5 active torsions:
REMARK  status: ('A' for Active; 'I' for Inactive)
REMARK    1  A    between atoms: C_4  and  C_1 
REMARK    2  A    between atoms: C_5  and  C_2 
REMARK    3  A    between atoms: N_6  and  C_4 
REMARK    4  A    between atoms: C_25  and  N_10 
REMARK    5  A    between atoms: C_21  and  C_25 
ROOT
ATOM      1  N   UNL d   1     -44.060-123.328 -46.868  0.00  0.00    -0.191 NA
ATOM      2  C   UNL d   1     -43.444-123.480 -47.396  0.00  0.00     0.103 C 
ATOM      3  C   UNL d   1     -42.827-123.631 -47.919  0.00  0.00     0.097 C 
ENDROOT
BRANCH   3   4
ATOM      4  C   UNL d   1     -42.992-123.817 -48.701  0.00  0.00     0.091 C 
BRANCH   4   5
ATOM      5  N   UNL d   1     -42.616-123.409 -49.314  0.00  0.00    -0.299 N 
ATOM      6  C   UNL d   1     -41.907-123.698 -49.620  0.00  0.00     0.100 A 
ATOM      7  C   UNL d   1     -41.529-123.294 -50.232  0.00  0.00     0.100 A 
ATOM      8  N   UNL d   1     -41.860-122.602 -50.536  0.00  0.00    -0.291 N 
ATOM      9  C   UNL d   1     -42.570-122.310 -50.231  0.00  0.00     0.100 A 
ATOM     10  C   UNL d   1     -42.946-122.718 -49.618  0.00  0.00     0.100 A 
BRANCH   8  11
ATOM     11  C   UNL d   1     -41.481-122.204 -51.142  0.00  0.00     0.143 C 
ATOM     12  S   UNL d   1     -41.125-121.475 -51.000  0.00  0.00    -0.057 SA
BRANCH  11  13
ATOM     13  C   UNL d   1     -41.454-122.530 -51.901  0.00  0.00     0.126 A 
ATOM     14  O   UNL d   1     -41.696-122.165 -52.598  0.00  0.00    -0.305 OA
ATOM     15  C   UNL d   1     -41.572-122.689 -53.226  0.00  0.00     0.101 A 
ATOM     16  C   UNL d   1     -41.251-123.383 -52.909  0.00  0.00     0.027 A 
ATOM     17  C   UNL d   1     -41.179-123.283 -52.092  0.00  0.00     0.029 A 
BRANCH  15  18
ATOM     18  C   UNL d   1     -41.736-122.550 -54.022  0.00  0.00     0.034 A 
ATOM     19  C   UNL d   1     -41.511-123.107 -54.583  0.00  0.00     0.060 A 
ATOM     20  C   UNL d   1     -41.673-122.974 -55.382  0.00  0.00     0.012 A 
ATOM     21 CL   UNL d   1     -41.123-123.799 -54.349  0.00  0.00    -0.082 Cl
ATOM     22  C   UNL d   1     -42.062-122.278 -55.614  0.00  0.00     0.012 A 
ATOM     23  C   UNL d   1     -42.286-121.720 -55.037  0.00  0.00     0.058 A 
ATOM     24  C   UNL d   1     -42.120-121.862 -54.245  0.00  0.00     0.014 A 
ATOM     25 CL   UNL d   1     -42.674-121.026 -55.271  0.00  0.00    -0.082 Cl
ENDBRANCH  15  18
ENDBRANCH  11  13
ENDBRANCH   8  11
ENDBRANCH   4   5
ENDBRANCH   3   4
TORSDOF 5
ENDMDL
