MODEL 1
REMARK VINA RESULT:      -9.0      0.000      0.000
REMARK  6 active torsions:
REMARK  status: ('A' for Active; 'I' for Inactive)
REMARK    1  A    between atoms: C_5  and  N_1 
REMARK    2  A    between atoms: C_2  and  C_4 
REMARK       I    between atoms: N_3  and  C_2 
REMARK    3  A    between atoms: C_7  and  N_3 
REMARK       I    between atoms: C_4  and  N_8 
REMARK    4  A    between atoms: C_10  and  C_5 
REMARK    5  A    between atoms: C_14  and  C_5 
REMARK    6  A    between atoms: N_8  and  C_10 
ROOT
ATOM      1  C   UNL d   1      52.834  32.380  53.161  0.00  0.00     0.085 C 
ENDROOT
BRANCH   1   2
ATOM      2  N   UNL d   1      53.335  32.697  53.757  0.00  0.00    -0.302 N 
ATOM      3  C   UNL d   1      54.090  32.970  53.566  0.00  0.00     0.080 A 
ATOM      4  C   UNL d   1      54.577  33.280  54.153  0.00  0.00     0.018 A 
ATOM      5  C   UNL d   1      55.336  33.555  53.961  0.00  0.00     0.002 A 
ATOM      6  C   UNL d   1      54.310  33.316  54.930  0.00  0.00     0.003 A 
ATOM      7  C   UNL d   1      55.830  33.867  54.545  0.00  0.00     0.000 A 
ATOM      8  C   UNL d   1      55.557  33.902  55.329  0.00  0.00     0.000 A 
ATOM      9  C   UNL d   1      54.797  33.627  55.521  0.00  0.00     0.000 A 
ATOM     10  C   UNL d   1      53.555  33.043  55.121  0.00  0.00     0.019 A 
ATOM     11  C   UNL d   1      53.068  32.733  54.535  0.00  0.00     0.080 A 
ENDBRANCH   1   2
BRANCH   1  12
ATOM     12  C   UNL d   1      52.460  32.882  52.625  0.00  0.00     0.120 C 
BRANCH  12  13
ATOM     13  N   UNL d   1      51.752  33.252  52.825  0.00  0.00    -0.201 NA
ATOM     14  C   UNL d   1      51.418  33.820  52.315  0.00  0.00     0.337 C 
ATOM     15  O   UNL d   1      51.799  34.012  51.607  0.00  0.00    -0.260 OA
BRANCH  14  16
ATOM     16  C   UNL d   1      50.711  34.190  52.516  0.00  0.00     0.337 C 
ATOM     17  N   UNL d   1      50.168  34.399  51.924  0.00  0.00    -0.202 NA
ATOM     18  O   UNL d   1      50.537  34.355  53.311  0.00  0.00    -0.260 OA
BRANCH  17  19
ATOM     19  C   UNL d   1      49.456  34.771  52.131  0.00  0.00     0.112 A 
ATOM     20  C   UNL d   1      48.827  34.778  51.596  0.00  0.00     0.160 A 
ATOM     21  C   UNL d   1      48.123  35.142  51.791  0.00  0.00     0.061 A 
ATOM     22  F   UNL d   1      48.904  34.411  50.845  0.00  0.00    -0.203 F 
ATOM     23  C   UNL d   1      48.039  35.508  52.533  0.00  0.00     0.142 A 
ATOM     24  C   UNL d   1      48.668  35.501  53.067  0.00  0.00     0.031 A 
ATOM     25  F   UNL d   1      47.319  35.879  52.729  0.00  0.00    -0.204 F 
ATOM     26  C   UNL d   1      49.380  35.128  52.860  0.00  0.00     0.024 A 
ENDBRANCH  17  19
ENDBRANCH  14  16
ENDBRANCH  12  13
ENDBRANCH   1  12
BRANCH   1  27
ATOM     27  C   UNL d   1      52.721  31.566  53.117  0.00  0.00     0.037 A 
ATOM     28  C   UNL d   1      52.073  31.221  53.490  0.00  0.00     0.100 A 
ATOM     29  N   UNL d   1      51.959  30.407  53.446  0.00  0.00    -0.242 NA
ATOM     30  C   UNL d   1      52.496  29.935  53.026  0.00  0.00     0.099 A 
ATOM     31  C   UNL d   1      53.144  30.279  52.652  0.00  0.00     0.021 A 
ATOM     32  C   UNL d   1      53.257  31.094  52.697  0.00  0.00     0.005 A 
ENDBRANCH   1  27
TORSDOF 6
ENDMDL
MODEL 2
REMARK VINA RESULT:      -8.6      1.016      2.964
REMARK  6 active torsions:
REMARK  status: ('A' for Active; 'I' for Inactive)
REMARK    1  A    between atoms: C_5  and  N_1 
REMARK    2  A    between atoms: C_2  and  C_4 
REMARK       I    between atoms: N_3  and  C_2 
REMARK    3  A    between atoms: C_7  and  N_3 
REMARK       I    between atoms: C_4  and  N_8 
REMARK    4  A    between atoms: C_10  and  C_5 
REMARK    5  A    between atoms: C_14  and  C_5 
REMARK    6  A    between atoms: N_8  and  C_10 
ROOT
ATOM      1  C   UNL d   1      53.417  32.914  54.045  0.00  0.00     0.085 C 
ENDROOT
BRANCH   1   2
ATOM      2  N   UNL d   1      53.298  32.127  53.775  0.00  0.00    -0.302 N 
ATOM      3  C   UNL d   1      53.334  31.494  54.302  0.00  0.00     0.080 A 
ATOM      4  C   UNL d   1      53.217  30.725  54.032  0.00  0.00     0.018 A 
ATOM      5  C   UNL d   1      53.254  30.088  54.564  0.00  0.00     0.002 A 
ATOM      6  C   UNL d   1      53.063  30.589  53.236  0.00  0.00     0.003 A 
ATOM      7  C   UNL d   1      53.137  29.314  54.299  0.00  0.00     0.000 A 
ATOM      8  C   UNL d   1      52.981  29.180  53.494  0.00  0.00     0.000 A 
ATOM      9  C   UNL d   1      52.944  29.817  52.963  0.00  0.00     0.000 A 
ATOM     10  C   UNL d   1      53.026  31.222  52.708  0.00  0.00     0.019 A 
ATOM     11  C   UNL d   1      53.143  31.991  52.977  0.00  0.00     0.080 A 
ENDBRANCH   1   2
BRANCH   1  12
ATOM     12  C   UNL d   1      52.771  33.415  54.158  0.00  0.00     0.120 C 
BRANCH  12  13
ATOM     13  N   UNL d   1      52.232  33.543  53.549  0.00  0.00    -0.201 NA
ATOM     14  C   UNL d   1      51.733  34.210  53.565  0.00  0.00     0.337 C 
ATOM     15  O   UNL d   1      51.781  34.744  54.195  0.00  0.00    -0.260 OA
BRANCH  14  16
ATOM     16  C   UNL d   1      51.195  34.337  52.957  0.00  0.00     0.337 C 
ATOM     17  N   UNL d   1      50.381  34.358  53.119  0.00  0.00    -0.202 NA
ATOM     18  O   UNL d   1      51.462  34.445  52.178  0.00  0.00    -0.260 OA
BRANCH  17  19
ATOM     19  C   UNL d   1      49.841  34.487  52.502  0.00  0.00     0.112 A 
ATOM     20  C   UNL d   1      49.165  34.939  52.637  0.00  0.00     0.160 A 
ATOM     21  C   UNL d   1      48.628  35.071  52.036  0.00  0.00     0.061 A 
ATOM     22  F   UNL d   1      49.020  35.270  53.396  0.00  0.00    -0.203 F 
ATOM     23  C   UNL d   1      48.765  34.748  51.283  0.00  0.00     0.142 A 
ATOM     24  C   UNL d   1      49.441  34.295  51.147  0.00  0.00     0.031 A 
ATOM     25  F   UNL d   1      48.215  34.884  50.672  0.00  0.00    -0.204 F 
ATOM     26  C   UNL d   1      49.981  34.166  51.765  0.00  0.00     0.024 A 
ENDBRANCH  17  19
ENDBRANCH  14  16
ENDBRANCH  12  13
ENDBRANCH   1  12
BRANCH   1  27
ATOM     27  C   UNL d   1      54.180  33.179  54.197  0.00  0.00     0.037 A 
ATOM     28  C   UNL d   1      54.715  33.267  53.576  0.00  0.00     0.100 A 
ATOM     29  N   UNL d   1      55.479  33.533  53.728  0.00  0.00    -0.242 NA
ATOM     30  C   UNL d   1      55.710  33.712  54.503  0.00  0.00     0.099 A 
ATOM     31  C   UNL d   1      55.177  33.625  55.124  0.00  0.00     0.021 A 
ATOM     32  C   UNL d   1      54.412  33.359  54.972  0.00  0.00     0.005 A 
ENDBRANCH   1  27
TORSDOF 6
ENDMDL
MODEL 3
REMARK VINA RESULT:      -8.1      1.277      2.727
REMARK  6 active torsions:
REMARK  status: ('A' for Active; 'I' for Inactive)
REMARK    1  A    between atoms: C_5  and  N_1 
REMARK    2  A    between atoms: C_2  and  C_4 
REMARK       I    between atoms: N_3  and  C_2 
REMARK    3  A    between atoms: C_7  and  N_3 
REMARK       I    between atoms: C_4  and  N_8 
REMARK    4  A    between atoms: C_10  and  C_5 
REMARK    5  A    between atoms: C_14  and  C_5 
REMARK    6  A    between atoms: N_8  and  C_10 
ROOT
ATOM      1  C   UNL d   1      52.572  33.665  53.184  0.00  0.00     0.085 C 
ENDROOT
BRANCH   1   2
ATOM      2  N   UNL d   1      52.908  32.895  53.225  0.00  0.00    -0.302 N 
ATOM      3  C   UNL d   1      52.422  32.229  53.250  0.00  0.00     0.080 A 
ATOM      4  C   UNL d   1      52.756  31.477  53.290  0.00  0.00     0.018 A 
ATOM      5  C   UNL d   1      52.267  30.807  53.315  0.00  0.00     0.002 A 
ATOM      6  C   UNL d   1      53.574  31.392  53.305  0.00  0.00     0.003 A 
ATOM      7  C   UNL d   1      52.595  30.049  53.355  0.00  0.00     0.000 A 
ATOM      8  C   UNL d   1      53.422  29.967  53.370  0.00  0.00     0.000 A 
ATOM      9  C   UNL d   1      53.911  30.638  53.345  0.00  0.00     0.000 A 
ATOM     10  C   UNL d   1      54.059  32.058  53.280  0.00  0.00     0.019 A 
ATOM     11  C   UNL d   1      53.727  32.810  53.240  0.00  0.00     0.080 A 
ENDBRANCH   1   2
BRANCH   1  12
ATOM     12  C   UNL d   1      52.013  33.842  52.603  0.00  0.00     0.120 C 
BRANCH  12  13
ATOM     13  N   UNL d   1      51.270  34.131  52.815  0.00  0.00    -0.201 NA
ATOM     14  C   UNL d   1      50.698  34.279  52.228  0.00  0.00     0.337 C 
ATOM     15  O   UNL d   1      50.876  34.136  51.433  0.00  0.00    -0.260 OA
BRANCH  14  16
ATOM     16  C   UNL d   1      49.957  34.567  52.439  0.00  0.00     0.337 C 
ATOM     17  N   UNL d   1      49.494  34.971  51.881  0.00  0.00    -0.202 NA
ATOM     18  O   UNL d   1      49.670  34.456  53.210  0.00  0.00    -0.260 OA
BRANCH  17  19
ATOM     19  C   UNL d   1      48.746  35.261  52.098  0.00  0.00     0.112 A 
ATOM     20  C   UNL d   1      48.116  35.206  51.568  0.00  0.00     0.160 A 
ATOM     21  C   UNL d   1      47.378  35.488  51.774  0.00  0.00     0.061 A 
ATOM     22  F   UNL d   1      48.227  34.860  50.811  0.00  0.00    -0.203 F 
ATOM     23  C   UNL d   1      47.261  35.832  52.521  0.00  0.00     0.142 A 
ATOM     24  C   UNL d   1      47.891  35.886  53.051  0.00  0.00     0.031 A 
ATOM     25  F   UNL d   1      46.506  36.119  52.727  0.00  0.00    -0.204 F 
ATOM     26  C   UNL d   1      48.638  35.597  52.834  0.00  0.00     0.024 A 
ENDBRANCH  17  19
ENDBRANCH  14  16
ENDBRANCH  12  13
ENDBRANCH   1  12
BRANCH   1  27
ATOM     27  C   UNL d   1      52.804  34.238  53.726  0.00  0.00     0.037 A 
ATOM     28  C   UNL d   1      52.669  34.123  54.530  0.00  0.00     0.100 A 
ATOM     29  N   UNL d   1      52.901  34.697  55.071  0.00  0.00    -0.242 NA
ATOM     30  C   UNL d   1      53.271  35.390  54.808  0.00  0.00     0.099 A 
ATOM     31  C   UNL d   1      53.407  35.507  54.005  0.00  0.00     0.021 A 
ATOM     32  C   UNL d   1      53.174  34.932  53.463  0.00  0.00     0.005 A 
ENDBRANCH   1  27
TORSDOF 6
ENDMDL
MODEL 4
REMARK VINA RESULT:      -7.5      2.674      5.533
REMARK  6 active torsions:
REMARK  status: ('A' for Active; 'I' for Inactive)
REMARK    1  A    between atoms: C_5  and  N_1 
REMARK    2  A    between atoms: C_2  and  C_4 
REMARK       I    between atoms: N_3  and  C_2 
REMARK    3  A    between atoms: C_7  and  N_3 
REMARK       I    between atoms: C_4  and  N_8 
REMARK    4  A    between atoms: C_10  and  C_5 
REMARK    5  A    between atoms: C_14  and  C_5 
REMARK    6  A    between atoms: N_8  and  C_10 
ROOT
ATOM      1  C   UNL d   1      52.551  34.171  53.372  0.00  0.00     0.085 C 
ENDROOT
BRANCH   1   2
ATOM      2  N   UNL d   1      51.760  34.185  53.091  0.00  0.00    -0.302 N 
ATOM      3  C   UNL d   1      51.603  34.307  52.290  0.00  0.00     0.080 A 
ATOM      4  C   UNL d   1      50.826  34.320  52.019  0.00  0.00     0.018 A 
ATOM      5  C   UNL d   1      50.668  34.443  51.214  0.00  0.00     0.002 A 
ATOM      6  C   UNL d   1      50.205  34.211  52.548  0.00  0.00     0.003 A 
ATOM      7  C   UNL d   1      49.890  34.456  50.935  0.00  0.00     0.000 A 
ATOM      8  C   UNL d   1      49.266  34.346  51.473  0.00  0.00     0.000 A 
ATOM      9  C   UNL d   1      49.424  34.223  52.278  0.00  0.00     0.000 A 
ATOM     10  C   UNL d   1      50.362  34.089  53.349  0.00  0.00     0.019 A 
ATOM     11  C   UNL d   1      51.138  34.076  53.621  0.00  0.00     0.080 A 
ENDBRANCH   1   2
BRANCH   1  12
ATOM     12  C   UNL d   1      53.062  33.565  53.142  0.00  0.00     0.120 C 
BRANCH  12  13
ATOM     13  N   UNL d   1      53.071  32.851  53.552  0.00  0.00    -0.201 NA
ATOM     14  C   UNL d   1      53.662  32.285  53.392  0.00  0.00     0.337 C 
ATOM     15  O   UNL d   1      54.239  32.443  52.821  0.00  0.00    -0.260 OA
BRANCH  14  16
ATOM     16  C   UNL d   1      53.670  31.572  53.801  0.00  0.00     0.337 C 
ATOM     17  N   UNL d   1      53.242  30.922  53.513  0.00  0.00    -0.202 NA
ATOM     18  O   UNL d   1      54.107  31.499  54.504  0.00  0.00    -0.260 OA
BRANCH  17  19
ATOM     19  C   UNL d   1      53.254  30.204  53.930  0.00  0.00     0.112 A 
ATOM     20  C   UNL d   1      53.176  29.492  53.520  0.00  0.00     0.160 A 
ATOM     21  C   UNL d   1      53.187  28.781  53.921  0.00  0.00     0.061 A 
ATOM     22  F   UNL d   1      53.086  29.490  52.684  0.00  0.00    -0.203 F 
ATOM     23  C   UNL d   1      53.276  28.774  54.747  0.00  0.00     0.142 A 
ATOM     24  C   UNL d   1      53.353  29.486  55.157  0.00  0.00     0.031 A 
ATOM     25  F   UNL d   1      53.286  28.047  55.154  0.00  0.00    -0.204 F 
ATOM     26  C   UNL d   1      53.341  30.205  54.741  0.00  0.00     0.024 A 
ENDBRANCH  17  19
ENDBRANCH  14  16
ENDBRANCH  12  13
ENDBRANCH   1  12
BRANCH   1  27
ATOM     27  C   UNL d   1      52.813  34.766  53.877  0.00  0.00     0.037 A 
ATOM     28  C   UNL d   1      52.689  34.699  54.688  0.00  0.00     0.100 A 
ATOM     29  N   UNL d   1      52.950  35.293  55.193  0.00  0.00    -0.242 NA
ATOM     30  C   UNL d   1      53.339  35.958  54.886  0.00  0.00     0.099 A 
ATOM     31  C   UNL d   1      53.464  36.025  54.076  0.00  0.00     0.021 A 
ATOM     32  C   UNL d   1      53.202  35.430  53.570  0.00  0.00     0.005 A 
ENDBRANCH   1  27
TORSDOF 6
ENDMDL
MODEL 5
REMARK VINA RESULT:      -7.2      2.708      4.974
REMARK  6 active torsions:
REMARK  status: ('A' for Active; 'I' for Inactive)
REMARK    1  A    between atoms: C_5  and  N_1 
REMARK    2  A    between atoms: C_2  and  C_4 
REMARK       I    between atoms: N_3  and  C_2 
REMARK    3  A    between atoms: C_7  and  N_3 
REMARK       I    between atoms: C_4  and  N_8 
REMARK    4  A    between atoms: C_10  and  C_5 
REMARK    5  A    between atoms: C_14  and  C_5 
REMARK    6  A    between atoms: N_8  and  C_10 
ROOT
ATOM      1  C   UNL d   1      52.398  33.049  53.084  0.00  0.00     0.085 C 
ENDROOT
BRANCH   1   2
ATOM      2  N   UNL d   1      52.935  33.308  53.676  0.00  0.00    -0.302 N 
ATOM      3  C   UNL d   1      53.747  33.312  53.529  0.00  0.00     0.080 A 
ATOM      4  C   UNL d   1      54.270  33.567  54.111  0.00  0.00     0.018 A 
ATOM      5  C   UNL d   1      55.087  33.571  53.963  0.00  0.00     0.002 A 
ATOM      6  C   UNL d   1      53.982  33.817  54.840  0.00  0.00     0.003 A 
ATOM      7  C   UNL d   1      55.617  33.826  54.544  0.00  0.00     0.000 A 
ATOM      8  C   UNL d   1      55.322  34.078  55.279  0.00  0.00     0.000 A 
ATOM      9  C   UNL d   1      54.506  34.074  55.427  0.00  0.00     0.000 A 
ATOM     10  C   UNL d   1      53.170  33.813  54.987  0.00  0.00     0.019 A 
ATOM     11  C   UNL d   1      52.647  33.559  54.406  0.00  0.00     0.080 A 
ENDBRANCH   1   2
BRANCH   1  12
ATOM     12  C   UNL d   1      52.497  32.311  52.730  0.00  0.00     0.120 C 
BRANCH  12  13
ATOM     13  N   UNL d   1      52.535  31.629  53.191  0.00  0.00    -0.201 NA
ATOM     14  C   UNL d   1      52.703  30.894  52.837  0.00  0.00     0.337 C 
ATOM     15  O   UNL d   1      52.832  30.849  52.022  0.00  0.00    -0.260 OA
BRANCH  14  16
ATOM     16  C   UNL d   1      52.742  30.214  53.298  0.00  0.00     0.337 C 
ATOM     17  N   UNL d   1      53.327  30.140  53.882  0.00  0.00    -0.202 NA
ATOM     18  O   UNL d   1      52.197  29.599  53.181  0.00  0.00    -0.260 OA
BRANCH  17  19
ATOM     19  C   UNL d   1      53.362  29.452  54.346  0.00  0.00     0.112 A 
ATOM     20  C   UNL d   1      53.345  29.511  55.168  0.00  0.00     0.160 A 
ATOM     21  C   UNL d   1      53.380  28.839  55.631  0.00  0.00     0.061 A 
ATOM     22  F   UNL d   1      53.293  30.263  55.540  0.00  0.00    -0.203 F 
ATOM     23  C   UNL d   1      53.432  28.092  55.272  0.00  0.00     0.142 A 
ATOM     24  C   UNL d   1      53.449  28.033  54.449  0.00  0.00     0.031 A 
ATOM     25  F   UNL d   1      53.467  27.409  55.748  0.00  0.00    -0.204 F 
ATOM     26  C   UNL d   1      53.414  28.722  53.986  0.00  0.00     0.024 A 
ENDBRANCH  17  19
ENDBRANCH  14  16
ENDBRANCH  12  13
ENDBRANCH   1  12
BRANCH   1  27
ATOM     27  C   UNL d   1      51.773  33.536  52.862  0.00  0.00     0.037 A 
ATOM     28  C   UNL d   1      51.058  33.499  53.269  0.00  0.00     0.100 A 
ATOM     29  N   UNL d   1      50.434  33.987  53.046  0.00  0.00    -0.242 NA
ATOM     30  C   UNL d   1      50.524  34.514  52.413  0.00  0.00     0.099 A 
ATOM     31  C   UNL d   1      51.238  34.552  52.005  0.00  0.00     0.021 A 
ATOM     32  C   UNL d   1      51.863  34.064  52.228  0.00  0.00     0.005 A 
ENDBRANCH   1  27
TORSDOF 6
ENDMDL
