MODEL 1
REMARK VINA RESULT:     -10.5      0.000      0.000
REMARK  2 active torsions:
REMARK  status: ('A' for Active; 'I' for Inactive)
REMARK    1  A    between atoms: C_4  and  C_1 
REMARK       I    between atoms: N_7  and  C_4 
REMARK    2  A    between atoms: C_17  and  N_8 
ROOT
ATOM      1  C   UNL d   1      53.348  32.410  53.760  0.00  0.00     0.248 C 
ATOM      2  N   UNL d   1      52.657  32.823  53.456  0.00  0.00    -0.272 N 
ATOM      3  N   UNL d   1      51.278  33.644  52.849  0.00  0.00    -0.301 N 
ATOM      4  O   UNL d   1      53.364  31.597  53.773  0.00  0.00    -0.271 OA
ATOM      5  C   UNL d   1      51.980  32.376  53.165  0.00  0.00     0.102 A 
ATOM      6  C   UNL d   1      52.660  33.678  53.450  0.00  0.00     0.102 A 
ATOM      7  C   UNL d   1      51.299  32.779  52.865  0.00  0.00     0.100 A 
ATOM      8  C   UNL d   1      51.955  34.091  53.139  0.00  0.00     0.100 A 
ENDROOT
BRANCH   1   9
ATOM      9  C   UNL d   1      53.987  32.826  54.034  0.00  0.00     0.112 A 
ATOM     10  C   UNL d   1      54.923  33.437  55.063  0.00  0.00     0.025 A 
ATOM     11  C   UNL d   1      54.625  33.244  54.318  0.00  0.00     0.074 A 
ATOM     12  C   UNL d   1      55.600  33.879  55.127  0.00  0.00     0.002 C 
ATOM     13  C   UNL d   1      54.698  33.287  55.825  0.00  0.00     0.002 C 
ATOM     14  C   UNL d   1      55.306  33.689  54.394  0.00  0.00     0.012 C 
ATOM     15  C   UNL d   1      54.852  33.394  53.550  0.00  0.00    -0.023 A 
ATOM     16  C   UNL d   1      54.111  32.906  54.843  0.00  0.00     0.172 A 
ATOM     17  C   UNL d   1      54.215  32.978  53.272  0.00  0.00    -0.018 A 
ATOM     18  C   UNL d   1      53.471  32.488  54.563  0.00  0.00     0.024 A 
ATOM     19  O   UNL d   1      54.054  32.866  55.651  0.00  0.00    -0.291 OA
ENDBRANCH   1   9
BRANCH   3  20
ATOM     20  C   UNL d   1      50.585  34.061  52.543  0.00  0.00     0.064 A 
ATOM     21  C   UNL d   1      50.074  34.489  53.081  0.00  0.00     0.018 A 
ATOM     22  C   UNL d   1      49.385  34.903  52.779  0.00  0.00     0.002 A 
ATOM     23  C   UNL d   1      49.207  34.889  51.932  0.00  0.00     0.000 A 
ATOM     24  C   UNL d   1      49.725  34.456  51.393  0.00  0.00     0.002 A 
ATOM     25  C   UNL d   1      50.414  34.042  51.699  0.00  0.00     0.018 A 
ENDBRANCH   3  20
TORSDOF 2
ENDMDL
MODEL 2
REMARK VINA RESULT:      -9.3      1.292      2.088
REMARK  2 active torsions:
REMARK  status: ('A' for Active; 'I' for Inactive)
REMARK    1  A    between atoms: C_4  and  C_1 
REMARK       I    between atoms: N_7  and  C_4 
REMARK    2  A    between atoms: C_17  and  N_8 
ROOT
ATOM      1  C   UNL d   1      53.192  32.681  53.213  0.00  0.00     0.248 C 
ATOM      2  N   UNL d   1      52.457  33.110  53.086  0.00  0.00    -0.272 N 
ATOM      3  N   UNL d   1      50.991  33.967  52.834  0.00  0.00    -0.301 N 
ATOM      4  O   UNL d   1      53.898  33.084  53.245  0.00  0.00    -0.271 OA
ATOM      5  C   UNL d   1      52.467  33.967  52.993  0.00  0.00     0.102 A 
ATOM      6  C   UNL d   1      51.725  32.669  53.056  0.00  0.00     0.102 A 
ATOM      7  C   UNL d   1      51.745  34.391  52.868  0.00  0.00     0.100 A 
ATOM      8  C   UNL d   1      50.981  33.110  52.927  0.00  0.00     0.100 A 
ENDROOT
BRANCH   1   9
ATOM      9  C   UNL d   1      53.187  31.876  53.301  0.00  0.00     0.112 A 
ATOM     10  C   UNL d   1      53.368  30.544  54.008  0.00  0.00     0.025 A 
ATOM     11  C   UNL d   1      53.184  31.068  53.398  0.00  0.00     0.074 A 
ATOM     12  C   UNL d   1      53.294  29.744  53.893  0.00  0.00     0.002 C 
ATOM     13  C   UNL d   1      53.630  30.621  54.770  0.00  0.00     0.002 C 
ATOM     14  C   UNL d   1      53.112  30.261  53.292  0.00  0.00     0.012 C 
ATOM     15  C   UNL d   1      52.920  30.990  52.632  0.00  0.00    -0.023 A 
ATOM     16  C   UNL d   1      53.414  31.538  54.016  0.00  0.00     0.172 A 
ATOM     17  C   UNL d   1      52.925  31.794  52.539  0.00  0.00    -0.018 A 
ATOM     18  C   UNL d   1      53.418  32.346  53.922  0.00  0.00     0.024 A 
ATOM     19  O   UNL d   1      53.666  31.410  54.775  0.00  0.00    -0.291 OA
ENDBRANCH   1   9
BRANCH   3  20
ATOM     20  C   UNL d   1      50.252  34.396  52.707  0.00  0.00     0.064 A 
ATOM     21  C   UNL d   1      49.907  34.850  53.346  0.00  0.00     0.018 A 
ATOM     22  C   UNL d   1      49.172  35.276  53.221  0.00  0.00     0.002 A 
ATOM     23  C   UNL d   1      48.779  35.247  52.450  0.00  0.00     0.000 A 
ATOM     24  C   UNL d   1      49.130  34.788  51.808  0.00  0.00     0.002 A 
ATOM     25  C   UNL d   1      49.866  34.362  51.937  0.00  0.00     0.018 A 
ENDBRANCH   3  20
TORSDOF 2
ENDMDL
MODEL 3
REMARK VINA RESULT:      -9.1      0.873      1.338
REMARK  2 active torsions:
REMARK  status: ('A' for Active; 'I' for Inactive)
REMARK    1  A    between atoms: C_4  and  C_1 
REMARK       I    between atoms: N_7  and  C_4 
REMARK    2  A    between atoms: C_17  and  N_8 
ROOT
ATOM      1  C   UNL d   1      52.648  33.254  52.973  0.00  0.00     0.248 C 
ATOM      2  N   UNL d   1      51.886  33.647  52.896  0.00  0.00    -0.272 N 
ATOM      3  N   UNL d   1      50.366  34.428  52.739  0.00  0.00    -0.301 N 
ATOM      4  O   UNL d   1      52.876  32.696  52.428  0.00  0.00    -0.271 OA
ATOM      5  C   UNL d   1      51.363  33.449  52.240  0.00  0.00     0.102 A 
ATOM      6  C   UNL d   1      51.664  34.231  53.480  0.00  0.00     0.102 A 
ATOM      7  C   UNL d   1      50.613  33.833  52.160  0.00  0.00     0.100 A 
ATOM      8  C   UNL d   1      50.889  34.626  53.395  0.00  0.00     0.100 A 
ENDROOT
BRANCH   1   9
ATOM      9  C   UNL d   1      53.142  33.437  53.589  0.00  0.00     0.112 A 
ATOM     10  C   UNL d   1      53.984  33.190  54.829  0.00  0.00     0.025 A 
ATOM     11  C   UNL d   1      53.638  33.612  54.210  0.00  0.00     0.074 A 
ATOM     12  C   UNL d   1      54.466  33.570  55.360  0.00  0.00     0.002 C 
ATOM     13  C   UNL d   1      53.972  32.419  55.074  0.00  0.00     0.002 C 
ATOM     14  C   UNL d   1      54.124  33.986  54.750  0.00  0.00     0.012 C 
ATOM     15  C   UNL d   1      53.651  34.388  53.964  0.00  0.00    -0.023 A 
ATOM     16  C   UNL d   1      53.380  32.851  54.115  0.00  0.00     0.172 A 
ATOM     17  C   UNL d   1      53.157  34.210  53.347  0.00  0.00    -0.018 A 
ATOM     18  C   UNL d   1      52.884  32.672  53.495  0.00  0.00     0.024 A 
ATOM     19  O   UNL d   1      53.492  32.151  54.507  0.00  0.00    -0.291 OA
ENDBRANCH   1   9
BRANCH   3  20
ATOM     20  C   UNL d   1      49.602  34.823  52.663  0.00  0.00     0.064 A 
ATOM     21  C   UNL d   1      49.287  35.273  53.320  0.00  0.00     0.018 A 
ATOM     22  C   UNL d   1      48.527  35.666  53.246  0.00  0.00     0.002 A 
ATOM     23  C   UNL d   1      48.079  35.609  52.507  0.00  0.00     0.000 A 
ATOM     24  C   UNL d   1      48.401  35.155  51.846  0.00  0.00     0.002 A 
ATOM     25  C   UNL d   1      49.162  34.762  51.924  0.00  0.00     0.018 A 
ENDBRANCH   3  20
TORSDOF 2
ENDMDL
MODEL 4
REMARK VINA RESULT:      -8.8      2.207      3.464
REMARK  2 active torsions:
REMARK  status: ('A' for Active; 'I' for Inactive)
REMARK    1  A    between atoms: C_4  and  C_1 
REMARK       I    between atoms: N_7  and  C_4 
REMARK    2  A    between atoms: C_17  and  N_8 
ROOT
ATOM      1  C   UNL d   1      52.958  31.085  52.855  0.00  0.00     0.248 C 
ATOM      2  N   UNL d   1      52.988  31.884  53.172  0.00  0.00    -0.272 N 
ATOM      3  N   UNL d   1      53.046  33.480  53.803  0.00  0.00    -0.301 N 
ATOM      4  O   UNL d   1      52.681  30.955  52.102  0.00  0.00    -0.271 OA
ATOM      5  C   UNL d   1      52.724  32.550  52.692  0.00  0.00     0.102 A 
ATOM      6  C   UNL d   1      53.282  32.000  53.967  0.00  0.00     0.102 A 
ATOM      7  C   UNL d   1      52.752  33.337  53.001  0.00  0.00     0.100 A 
ATOM      8  C   UNL d   1      53.310  32.814  54.283  0.00  0.00     0.100 A 
ENDROOT
BRANCH   1   9
ATOM      9  C   UNL d   1      53.205  30.457  53.304  0.00  0.00     0.112 A 
ATOM     10  C   UNL d   1      53.075  29.181  54.118  0.00  0.00     0.025 A 
ATOM     11  C   UNL d   1      53.445  29.824  53.755  0.00  0.00     0.074 A 
ATOM     12  C   UNL d   1      53.515  28.644  54.537  0.00  0.00     0.002 C 
ATOM     13  C   UNL d   1      52.313  28.915  54.173  0.00  0.00     0.002 C 
ATOM     14  C   UNL d   1      53.879  29.277  54.180  0.00  0.00     0.012 C 
ATOM     15  C   UNL d   1      54.212  30.091  53.700  0.00  0.00    -0.023 A 
ATOM     16  C   UNL d   1      52.659  29.907  53.579  0.00  0.00     0.172 A 
ATOM     17  C   UNL d   1      53.970  30.720  53.251  0.00  0.00    -0.018 A 
ATOM     18  C   UNL d   1      52.416  30.539  53.128  0.00  0.00     0.024 A 
ATOM     19  O   UNL d   1      51.984  29.491  53.745  0.00  0.00    -0.291 OA
ENDBRANCH   1   9
BRANCH   3  20
ATOM     20  C   UNL d   1      53.077  34.282  54.123  0.00  0.00     0.064 A 
ATOM     21  C   UNL d   1      53.282  34.405  54.945  0.00  0.00     0.018 A 
ATOM     22  C   UNL d   1      53.313  35.201  55.265  0.00  0.00     0.002 A 
ATOM     23  C   UNL d   1      53.136  35.880  54.757  0.00  0.00     0.000 A 
ATOM     24  C   UNL d   1      52.930  35.751  53.927  0.00  0.00     0.002 A 
ATOM     25  C   UNL d   1      52.900  34.952  53.611  0.00  0.00     0.018 A 
ENDBRANCH   3  20
TORSDOF 2
ENDMDL
MODEL 5
REMARK VINA RESULT:      -8.5      1.721      4.552
REMARK  2 active torsions:
REMARK  status: ('A' for Active; 'I' for Inactive)
REMARK    1  A    between atoms: C_4  and  C_1 
REMARK       I    between atoms: N_7  and  C_4 
REMARK    2  A    between atoms: C_17  and  N_8 
ROOT
ATOM      1  C   UNL d   1      51.961  34.168  52.811  0.00  0.00     0.248 C 
ATOM      2  N   UNL d   1      52.222  33.365  52.977  0.00  0.00    -0.272 N 
ATOM      3  N   UNL d   1      52.747  31.765  53.309  0.00  0.00    -0.301 N 
ATOM      4  O   UNL d   1      52.463  34.795  52.938  0.00  0.00    -0.271 OA
ATOM      5  C   UNL d   1      53.018  33.224  53.278  0.00  0.00     0.102 A 
ATOM      6  C   UNL d   1      51.680  32.719  52.837  0.00  0.00     0.102 A 
ATOM      7  C   UNL d   1      53.278  32.435  53.443  0.00  0.00     0.100 A 
ATOM      8  C   UNL d   1      51.952  31.906  53.008  0.00  0.00     0.100 A 
ENDROOT
BRANCH   1   9
ATOM      9  C   UNL d   1      51.214  34.305  52.529  0.00  0.00     0.112 A 
ATOM     10  C   UNL d   1      49.768  34.768  52.561  0.00  0.00     0.025 A 
ATOM     11  C   UNL d   1      50.461  34.445  52.252  0.00  0.00     0.074 A 
ATOM     12  C   UNL d   1      49.102  34.818  52.099  0.00  0.00     0.002 C 
ATOM     13  C   UNL d   1      49.550  35.081  53.275  0.00  0.00     0.002 C 
ATOM     14  C   UNL d   1      49.786  34.500  51.796  0.00  0.00     0.012 C 
ATOM     15  C   UNL d   1      50.680  34.131  51.534  0.00  0.00    -0.023 A 
ATOM     16  C   UNL d   1      50.645  34.649  53.014  0.00  0.00     0.172 A 
ATOM     17  C   UNL d   1      51.428  33.992  51.812  0.00  0.00    -0.018 A 
ATOM     18  C   UNL d   1      51.397  34.509  53.294  0.00  0.00     0.024 A 
ATOM     19  O   UNL d   1      50.247  34.985  53.633  0.00  0.00    -0.291 OA
ENDBRANCH   1   9
BRANCH   3  20
ATOM     20  C   UNL d   1      53.008  30.958  53.475  0.00  0.00     0.064 A 
ATOM     21  C   UNL d   1      53.375  30.775  54.227  0.00  0.00     0.018 A 
ATOM     22  C   UNL d   1      53.635  29.974  54.393  0.00  0.00     0.002 A 
ATOM     23  C   UNL d   1      53.527  29.351  53.801  0.00  0.00     0.000 A 
ATOM     24  C   UNL d   1      53.156  29.540  53.044  0.00  0.00     0.002 A 
ATOM     25  C   UNL d   1      52.897  30.343  52.881  0.00  0.00     0.018 A 
ENDBRANCH   3  20
TORSDOF 2
ENDMDL
