MODEL 1
REMARK VINA RESULT:      -9.4      0.000      0.000
REMARK  5 active torsions:
REMARK  status: ('A' for Active; 'I' for Inactive)
REMARK    1  A    between atoms: C_4  and  S_1 
REMARK    2  A    between atoms: N_6  and  S_1 
REMARK    3  A    between atoms: C_3  and  C_2 
REMARK    4  A    between atoms: C_10  and  N_6 
REMARK    5  A    between atoms: C_17  and  C_10 
ROOT
ATOM      1  C   UNL d   1      53.908  33.191  54.376  0.00  0.00     0.083 A 
ATOM      2  C   UNL d   1      53.049  32.556  53.418  0.00  0.00     0.105 A 
ATOM      3  C   UNL d   1      53.788  32.623  53.780  0.00  0.00     0.018 A 
ATOM      4  C   UNL d   1      53.288  33.687  54.603  0.00  0.00     0.062 A 
ATOM      5  C   UNL d   1      52.433  33.051  53.645  0.00  0.00     0.014 A 
ATOM      6  C   UNL d   1      52.553  33.619  54.241  0.00  0.00     0.012 A 
ATOM      7 CL   UNL d   1      53.407  34.250  55.193  0.00  0.00    -0.082 Cl
ENDROOT
BRANCH   2   8
ATOM      8  S   UNL d   1      52.922  31.996  52.827  0.00  0.00     0.285 S 
ATOM      9  O   UNL d   1      52.798  31.436  52.248  0.00  0.00    -0.198 OA
ATOM     10  O   UNL d   1      52.823  32.588  52.276  0.00  0.00    -0.198 OA
BRANCH   8  11
ATOM     11  N   UNL d   1      53.022  31.395  53.381  0.00  0.00    -0.155 NA
BRANCH  11  12
ATOM     12  C   UNL d   1      52.943  30.601  53.152  0.00  0.00     0.137 C 
BRANCH  12  13
ATOM     13  C   UNL d   1      53.047  30.003  53.709  0.00  0.00     0.120 A 
ATOM     14  O   UNL d   1      52.481  29.712  54.241  0.00  0.00    -0.304 OA
ATOM     15  C   UNL d   1      52.831  29.121  54.685  0.00  0.00     0.123 A 
ATOM     16  C   UNL d   1      53.609  29.035  54.441  0.00  0.00     0.029 A 
ATOM     17  C   UNL d   1      53.748  29.579  53.836  0.00  0.00     0.028 A 
ENDBRANCH  12  13
ENDBRANCH  11  12
ENDBRANCH   8  11
ENDBRANCH   2   8
BRANCH   1  18
ATOM     18  C   UNL d   1      54.642  33.259  54.739  0.00  0.00     0.420 C 
ATOM     19  F   UNL d   1      54.910  32.931  55.492  0.00  0.00    -0.166 F 
ATOM     20  F   UNL d   1      55.320  33.321  55.075  0.00  0.00    -0.166 F 
ATOM     21  F   UNL d   1      55.346  33.675  54.470  0.00  0.00    -0.166 F 
ENDBRANCH   1  18
TORSDOF 5
ENDMDL
MODEL 2
REMARK VINA RESULT:      -9.3      2.514      3.327
REMARK  5 active torsions:
REMARK  status: ('A' for Active; 'I' for Inactive)
REMARK    1  A    between atoms: C_4  and  S_1 
REMARK    2  A    between atoms: N_6  and  S_1 
REMARK    3  A    between atoms: C_3  and  C_2 
REMARK    4  A    between atoms: C_10  and  N_6 
REMARK    5  A    between atoms: C_17  and  C_10 
ROOT
ATOM      1  C   UNL d   1      51.684  33.619  52.524  0.00  0.00     0.083 A 
ATOM      2  C   UNL d   1      52.291  32.453  53.101  0.00  0.00     0.105 A 
ATOM      3  C   UNL d   1      52.332  33.101  52.590  0.00  0.00     0.018 A 
ATOM      4  C   UNL d   1      51.002  33.484  52.970  0.00  0.00     0.062 A 
ATOM      5  C   UNL d   1      51.611  32.321  53.543  0.00  0.00     0.014 A 
ATOM      6  C   UNL d   1      50.964  32.839  53.477  0.00  0.00     0.012 A 
ATOM      7 CL   UNL d   1      50.360  33.997  52.905  0.00  0.00    -0.082 Cl
ENDROOT
BRANCH   2   8
ATOM      8  S   UNL d   1      52.929  31.936  53.171  0.00  0.00     0.285 S 
ATOM      9  O   UNL d   1      53.563  31.429  53.246  0.00  0.00    -0.198 OA
ATOM     10  O   UNL d   1      52.591  31.434  52.625  0.00  0.00    -0.198 OA
BRANCH   8  11
ATOM     11  N   UNL d   1      53.273  32.442  53.723  0.00  0.00    -0.155 NA
BRANCH  11  12
ATOM     12  C   UNL d   1      54.026  32.274  54.027  0.00  0.00     0.137 C 
BRANCH  12  13
ATOM     13  C   UNL d   1      54.370  32.785  54.575  0.00  0.00     0.120 A 
ATOM     14  O   UNL d   1      54.205  32.832  55.386  0.00  0.00    -0.304 OA
ATOM     15  C   UNL d   1      54.677  33.418  55.707  0.00  0.00     0.123 A 
ATOM     16  C   UNL d   1      55.137  33.741  55.110  0.00  0.00     0.029 A 
ATOM     17  C   UNL d   1      54.950  33.352  54.406  0.00  0.00     0.028 A 
ENDBRANCH  12  13
ENDBRANCH  11  12
ENDBRANCH   8  11
ENDBRANCH   2   8
BRANCH   1  18
ATOM     18  C   UNL d   1      51.722  34.264  52.017  0.00  0.00     0.420 C 
ATOM     19  F   UNL d   1      52.127  35.021  52.127  0.00  0.00    -0.166 F 
ATOM     20  F   UNL d   1      51.758  34.861  51.549  0.00  0.00    -0.166 F 
ATOM     21  F   UNL d   1      51.372  34.367  51.238  0.00  0.00    -0.166 F 
ENDBRANCH   1  18
TORSDOF 5
ENDMDL
MODEL 3
REMARK VINA RESULT:      -9.1      1.781      2.897
REMARK  5 active torsions:
REMARK  status: ('A' for Active; 'I' for Inactive)
REMARK    1  A    between atoms: C_4  and  S_1 
REMARK    2  A    between atoms: N_6  and  S_1 
REMARK    3  A    between atoms: C_3  and  C_2 
REMARK    4  A    between atoms: C_10  and  N_6 
REMARK    5  A    between atoms: C_17  and  C_10 
ROOT
ATOM      1  C   UNL d   1      54.365  33.025  54.651  0.00  0.00     0.083 A 
ATOM      2  C   UNL d   1      53.712  32.309  53.592  0.00  0.00     0.105 A 
ATOM      3  C   UNL d   1      53.722  32.576  54.374  0.00  0.00     0.018 A 
ATOM      4  C   UNL d   1      54.993  33.201  54.144  0.00  0.00     0.062 A 
ATOM      5  C   UNL d   1      54.338  32.486  53.090  0.00  0.00     0.014 A 
ATOM      6  C   UNL d   1      54.982  32.934  53.367  0.00  0.00     0.012 A 
ATOM      7 CL   UNL d   1      55.631  33.645  54.419  0.00  0.00    -0.082 Cl
ENDROOT
BRANCH   2   8
ATOM      8  S   UNL d   1      53.078  31.864  53.311  0.00  0.00     0.285 S 
ATOM      9  O   UNL d   1      52.447  31.431  53.031  0.00  0.00    -0.198 OA
ATOM     10  O   UNL d   1      53.492  31.175  53.443  0.00  0.00    -0.198 OA
BRANCH   8  11
ATOM     11  N   UNL d   1      52.656  32.559  53.175  0.00  0.00    -0.155 NA
BRANCH  11  12
ATOM     12  C   UNL d   1      51.880  32.524  52.883  0.00  0.00     0.137 C 
BRANCH  12  13
ATOM     13  C   UNL d   1      51.458  33.221  52.760  0.00  0.00     0.120 A 
ATOM     14  O   UNL d   1      51.578  33.778  52.159  0.00  0.00    -0.304 OA
ATOM     15  C   UNL d   1      51.030  34.378  52.255  0.00  0.00     0.123 A 
ATOM     16  C   UNL d   1      50.566  34.205  52.909  0.00  0.00     0.029 A 
ATOM     17  C   UNL d   1      50.827  33.490  53.225  0.00  0.00     0.028 A 
ENDBRANCH  12  13
ENDBRANCH  11  12
ENDBRANCH   8  11
ENDBRANCH   2   8
BRANCH   1  18
ATOM     18  C   UNL d   1      54.377  33.292  55.428  0.00  0.00     0.420 C 
ATOM     19  F   UNL d   1      54.057  34.025  55.757  0.00  0.00    -0.166 F 
ATOM     20  F   UNL d   1      54.387  33.540  56.145  0.00  0.00    -0.166 F 
ATOM     21  F   UNL d   1      54.710  32.918  56.128  0.00  0.00    -0.166 F 
ENDBRANCH   1  18
TORSDOF 5
ENDMDL
MODEL 4
REMARK VINA RESULT:      -8.7      2.125      2.460
REMARK  5 active torsions:
REMARK  status: ('A' for Active; 'I' for Inactive)
REMARK    1  A    between atoms: C_4  and  S_1 
REMARK    2  A    between atoms: N_6  and  S_1 
REMARK    3  A    between atoms: C_3  and  C_2 
REMARK    4  A    between atoms: C_10  and  N_6 
REMARK    5  A    between atoms: C_17  and  C_10 
ROOT
ATOM      1  C   UNL d   1      52.435  33.999  53.058  0.00  0.00     0.083 A 
ATOM      2  C   UNL d   1      53.526  33.283  53.655  0.00  0.00     0.105 A 
ATOM      3  C   UNL d   1      53.088  33.489  52.986  0.00  0.00     0.018 A 
ATOM      4  C   UNL d   1      52.225  34.297  53.799  0.00  0.00     0.062 A 
ATOM      5  C   UNL d   1      53.315  33.581  54.392  0.00  0.00     0.014 A 
ATOM      6  C   UNL d   1      52.661  34.090  54.464  0.00  0.00     0.012 A 
ATOM      7 CL   UNL d   1      51.577  34.802  53.870  0.00  0.00    -0.082 Cl
ENDROOT
BRANCH   2   8
ATOM      8  S   UNL d   1      54.174  32.778  53.592  0.00  0.00     0.285 S 
ATOM      9  O   UNL d   1      54.811  32.274  53.529  0.00  0.00    -0.198 OA
ATOM     10  O   UNL d   1      54.682  33.415  53.624  0.00  0.00    -0.198 OA
BRANCH   8  11
ATOM     11  N   UNL d   1      53.664  32.132  53.559  0.00  0.00    -0.155 NA
BRANCH  11  12
ATOM     12  C   UNL d   1      53.970  31.363  53.517  0.00  0.00     0.137 C 
BRANCH  12  13
ATOM     13  C   UNL d   1      53.457  30.721  53.453  0.00  0.00     0.120 A 
ATOM     14  O   UNL d   1      52.893  30.590  52.860  0.00  0.00    -0.304 OA
ATOM     15  C   UNL d   1      52.513  29.884  53.023  0.00  0.00     0.123 A 
ATOM     16  C   UNL d   1      52.830  29.568  53.710  0.00  0.00     0.029 A 
ATOM     17  C   UNL d   1      53.415  30.083  53.980  0.00  0.00     0.028 A 
ENDBRANCH  12  13
ENDBRANCH  11  12
ENDBRANCH   8  11
ENDBRANCH   2   8
BRANCH   1  18
ATOM     18  C   UNL d   1      51.998  34.206  52.393  0.00  0.00     0.420 C 
ATOM     19  F   UNL d   1      51.316  33.806  52.043  0.00  0.00    -0.166 F 
ATOM     20  F   UNL d   1      51.594  34.395  51.779  0.00  0.00    -0.166 F 
ATOM     21  F   UNL d   1      52.098  34.875  51.862  0.00  0.00    -0.166 F 
ENDBRANCH   1  18
TORSDOF 5
ENDMDL
MODEL 5
REMARK VINA RESULT:      -8.6      2.486      3.795
REMARK  5 active torsions:
REMARK  status: ('A' for Active; 'I' for Inactive)
REMARK    1  A    between atoms: C_4  and  S_1 
REMARK    2  A    between atoms: N_6  and  S_1 
REMARK    3  A    between atoms: C_3  and  C_2 
REMARK    4  A    between atoms: C_10  and  N_6 
REMARK    5  A    between atoms: C_17  and  C_10 
ROOT
ATOM      1  C   UNL d   1      53.235  30.065  53.888  0.00  0.00     0.083 A 
ATOM      2  C   UNL d   1      53.429  31.419  53.451  0.00  0.00     0.105 A 
ATOM      3  C   UNL d   1      53.489  30.842  54.040  0.00  0.00     0.018 A 
ATOM      4  C   UNL d   1      52.922  29.872  53.148  0.00  0.00     0.062 A 
ATOM      5  C   UNL d   1      53.117  31.224  52.716  0.00  0.00     0.014 A 
ATOM      6  C   UNL d   1      52.862  30.447  52.564  0.00  0.00     0.012 A 
ATOM      7 CL   UNL d   1      52.669  29.102  52.997  0.00  0.00    -0.082 Cl
ENDROOT
BRANCH   2   8
ATOM      8  S   UNL d   1      53.679  32.191  53.595  0.00  0.00     0.285 S 
ATOM      9  O   UNL d   1      53.919  32.957  53.736  0.00  0.00    -0.198 OA
ATOM     10  O   UNL d   1      54.439  31.928  53.726  0.00  0.00    -0.198 OA
BRANCH   8  11
ATOM     11  N   UNL d   1      52.911  32.460  53.463  0.00  0.00    -0.155 NA
BRANCH  11  12
ATOM     12  C   UNL d   1      52.728  33.261  53.571  0.00  0.00     0.137 C 
BRANCH  12  13
ATOM     13  C   UNL d   1      51.985  33.544  53.354  0.00  0.00     0.120 A 
ATOM     14  O   UNL d   1      51.253  33.320  53.674  0.00  0.00    -0.304 OA
ATOM     15  C   UNL d   1      50.668  33.744  53.289  0.00  0.00     0.123 A 
ATOM     16  C   UNL d   1      51.021  34.231  52.732  0.00  0.00     0.029 A 
ATOM     17  C   UNL d   1      51.837  34.111  52.768  0.00  0.00     0.028 A 
ENDBRANCH  12  13
ENDBRANCH  11  12
ENDBRANCH   8  11
ENDBRANCH   2   8
BRANCH   1  18
ATOM     18  C   UNL d   1      53.294  29.490  54.472  0.00  0.00     0.420 C 
ATOM     19  F   UNL d   1      52.796  29.367  55.168  0.00  0.00    -0.166 F 
ATOM     20  F   UNL d   1      53.347  28.960  55.012  0.00  0.00    -0.166 F 
ATOM     21  F   UNL d   1      53.866  28.853  54.553  0.00  0.00    -0.166 F 
ENDBRANCH   1  18
TORSDOF 5
ENDMDL
MODEL 6
REMARK VINA RESULT:      -8.1      2.617      3.506
REMARK  5 active torsions:
REMARK  status: ('A' for Active; 'I' for Inactive)
REMARK    1  A    between atoms: C_4  and  S_1 
REMARK    2  A    between atoms: N_6  and  S_1 
REMARK    3  A    between atoms: C_3  and  C_2 
REMARK    4  A    between atoms: C_10  and  N_6 
REMARK    5  A    between atoms: C_17  and  C_10 
ROOT
ATOM      1  C   UNL d   1      54.099  33.080  54.172  0.00  0.00     0.083 A 
ATOM      2  C   UNL d   1      53.384  34.309  54.366  0.00  0.00     0.105 A 
ATOM      3  C   UNL d   1      53.757  33.773  53.862  0.00  0.00     0.018 A 
ATOM      4  C   UNL d   1      54.064  32.931  54.983  0.00  0.00     0.062 A 
ATOM      5  C   UNL d   1      53.350  34.159  55.174  0.00  0.00     0.014 A 
ATOM      6  C   UNL d   1      53.692  33.467  55.484  0.00  0.00     0.012 A 
ATOM      7 CL   UNL d   1      54.403  32.246  55.290  0.00  0.00    -0.082 Cl
ENDROOT
BRANCH   2   8
ATOM      8  S   UNL d   1      53.043  34.997  54.067  0.00  0.00     0.285 S 
ATOM      9  O   UNL d   1      52.700  35.673  53.767  0.00  0.00    -0.198 OA
ATOM     10  O   UNL d   1      53.622  35.448  54.421  0.00  0.00    -0.198 OA
BRANCH   8  11
ATOM     11  N   UNL d   1      52.455  34.544  53.708  0.00  0.00    -0.155 NA
BRANCH  11  12
ATOM     12  C   UNL d   1      51.868  34.912  53.251  0.00  0.00     0.137 C 
BRANCH  12  13
ATOM     13  C   UNL d   1      51.266  34.459  52.917  0.00  0.00     0.120 A 
ATOM     14  O   UNL d   1      50.586  34.175  53.297  0.00  0.00    -0.304 OA
ATOM     15  C   UNL d   1      50.147  33.754  52.750  0.00  0.00     0.123 A 
ATOM     16  C   UNL d   1      50.541  33.770  52.031  0.00  0.00     0.029 A 
ATOM     17  C   UNL d   1      51.234  34.205  52.129  0.00  0.00     0.028 A 
ENDBRANCH  12  13
ENDBRANCH  11  12
ENDBRANCH   8  11
ENDBRANCH   2   8
BRANCH   1  18
ATOM     18  C   UNL d   1      54.472  32.545  53.671  0.00  0.00     0.420 C 
ATOM     19  F   UNL d   1      54.178  31.792  53.363  0.00  0.00    -0.166 F 
ATOM     20  F   UNL d   1      54.814  32.049  53.209  0.00  0.00    -0.166 F 
ATOM     21  F   UNL d   1      55.254  32.584  53.316  0.00  0.00    -0.166 F 
ENDBRANCH   1  18
TORSDOF 5
ENDMDL
