MODEL 1
REMARK VINA RESULT:      -4.7      0.000      0.000
REMARK  6 active torsions:
REMARK  status: ('A' for Active; 'I' for Inactive)
REMARK    1  A    between atoms: C_5  and  N_1 
REMARK    2  A    between atoms: C_10  and  C_4 
REMARK    3  A    between atoms: C_6  and  S_13 
REMARK    4  A    between atoms: C_8  and  C_11 
REMARK    5  A    between atoms: C_14  and  C_8 
REMARK    6  A    between atoms: S_13  and  C_14 
ROOT
ATOM      1  S   UNL d   1     -41.124-122.687 -51.913  0.00  0.00    -0.062 SA
ENDROOT
BRANCH   1   2
ATOM      2  C   UNL d   1     -41.371-122.832 -51.131  0.00  0.00     0.133 A 
ATOM      3  N   UNL d   1     -41.350-123.606 -50.823  0.00  0.00    -0.141 NA
ATOM      4  N   UNL d   1     -41.596-123.747 -50.046  0.00  0.00    -0.146 NA
ATOM      5  C   UNL d   1     -41.860-123.124 -49.578  0.00  0.00     0.121 A 
ATOM      6  C   UNL d   1     -41.881-122.350 -49.886  0.00  0.00     0.025 A 
ATOM      7  C   UNL d   1     -41.637-122.206 -50.659  0.00  0.00     0.029 A 
BRANCH   5   8
ATOM      8  C   UNL d   1     -42.104-123.267 -48.805  0.00  0.00     0.101 A 
ATOM      9  N   UNL d   1     -41.602-123.090 -48.174  0.00  0.00    -0.242 NA
ATOM     10  C   UNL d   1     -41.845-123.231 -47.400  0.00  0.00     0.099 A 
ATOM     11  C   UNL d   1     -42.599-123.555 -47.250  0.00  0.00     0.021 A 
ATOM     12  C   UNL d   1     -43.101-123.732 -47.880  0.00  0.00     0.003 A 
ATOM     13  C   UNL d   1     -42.855-123.588 -48.656  0.00  0.00     0.021 A 
ENDBRANCH   5   8
ENDBRANCH   1   2
BRANCH   1  14
ATOM     14  C   UNL d   1     -41.681-122.682 -52.532  0.00  0.00     0.079 C 
BRANCH  14  15
ATOM     15  C   UNL d   1     -41.517-123.071 -53.239  0.00  0.00     0.202 C 
ATOM     16  O   UNL d   1     -41.167-123.816 -53.224  0.00  0.00    -0.286 OA
BRANCH  15  17
ATOM     17  C   UNL d   1     -41.703-122.713 -53.963  0.00  0.00     0.040 A 
ATOM     18  C   UNL d   1     -42.455-122.399 -54.087  0.00  0.00     0.005 A 
ATOM     19  C   UNL d   1     -42.640-122.043 -54.808  0.00  0.00     0.024 A 
ATOM     20  C   UNL d   1     -42.074-122.001 -55.405  0.00  0.00     0.127 A 
ATOM     21  C   UNL d   1     -41.323-122.315 -55.281  0.00  0.00     0.024 A 
ATOM     22  C   UNL d   1     -41.138-122.671 -54.560  0.00  0.00     0.005 A 
BRANCH  20  23
ATOM     23  N   UNL d   1     -42.259-121.645 -56.126  0.00  0.00    -0.114 N 
ATOM     24  O   UNL d   1     -41.775-121.052 -56.430  0.00  0.00    -0.532 OA
ATOM     25  O   UNL d   1     -42.935-121.885 -56.543  0.00  0.00    -0.532 OA
ENDBRANCH  20  23
ENDBRANCH  15  17
ENDBRANCH  14  15
ENDBRANCH   1  14
TORSDOF 6
ENDMDL
MODEL 2
REMARK VINA RESULT:      -4.5      2.198      6.087
REMARK  6 active torsions:
REMARK  status: ('A' for Active; 'I' for Inactive)
REMARK    1  A    between atoms: C_5  and  N_1 
REMARK    2  A    between atoms: C_10  and  C_4 
REMARK    3  A    between atoms: C_6  and  S_13 
REMARK    4  A    between atoms: C_8  and  C_11 
REMARK    5  A    between atoms: C_14  and  C_8 
REMARK    6  A    between atoms: S_13  and  C_14 
ROOT
ATOM      1  S   UNL d   1     -41.261-123.395 -51.594  0.00  0.00    -0.062 SA
ENDROOT
BRANCH   1   2
ATOM      2  C   UNL d   1     -41.419-123.111 -52.361  0.00  0.00     0.133 A 
ATOM      3  N   UNL d   1     -41.564-123.648 -52.982  0.00  0.00    -0.141 NA
ATOM      4  N   UNL d   1     -41.720-123.364 -53.743  0.00  0.00    -0.146 NA
ATOM      5  C   UNL d   1     -41.733-122.555 -53.887  0.00  0.00     0.121 A 
ATOM      6  C   UNL d   1     -41.588-122.018 -53.266  0.00  0.00     0.025 A 
ATOM      7  C   UNL d   1     -41.432-122.297 -52.507  0.00  0.00     0.029 A 
BRANCH   5   8
ATOM      8  C   UNL d   1     -41.888-122.274 -54.645  0.00  0.00     0.101 A 
ATOM      9  N   UNL d   1     -41.287-121.922 -55.087  0.00  0.00    -0.242 NA
ATOM     10  C   UNL d   1     -41.441-121.642 -55.845  0.00  0.00     0.099 A 
ATOM     11  C   UNL d   1     -42.206-121.712 -56.171  0.00  0.00     0.021 A 
ATOM     12  C   UNL d   1     -42.808-122.064 -55.729  0.00  0.00     0.003 A 
ATOM     13  C   UNL d   1     -42.650-122.345 -54.968  0.00  0.00     0.021 A 
ENDBRANCH   5   8
ENDBRANCH   1   2
BRANCH   1  14
ATOM     14  C   UNL d   1     -41.558-122.988 -50.930  0.00  0.00     0.079 C 
BRANCH  14  15
ATOM     15  C   UNL d   1     -42.071-123.366 -50.409  0.00  0.00     0.202 C 
ATOM     16  O   UNL d   1     -42.696-123.814 -50.703  0.00  0.00    -0.286 OA
BRANCH  15  17
ATOM     17  C   UNL d   1     -41.958-123.295 -49.590  0.00  0.00     0.040 A 
ATOM     18  C   UNL d   1     -42.570-123.019 -49.112  0.00  0.00     0.005 A 
ATOM     19  C   UNL d   1     -42.458-122.949 -48.298  0.00  0.00     0.024 A 
ATOM     20  C   UNL d   1     -41.735-123.156 -47.962  0.00  0.00     0.127 A 
ATOM     21  C   UNL d   1     -41.124-123.431 -48.439  0.00  0.00     0.024 A 
ATOM     22  C   UNL d   1     -41.236-123.501 -49.253  0.00  0.00     0.005 A 
BRANCH  20  23
ATOM     23  N   UNL d   1     -41.623-123.086 -47.147  0.00  0.00    -0.114 N 
ATOM     24  O   UNL d   1     -41.584-123.761 -46.676  0.00  0.00    -0.532 OA
ATOM     25  O   UNL d   1     -41.551-122.334 -46.803  0.00  0.00    -0.532 OA
ENDBRANCH  20  23
ENDBRANCH  15  17
ENDBRANCH  14  15
ENDBRANCH   1  14
TORSDOF 6
ENDMDL
