MODEL 1
REMARK VINA RESULT:      -5.1      0.000      0.000
REMARK  4 active torsions:
REMARK  status: ('A' for Active; 'I' for Inactive)
REMARK    1  A    between atoms: C_2  and  C_1 
REMARK       I    between atoms: N_9  and  C_2 
REMARK    2  A    between atoms: C_16  and  N_9 
REMARK    3  A    between atoms: C_13  and  C_16 
REMARK    4  A    between atoms: O_17  and  C_13 
ROOT
ATOM      1  C   UNL d   1      56.695  -0.755  31.904  0.00  0.00     0.073 A 
ATOM      2  C   UNL d   1      57.385   0.163  32.660  0.00  0.00     0.001 A 
ATOM      3  C   UNL d   1      56.020  -0.965  32.908  0.00  0.00     0.001 A 
ATOM      4  C   UNL d   1      56.350  -0.547  33.217  0.00  0.00     0.001 A 
ATOM      5  C   UNL d   1      55.913  -1.289  32.329  0.00  0.00     0.009 A 
ATOM      6  C   UNL d   1      57.270  -0.212  31.969  0.00  0.00     0.009 A 
ATOM      7  C   UNL d   1      56.231  -0.924  32.529  0.00  0.00     0.009 A 
ATOM      8  C   UNL d   1      55.707  -0.973  33.600  0.00  0.00     0.000 A 
ATOM      9  C   UNL d   1      56.783  -0.246  32.995  0.00  0.00     0.000 A 
ATOM     10  C   UNL d   1      56.925  -0.005  33.283  0.00  0.00     0.000 A 
ATOM     11  C   UNL d   1      56.722  -0.009  33.732  0.00  0.00     0.000 C 
ATOM     12  C   UNL d   1      55.510  -1.542  32.604  0.00  0.00     0.000 C 
ATOM     13  C   UNL d   1      58.024   0.681  32.519  0.00  0.00     0.000 C 
ENDROOT
BRANCH   1  14
ATOM     14  C   UNL d   1      57.115  -0.657  31.195  0.00  0.00     0.255 C 
ATOM     15  N   UNL d   1      57.523  -1.304  30.859  0.00  0.00    -0.205 NA
ATOM     16  O   UNL d   1      57.135   0.078  30.816  0.00  0.00    -0.270 OA
BRANCH  15  17
ATOM     17  C   UNL d   1      57.941  -1.206  30.154  0.00  0.00     0.170 C 
BRANCH  17  18
ATOM     18  C   UNL d   1      58.378  -1.830  29.838  0.00  0.00     0.316 C 
ATOM     19  O   UNL d   1      58.044  -2.582  29.776  0.00  0.00    -0.257 OA
BRANCH  18  20
ATOM     20  O   UNL d   1      59.156  -1.697  29.581  0.00  0.00    -0.295 OA
ATOM     21  C   UNL d   1      59.485  -2.173  28.992  0.00  0.00     0.185 C 
ENDBRANCH  18  20
ENDBRANCH  17  18
ENDBRANCH  15  17
ENDBRANCH   1  14
TORSDOF 4
ENDMDL
MODEL 2
REMARK VINA RESULT:      -4.5      1.428      2.045
REMARK  4 active torsions:
REMARK  status: ('A' for Active; 'I' for Inactive)
REMARK    1  A    between atoms: C_2  and  C_1 
REMARK       I    between atoms: N_9  and  C_2 
REMARK    2  A    between atoms: C_16  and  N_9 
REMARK    3  A    between atoms: C_13  and  C_16 
REMARK    4  A    between atoms: O_17  and  C_13 
ROOT
ATOM      1  C   UNL d   1      57.022   0.128  32.231  0.00  0.00     0.073 A 
ATOM      2  C   UNL d   1      56.615  -1.124  31.836  0.00  0.00     0.001 A 
ATOM      3  C   UNL d   1      56.365  -0.060  33.251  0.00  0.00     0.001 A 
ATOM      4  C   UNL d   1      56.202  -0.617  33.043  0.00  0.00     0.001 A 
ATOM      5  C   UNL d   1      56.708   0.508  33.145  0.00  0.00     0.009 A 
ATOM      6  C   UNL d   1      57.025  -0.457  31.696  0.00  0.00     0.009 A 
ATOM      7  C   UNL d   1      56.610   0.051  32.909  0.00  0.00     0.009 A 
ATOM      8  C   UNL d   1      55.923  -0.332  33.806  0.00  0.00     0.000 A 
ATOM      9  C   UNL d   1      56.368  -0.837  32.542  0.00  0.00     0.000 A 
ATOM     10  C   UNL d   1      56.205  -1.203  32.508  0.00  0.00     0.000 A 
ATOM     11  C   UNL d   1      55.917  -1.379  32.868  0.00  0.00     0.000 C 
ATOM     12  C   UNL d   1      56.511   0.658  33.636  0.00  0.00     0.000 C 
ATOM     13  C   UNL d   1      56.747  -1.602  31.164  0.00  0.00     0.000 C 
ENDROOT
BRANCH   1  14
ATOM     14  C   UNL d   1      57.482   0.313  31.566  0.00  0.00     0.255 C 
ATOM     15  N   UNL d   1      58.305   0.434  31.648  0.00  0.00    -0.205 NA
ATOM     16  O   UNL d   1      57.134   0.381  30.819  0.00  0.00    -0.270 OA
BRANCH  15  17
ATOM     17  C   UNL d   1      58.762   0.618  30.985  0.00  0.00     0.170 C 
BRANCH  17  18
ATOM     18  C   UNL d   1      59.583   0.658  31.044  0.00  0.00     0.316 C 
ATOM     19  O   UNL d   1      59.948   0.678  31.784  0.00  0.00    -0.257 OA
BRANCH  18  20
ATOM     20  O   UNL d   1      60.043   0.678  30.352  0.00  0.00    -0.295 OA
ATOM     21  C   UNL d   1      60.773   0.292  30.329  0.00  0.00     0.185 C 
ENDBRANCH  18  20
ENDBRANCH  17  18
ENDBRANCH  15  17
ENDBRANCH   1  14
TORSDOF 4
ENDMDL
MODEL 3
REMARK VINA RESULT:      -4.5      8.479      8.908
REMARK  4 active torsions:
REMARK  status: ('A' for Active; 'I' for Inactive)
REMARK    1  A    between atoms: C_2  and  C_1 
REMARK       I    between atoms: N_9  and  C_2 
REMARK    2  A    between atoms: C_16  and  N_9 
REMARK    3  A    between atoms: C_13  and  C_16 
REMARK    4  A    between atoms: O_17  and  C_13 
ROOT
ATOM      1  C   UNL d   1      59.435  -8.414  35.284  0.00  0.00     0.073 A 
ATOM      2  C   UNL d   1      60.677  -8.813  35.718  0.00  0.00     0.001 A 
ATOM      3  C   UNL d   1      59.657  -7.350  35.857  0.00  0.00     0.001 A 
ATOM      4  C   UNL d   1      60.208  -7.562  36.035  0.00  0.00     0.001 A 
ATOM      5  C   UNL d   1      59.083  -7.467  35.525  0.00  0.00     0.009 A 
ATOM      6  C   UNL d   1      60.004  -8.964  35.322  0.00  0.00     0.009 A 
ATOM      7  C   UNL d   1      59.534  -7.708  35.641  0.00  0.00     0.009 A 
ATOM      8  C   UNL d   1      59.947  -6.771  36.253  0.00  0.00     0.000 A 
ATOM      9  C   UNL d   1      60.412  -8.081  35.908  0.00  0.00     0.000 A 
ATOM     10  C   UNL d   1      60.777  -8.112  36.073  0.00  0.00     0.000 A 
ATOM     11  C   UNL d   1      60.966  -7.736  36.330  0.00  0.00     0.000 C 
ATOM     12  C   UNL d   1      58.949  -6.958  35.682  0.00  0.00     0.000 C 
ATOM     13  C   UNL d   1      61.133  -9.507  35.638  0.00  0.00     0.000 C 
ENDROOT
BRANCH   1  14
ATOM     14  C   UNL d   1      59.227  -9.107  34.879  0.00  0.00     0.255 C 
ATOM     15  N   UNL d   1      59.124  -9.092  34.050  0.00  0.00    -0.205 NA
ATOM     16  O   UNL d   1      59.121  -9.818  35.289  0.00  0.00    -0.270 OA
BRANCH  15  17
ATOM     17  C   UNL d   1      58.917  -9.783  33.648  0.00  0.00     0.170 C 
BRANCH  17  18
ATOM     18  C   UNL d   1      58.739  -9.759  32.843  0.00  0.00     0.316 C 
ATOM     19  O   UNL d   1      59.342  -9.678  32.285  0.00  0.00    -0.257 OA
BRANCH  18  20
ATOM     20  O   UNL d   1      57.948  -9.818  32.596  0.00  0.00    -0.295 OA
ATOM     21  C   UNL d   1      57.739  -9.613  31.824  0.00  0.00     0.185 C 
ENDBRANCH  18  20
ENDBRANCH  17  18
ENDBRANCH  15  17
ENDBRANCH   1  14
TORSDOF 4
ENDMDL
MODEL 4
REMARK VINA RESULT:      -4.1      1.259      4.240
REMARK  4 active torsions:
REMARK  status: ('A' for Active; 'I' for Inactive)
REMARK    1  A    between atoms: C_2  and  C_1 
REMARK       I    between atoms: N_9  and  C_2 
REMARK    2  A    between atoms: C_16  and  N_9 
REMARK    3  A    between atoms: C_13  and  C_16 
REMARK    4  A    between atoms: O_17  and  C_13 
ROOT
ATOM      1  C   UNL d   1      58.646  -1.056  29.523  0.00  0.00     0.073 A 
ATOM      2  C   UNL d   1      59.635  -0.128  29.294  0.00  0.00     0.001 A 
ATOM      3  C   UNL d   1      59.371  -1.863  28.947  0.00  0.00     0.001 A 
ATOM      4  C   UNL d   1      59.793  -1.422  28.862  0.00  0.00     0.001 A 
ATOM      5  C   UNL d   1      58.770  -2.033  29.194  0.00  0.00     0.009 A 
ATOM      6  C   UNL d   1      58.921  -0.316  29.591  0.00  0.00     0.009 A 
ATOM      7  C   UNL d   1      59.082  -1.614  29.156  0.00  0.00     0.009 A 
ATOM      8  C   UNL d   1      59.928  -2.223  28.576  0.00  0.00     0.000 A 
ATOM      9  C   UNL d   1      59.737  -0.881  29.038  0.00  0.00     0.000 A 
ATOM     10  C   UNL d   1      60.069  -0.681  28.930  0.00  0.00     0.000 A 
ATOM     11  C   UNL d   1      60.430  -0.915  28.690  0.00  0.00     0.000 C 
ATOM     12  C   UNL d   1      58.888  -2.533  28.999  0.00  0.00     0.000 C 
ATOM     13  C   UNL d   1      59.733   0.682  29.468  0.00  0.00     0.000 C 
ENDROOT
BRANCH   1  14
ATOM     14  C   UNL d   1      58.113  -0.559  29.919  0.00  0.00     0.255 C 
ATOM     15  N   UNL d   1      57.818  -0.778  30.670  0.00  0.00    -0.205 NA
ATOM     16  O   UNL d   1      57.869   0.153  29.578  0.00  0.00    -0.270 OA
BRANCH  15  17
ATOM     17  C   UNL d   1      57.288  -0.282  31.064  0.00  0.00     0.170 C 
BRANCH  17  18
ATOM     18  C   UNL d   1      56.939  -0.524  31.771  0.00  0.00     0.316 C 
ATOM     19  O   UNL d   1      56.584  -1.268  31.827  0.00  0.00    -0.257 OA
BRANCH  18  20
ATOM     20  O   UNL d   1      56.945  -0.014  32.427  0.00  0.00    -0.295 OA
ATOM     21  C   UNL d   1      56.346  -0.061  32.993  0.00  0.00     0.185 C 
ENDBRANCH  18  20
ENDBRANCH  17  18
ENDBRANCH  15  17
ENDBRANCH   1  14
TORSDOF 4
ENDMDL
MODEL 5
REMARK VINA RESULT:      -3.7      1.532      2.206
REMARK  4 active torsions:
REMARK  status: ('A' for Active; 'I' for Inactive)
REMARK    1  A    between atoms: C_2  and  C_1 
REMARK       I    between atoms: N_9  and  C_2 
REMARK    2  A    between atoms: C_16  and  N_9 
REMARK    3  A    between atoms: C_13  and  C_16 
REMARK    4  A    between atoms: O_17  and  C_13 
ROOT
ATOM      1  C   UNL d   1      56.060   0.470  33.377  0.00  0.00     0.073 A 
ATOM      2  C   UNL d   1      56.650   0.628  34.609  0.00  0.00     0.001 A 
ATOM      3  C   UNL d   1      54.984   0.515  33.969  0.00  0.00     0.001 A 
ATOM      4  C   UNL d   1      55.282   0.584  34.504  0.00  0.00     0.001 A 
ATOM      5  C   UNL d   1      55.025   0.437  33.302  0.00  0.00     0.009 A 
ATOM      6  C   UNL d   1      56.714   0.537  33.822  0.00  0.00     0.009 A 
ATOM      7  C   UNL d   1      55.340   0.493  33.717  0.00  0.00     0.009 A 
ATOM      8  C   UNL d   1      54.422   0.561  34.476  0.00  0.00     0.000 A 
ATOM      9  C   UNL d   1      55.851   0.604  34.558  0.00  0.00     0.000 A 
ATOM     10  C   UNL d   1      55.935   0.652  34.948  0.00  0.00     0.000 A 
ATOM     11  C   UNL d   1      55.570   0.682  35.279  0.00  0.00     0.000 C 
ATOM     12  C   UNL d   1      54.476   0.427  33.321  0.00  0.00     0.000 C 
ATOM     13  C   UNL d   1      57.437   0.679  34.883  0.00  0.00     0.000 C 
ENDROOT
BRANCH   1  14
ATOM     14  C   UNL d   1      56.753   0.433  32.923  0.00  0.00     0.255 C 
ATOM     15  N   UNL d   1      56.724   0.141  32.140  0.00  0.00    -0.205 NA
ATOM     16  O   UNL d   1      57.476   0.682  33.238  0.00  0.00    -0.270 OA
BRANCH  15  17
ATOM     17  C   UNL d   1      57.415   0.105  31.689  0.00  0.00     0.170 C 
BRANCH  17  18
ATOM     18  C   UNL d   1      57.406  -0.243  30.942  0.00  0.00     0.316 C 
ATOM     19  O   UNL d   1      57.386  -1.065  30.865  0.00  0.00    -0.257 OA
BRANCH  18  20
ATOM     20  O   UNL d   1      57.417   0.239  30.265  0.00  0.00    -0.295 OA
ATOM     21  C   UNL d   1      58.011   0.144  29.699  0.00  0.00     0.185 C 
ENDBRANCH  18  20
ENDBRANCH  17  18
ENDBRANCH  15  17
ENDBRANCH   1  14
TORSDOF 4
ENDMDL
MODEL 6
REMARK VINA RESULT:      -3.7      1.771      4.485
REMARK  4 active torsions:
REMARK  status: ('A' for Active; 'I' for Inactive)
REMARK    1  A    between atoms: C_2  and  C_1 
REMARK       I    between atoms: N_9  and  C_2 
REMARK    2  A    between atoms: C_16  and  N_9 
REMARK    3  A    between atoms: C_13  and  C_16 
REMARK    4  A    between atoms: O_17  and  C_13 
ROOT
ATOM      1  C   UNL d   1      59.174  -0.017  29.812  0.00  0.00     0.073 A 
ATOM      2  C   UNL d   1      59.154  -1.050  28.904  0.00  0.00     0.001 A 
ATOM      3  C   UNL d   1      60.381   0.055  29.592  0.00  0.00     0.001 A 
ATOM      4  C   UNL d   1      60.335  -0.411  29.191  0.00  0.00     0.001 A 
ATOM      5  C   UNL d   1      60.069   0.464  30.026  0.00  0.00     0.009 A 
ATOM      6  C   UNL d   1      58.773  -0.574  29.414  0.00  0.00     0.009 A 
ATOM      7  C   UNL d   1      59.959   0.067  29.702  0.00  0.00     0.009 A 
ATOM      8  C   UNL d   1      61.094  -0.034  29.346  0.00  0.00     0.000 A 
ATOM      9  C   UNL d   1      59.849  -0.684  29.065  0.00  0.00     0.000 A 
ATOM     10  C   UNL d   1      59.934  -0.968  28.794  0.00  0.00     0.000 A 
ATOM     11  C   UNL d   1      60.397  -1.026  28.634  0.00  0.00     0.000 C 
ATOM     12  C   UNL d   1      60.568   0.681  30.100  0.00  0.00     0.000 C 
ATOM     13  C   UNL d   1      58.563  -1.554  28.598  0.00  0.00     0.000 C 
ENDROOT
BRANCH   1  14
ATOM     14  C   UNL d   1      58.367  -0.017  30.002  0.00  0.00     0.255 C 
ATOM     15  N   UNL d   1      58.125  -0.120  30.795  0.00  0.00    -0.205 NA
ATOM     16  O   UNL d   1      57.796   0.084  29.412  0.00  0.00    -0.270 OA
BRANCH  15  17
ATOM     17  C   UNL d   1      57.320  -0.120  30.983  0.00  0.00     0.170 C 
BRANCH  17  18
ATOM     18  C   UNL d   1      57.074  -0.264  31.756  0.00  0.00     0.316 C 
ATOM     19  O   UNL d   1      57.278   0.256  32.363  0.00  0.00    -0.257 OA
BRANCH  18  20
ATOM     20  O   UNL d   1      56.617  -0.938  31.922  0.00  0.00    -0.295 OA
ATOM     21  C   UNL d   1      56.216  -1.000  32.641  0.00  0.00     0.185 C 
ENDBRANCH  18  20
ENDBRANCH  17  18
ENDBRANCH  15  17
ENDBRANCH   1  14
TORSDOF 4
ENDMDL
MODEL 7
REMARK VINA RESULT:      -3.7      1.947      4.827
REMARK  4 active torsions:
REMARK  status: ('A' for Active; 'I' for Inactive)
REMARK    1  A    between atoms: C_2  and  C_1 
REMARK       I    between atoms: N_9  and  C_2 
REMARK    2  A    between atoms: C_16  and  N_9 
REMARK    3  A    between atoms: C_13  and  C_16 
REMARK    4  A    between atoms: O_17  and  C_13 
ROOT
ATOM      1  C   UNL d   1      59.157  -2.314  28.900  0.00  0.00     0.073 A 
ATOM      2  C   UNL d   1      60.520  -2.218  29.056  0.00  0.00     0.001 A 
ATOM      3  C   UNL d   1      59.347  -3.493  28.612  0.00  0.00     0.001 A 
ATOM      4  C   UNL d   1      59.953  -3.414  28.691  0.00  0.00     0.001 A 
ATOM      5  C   UNL d   1      58.732  -3.220  28.623  0.00  0.00     0.009 A 
ATOM      6  C   UNL d   1      59.800  -1.882  29.074  0.00  0.00     0.009 A 
ATOM      7  C   UNL d   1      59.232  -3.084  28.707  0.00  0.00     0.009 A 
ATOM      8  C   UNL d   1      59.633  -4.180  28.462  0.00  0.00     0.000 A 
ATOM      9  C   UNL d   1      60.199  -2.921  28.843  0.00  0.00     0.000 A 
ATOM     10  C   UNL d   1      60.595  -2.983  28.865  0.00  0.00     0.000 A 
ATOM     11  C   UNL d   1      60.782  -3.429  28.767  0.00  0.00     0.000 C 
ATOM     12  C   UNL d   1      58.563  -3.722  28.477  0.00  0.00     0.000 C 
ATOM     13  C   UNL d   1      61.047  -1.606  29.266  0.00  0.00     0.000 C 
ENDROOT
BRANCH   1  14
ATOM     14  C   UNL d   1      58.966  -1.528  29.085  0.00  0.00     0.255 C 
ATOM     15  N   UNL d   1      58.437  -1.364  29.711  0.00  0.00    -0.205 NA
ATOM     16  O   UNL d   1      59.295  -0.903  28.655  0.00  0.00    -0.270 OA
BRANCH  15  17
ATOM     17  C   UNL d   1      58.248  -0.581  29.894  0.00  0.00     0.170 C 
BRANCH  17  18
ATOM     18  C   UNL d   1      57.664  -0.414  30.452  0.00  0.00     0.316 C 
ATOM     19  O   UNL d   1      57.370  -1.012  30.939  0.00  0.00    -0.257 OA
BRANCH  18  20
ATOM     20  O   UNL d   1      57.373   0.361  30.521  0.00  0.00    -0.295 OA
ATOM     21  C   UNL d   1      57.220   0.681  31.267  0.00  0.00     0.185 C 
ENDBRANCH  18  20
ENDBRANCH  17  18
ENDBRANCH  15  17
ENDBRANCH   1  14
TORSDOF 4
ENDMDL
MODEL 8
REMARK VINA RESULT:      -2.4      8.320      9.273
REMARK  4 active torsions:
REMARK  status: ('A' for Active; 'I' for Inactive)
REMARK    1  A    between atoms: C_2  and  C_1 
REMARK       I    between atoms: N_9  and  C_2 
REMARK    2  A    between atoms: C_16  and  N_9 
REMARK    3  A    between atoms: C_13  and  C_16 
REMARK    4  A    between atoms: O_17  and  C_13 
ROOT
ATOM      1  C   UNL d   1      59.097  -9.258  33.926  0.00  0.00     0.073 A 
ATOM      2  C   UNL d   1      60.411  -9.508  33.608  0.00  0.00     0.001 A 
ATOM      3  C   UNL d   1      58.837  -9.547  32.760  0.00  0.00     0.001 A 
ATOM      4  C   UNL d   1      59.435  -9.650  32.653  0.00  0.00     0.001 A 
ATOM      5  C   UNL d   1      58.362  -9.367  33.200  0.00  0.00     0.009 A 
ATOM      6  C   UNL d   1      59.860  -9.293  34.139  0.00  0.00     0.009 A 
ATOM      7  C   UNL d   1      58.881  -9.437  33.179  0.00  0.00     0.009 A 
ATOM      8  C   UNL d   1      58.851  -9.750  32.028  0.00  0.00     0.000 A 
ATOM      9  C   UNL d   1      59.849  -9.594  33.043  0.00  0.00     0.000 A 
ATOM     10  C   UNL d   1      60.198  -9.686  32.866  0.00  0.00     0.000 A 
ATOM     11  C   UNL d   1      60.207  -9.818  32.391  0.00  0.00     0.000 C 
ATOM     12  C   UNL d   1      58.017  -9.440  32.779  0.00  0.00     0.000 C 
ATOM     13  C   UNL d   1      61.133  -9.482  34.026  0.00  0.00     0.000 C 
ENDROOT
BRANCH   1  14
ATOM     14  C   UNL d   1      59.209  -9.053  34.721  0.00  0.00     0.255 C 
ATOM     15  N   UNL d   1      59.244  -8.248  34.944  0.00  0.00    -0.205 NA
ATOM     16  O   UNL d   1      59.287  -9.638  35.300  0.00  0.00    -0.270 OA
BRANCH  15  17
ATOM     17  C   UNL d   1      59.356  -8.045  35.736  0.00  0.00     0.170 C 
BRANCH  17  18
ATOM     18  C   UNL d   1      59.485  -7.259  35.951  0.00  0.00     0.316 C 
ATOM     19  O   UNL d   1      58.890  -6.825  36.323  0.00  0.00    -0.257 OA
BRANCH  18  20
ATOM     20  O   UNL d   1      60.220  -6.906  35.789  0.00  0.00    -0.295 OA
ATOM     21  C   UNL d   1      60.331  -6.099  35.928  0.00  0.00     0.185 C 
ENDBRANCH  18  20
ENDBRANCH  17  18
ENDBRANCH  15  17
ENDBRANCH   1  14
TORSDOF 4
ENDMDL
