MODEL 1
REMARK VINA RESULT:      37.2      0.000      0.000
REMARK  2 active torsions:
REMARK  status: ('A' for Active; 'I' for Inactive)
REMARK    1  A    between atoms: C_6  and  C_2 
REMARK    2  A    between atoms: C_7  and  C_3 
ROOT
ATOM      1  N   UNL d   1      13.701  13.882  -3.647  0.00  0.00    -0.243 NA
ATOM      2  C   UNL d   1      14.041  14.075  -2.923  0.00  0.00     0.104 A 
ATOM      3  C   UNL d   1      14.001  12.790  -2.186  0.00  0.00     0.033 A 
ATOM      4  S   UNL d   1      13.651  12.283  -2.729  0.00  0.00    -0.085 SA
ATOM      5  C   UNL d   1      14.171  13.569  -2.271  0.00  0.00     0.028 A 
ATOM      6  C   UNL d   1      13.409  13.149  -3.896  0.00  0.00     0.087 A 
ATOM      7  C   UNL d   1      13.387  12.432  -3.485  0.00  0.00     0.047 A 
ATOM      8  C   UNL d   1      13.118  13.204  -4.658  0.00  0.00     0.020 A 
ATOM      9  C   UNL d   1      13.074  11.779  -3.841  0.00  0.00     0.008 A 
ATOM     10  C   UNL d   1      12.770  11.807  -4.616  0.00  0.00     0.001 A 
ATOM     11  C   UNL d   1      12.792  12.521  -5.026  0.00  0.00     0.002 A 
ENDROOT
BRANCH   3  12
ATOM     12  C   UNL d   1      14.203  12.452  -1.462  0.00  0.00     0.034 A 
ATOM     13  C   UNL d   1      15.005  12.271  -1.292  0.00  0.00     0.141 A 
ATOM     14  F   UNL d   1      15.584  12.432  -1.852  0.00  0.00    -0.204 F 
ATOM     15  C   UNL d   1      15.202  11.936  -0.574  0.00  0.00     0.030 A 
ATOM     16  C   UNL d   1      14.628  11.779  -0.026  0.00  0.00     0.002 A 
ATOM     17  C   UNL d   1      13.824  11.950  -0.170  0.00  0.00     0.000 A 
ATOM     18  C   UNL d   1      13.621  12.289  -0.895  0.00  0.00     0.003 A 
ENDBRANCH   3  12
BRANCH   2  19
ATOM     19  C   UNL d   1      14.279  14.861  -2.844  0.00  0.00     0.118 A 
ATOM     20  O   UNL d   1      14.496  15.241  -2.144  0.00  0.00    -0.304 OA
ATOM     21  C   UNL d   1      14.691  16.025  -2.334  0.00  0.00     0.123 A 
ATOM     22  C   UNL d   1      14.596  16.133  -3.149  0.00  0.00     0.029 A 
ATOM     23  C   UNL d   1      14.342  15.414  -3.462  0.00  0.00     0.028 A 
ENDBRANCH   2  19
TORSDOF 2
ENDMDL
