MODEL 1
REMARK VINA RESULT:      26.6      0.000      0.000
REMARK  4 active torsions:
REMARK  status: ('A' for Active; 'I' for Inactive)
REMARK    1  A    between atoms: C_7  and  C_1 
REMARK    2  A    between atoms: C_6  and  C_3 
REMARK    3  A    between atoms: O_15  and  C_8 
REMARK    4  A    between atoms: O_16  and  C_12 
ROOT
ATOM      1  C   UNL d   1     -51.413  24.543  33.434  0.00  0.00     0.042 A 
ATOM      2  C   UNL d   1     -52.142  24.917  33.354  0.00  0.00     0.098 A 
ATOM      3  C   UNL d   1     -52.830  24.471  33.318  0.00  0.00     0.048 A 
ATOM      4  C   UNL d   1     -51.370  23.724  33.478  0.00  0.00     0.005 A 
ATOM      5  C   UNL d   1     -52.792  23.646  33.361  0.00  0.00     0.096 A 
ATOM      6  C   UNL d   1     -52.059  23.272  33.442  0.00  0.00     0.024 A 
ENDROOT
BRANCH   1   7
ATOM      7  C   UNL d   1     -50.724  24.996  33.470  0.00  0.00     0.107 A 
ATOM      8  C   UNL d   1     -50.446  26.393  33.516  0.00  0.00     0.048 A 
ATOM      9  C   UNL d   1     -49.638  26.226  33.540  0.00  0.00     0.169 A 
ATOM     10  N   UNL d   1     -49.364  25.450  33.530  0.00  0.00    -0.142 NA
ATOM     11  N   UNL d   1     -49.915  24.834  33.495  0.00  0.00    -0.148 NA
BRANCH   9  12
ATOM     12  C   UNL d   1     -49.094  26.848  33.576  0.00  0.00     0.231 C 
ATOM     13  O   UNL d   1     -48.321  26.733  33.313  0.00  0.00    -0.643 OA
ATOM     14  O   UNL d   1     -49.324  27.581  33.873  0.00  0.00    -0.643 OA
ENDBRANCH   9  12
ENDBRANCH   1   7
BRANCH   2  15
ATOM     15  O   UNL d   1     -52.180  25.743  33.310  0.00  0.00    -0.328 OA
ATOM     16  C   UNL d   1     -52.879  26.134  33.518  0.00  0.00     0.181 C 
ENDBRANCH   2  15
BRANCH   5  17
ATOM     17  O   UNL d   1     -53.484  23.198  33.325  0.00  0.00    -0.328 OA
ATOM     18  C   UNL d   1     -54.043  23.246  33.933  0.00  0.00     0.181 C 
ENDBRANCH   5  17
TORSDOF 4
ENDMDL
