MODEL 1
REMARK VINA RESULT:      -4.6      0.000      0.000
REMARK  2 active torsions:
REMARK  status: ('A' for Active; 'I' for Inactive)
REMARK       I    between atoms: N_3  and  C_1 
REMARK    1  A    between atoms: O_4  and  C_1 
REMARK    2  A    between atoms: C_6  and  O_4 
ROOT
ATOM      1  C   UNL d   1     -41.906-122.378 -53.762  0.00  0.00     0.105 A 
ATOM      2  C   UNL d   1     -41.775-122.640 -54.531  0.00  0.00     0.030 A 
ATOM      3  C   UNL d   1     -41.644-122.837 -53.112  0.00  0.00     0.122 A 
ATOM      4  N   UNL d   1     -42.297-121.658 -53.627  0.00  0.00    -0.242 NA
ATOM      5  C   UNL d   1     -41.385-123.357 -54.663  0.00  0.00     0.059 A 
ATOM      6  C   UNL d   1     -41.258-123.549 -53.244  0.00  0.00     0.027 A 
ATOM      7  C   UNL d   1     -41.124-123.816 -54.013  0.00  0.00     0.013 A 
ATOM      8 CL   UNL d   1     -41.251-123.625 -55.437  0.00  0.00    -0.082 Cl
ATOM      9  C   UNL d   1     -42.032-122.187 -55.171  0.00  0.00     0.004 A 
ATOM     10  C   UNL d   1     -42.554-121.205 -54.267  0.00  0.00     0.099 A 
ATOM     11  C   UNL d   1     -42.420-121.473 -55.042  0.00  0.00     0.021 A 
ENDROOT
BRANCH   3  12
ATOM     12  O   UNL d   1     -41.776-122.573 -52.331  0.00  0.00    -0.257 OA
BRANCH  12  13
ATOM     13  C   UNL d   1     -41.575-123.057 -51.680  0.00  0.00     0.378 C 
ATOM     14  N   UNL d   1     -41.809-122.857 -50.923  0.00  0.00    -0.247 N 
ATOM     15  C   UNL d   1     -42.248-122.169 -50.794  0.00  0.00     0.112 A 
ATOM     16  C   UNL d   1     -41.608-123.338 -50.283  0.00  0.00     0.112 A 
ATOM     17  C   UNL d   1     -42.479-121.975 -50.029  0.00  0.00     0.142 A 
ATOM     18  O   UNL d   1     -42.281-122.452 -49.393  0.00  0.00    -0.300 OA
ATOM     19  C   UNL d   1     -41.841-123.139 -49.521  0.00  0.00     0.142 A 
ATOM     20  O   UNL d   1     -41.130-123.753 -51.810  0.00  0.00    -0.237 OA
ENDBRANCH  12  13
ENDBRANCH   3  12
TORSDOF 2
ENDMDL
MODEL 2
REMARK VINA RESULT:      -4.4      1.753      4.010
REMARK  2 active torsions:
REMARK  status: ('A' for Active; 'I' for Inactive)
REMARK       I    between atoms: N_3  and  C_1 
REMARK    1  A    between atoms: O_4  and  C_1 
REMARK    2  A    between atoms: C_6  and  O_4 
ROOT
ATOM      1  C   UNL d   1     -42.335-122.698 -50.696  0.00  0.00     0.105 A 
ATOM      2  C   UNL d   1     -42.299-122.992 -49.929  0.00  0.00     0.030 A 
ATOM      3  C   UNL d   1     -41.761-122.929 -51.262  0.00  0.00     0.122 A 
ATOM      4  N   UNL d   1     -42.939-122.172 -50.914  0.00  0.00    -0.242 NA
ATOM      5  C   UNL d   1     -41.696-123.516 -49.714  0.00  0.00     0.059 A 
ATOM      6  C   UNL d   1     -41.164-123.449 -51.048  0.00  0.00     0.027 A 
ATOM      7  C   UNL d   1     -41.123-123.747 -50.280  0.00  0.00     0.013 A 
ATOM      8 CL   UNL d   1     -41.656-123.816 -48.941  0.00  0.00    -0.082 Cl
ATOM      9  C   UNL d   1     -42.864-122.765 -49.372  0.00  0.00     0.004 A 
ATOM     10  C   UNL d   1     -43.504-121.944 -50.357  0.00  0.00     0.099 A 
ATOM     11  C   UNL d   1     -43.465-122.244 -49.583  0.00  0.00     0.021 A 
ENDROOT
BRANCH   3  12
ATOM     12  O   UNL d   1     -41.796-122.632 -52.041  0.00  0.00    -0.257 OA
BRANCH  12  13
ATOM     13  C   UNL d   1     -41.479-123.071 -52.677  0.00  0.00     0.378 C 
ATOM     14  N   UNL d   1     -41.512-122.784 -53.441  0.00  0.00    -0.247 N 
ATOM     15  C   UNL d   1     -41.862-122.051 -53.592  0.00  0.00     0.112 A 
ATOM     16  C   UNL d   1     -41.197-123.221 -54.066  0.00  0.00     0.112 A 
ATOM     17  C   UNL d   1     -41.892-121.768 -54.364  0.00  0.00     0.142 A 
ATOM     18  O   UNL d   1     -41.580-122.202 -54.985  0.00  0.00    -0.300 OA
ATOM     19  C   UNL d   1     -41.230-122.934 -54.835  0.00  0.00     0.142 A 
ATOM     20  O   UNL d   1     -41.124-123.814 -52.525  0.00  0.00    -0.237 OA
ENDBRANCH  12  13
ENDBRANCH   3  12
TORSDOF 2
ENDMDL
MODEL 3
REMARK VINA RESULT:      -3.8      1.882      3.887
REMARK  2 active torsions:
REMARK  status: ('A' for Active; 'I' for Inactive)
REMARK       I    between atoms: N_3  and  C_1 
REMARK    1  A    between atoms: O_4  and  C_1 
REMARK    2  A    between atoms: C_6  and  O_4 
ROOT
ATOM      1  C   UNL d   1     -41.135-122.209 -51.895  0.00  0.00     0.105 A 
ATOM      2  C   UNL d   1     -41.129-122.431 -51.103  0.00  0.00     0.030 A 
ATOM      3  C   UNL d   1     -41.141-122.794 -52.496  0.00  0.00     0.122 A 
ATOM      4  N   UNL d   1     -41.135-121.405 -52.103  0.00  0.00    -0.242 NA
ATOM      5  C   UNL d   1     -41.129-123.233 -50.898  0.00  0.00     0.059 A 
ATOM      6  C   UNL d   1     -41.140-123.589 -52.291  0.00  0.00     0.027 A 
ATOM      7  C   UNL d   1     -41.135-123.817 -51.498  0.00  0.00     0.013 A 
ATOM      8 CL   UNL d   1     -41.123-123.461 -50.100  0.00  0.00    -0.082 Cl
ATOM      9  C   UNL d   1     -41.123-121.856 -50.513  0.00  0.00     0.004 A 
ATOM     10  C   UNL d   1     -41.129-120.829 -51.513  0.00  0.00     0.099 A 
ATOM     11  C   UNL d   1     -41.123-121.058 -50.714  0.00  0.00     0.021 A 
ENDROOT
BRANCH   3  12
ATOM     12  O   UNL d   1     -41.146-122.571 -53.300  0.00  0.00    -0.257 OA
BRANCH  12  13
ATOM     13  C   UNL d   1     -41.678-122.928 -53.836  0.00  0.00     0.378 C 
ATOM     14  N   UNL d   1     -41.848-122.577 -54.554  0.00  0.00    -0.247 N 
ATOM     15  C   UNL d   1     -41.491-121.860 -54.757  0.00  0.00     0.112 A 
ATOM     16  C   UNL d   1     -42.373-122.935 -55.079  0.00  0.00     0.112 A 
ATOM     17  C   UNL d   1     -41.667-121.513 -55.482  0.00  0.00     0.142 A 
ATOM     18  O   UNL d   1     -42.189-121.867 -56.005  0.00  0.00    -0.300 OA
ATOM     19  C   UNL d   1     -42.545-122.584 -55.802  0.00  0.00     0.142 A 
ATOM     20  O   UNL d   1     -42.039-123.655 -53.630  0.00  0.00    -0.237 OA
ENDBRANCH  12  13
ENDBRANCH   3  12
TORSDOF 2
ENDMDL
