MODEL 1
REMARK VINA RESULT:      74.6      0.000      0.000
REMARK  5 active torsions:
REMARK  status: ('A' for Active; 'I' for Inactive)
REMARK    1  A    between atoms: C_10  and  C_3 
REMARK    2  A    between atoms: N_9  and  C_4 
REMARK    3  A    between atoms: C_16  and  N_12 
REMARK    4  A    between atoms: O_21  and  C_15 
REMARK    5  A    between atoms: C_20  and  C_16 
ROOT
ATOM      1  N   UNL d   1      14.055  14.084  -2.882  0.00  0.00    -0.196 N 
ATOM      2  C   UNL d   1      14.048  13.470  -2.336  0.00  0.00     0.167 A 
ATOM      3  C   UNL d   1      14.333  13.579  -1.616  0.00  0.00     0.057 A 
ATOM      4  C   UNL d   1      13.754  13.940  -3.616  0.00  0.00     0.152 A 
ATOM      5  N   UNL d   1      14.642  14.897  -1.943  0.00  0.00    -0.163 NA
ATOM      6  C   UNL d   1      14.636  14.301  -1.412  0.00  0.00     0.104 A 
ATOM      7  N   UNL d   1      13.741  12.749  -2.556  0.00  0.00    -0.227 NA
ATOM      8  C   UNL d   1      13.457  13.238  -3.822  0.00  0.00     0.057 A 
ATOM      9  C   UNL d   1      13.450  12.633  -3.284  0.00  0.00     0.086 A 
ATOM     10  C   UNL d   1      14.940  14.425  -0.650  0.00  0.00     0.023 C 
ATOM     11  C   UNL d   1      13.137  11.891  -3.501  0.00  0.00     0.021 C 
ENDROOT
BRANCH   4  12
ATOM     12  N   UNL d   1      13.762  14.567  -4.174  0.00  0.00    -0.286 N 
ATOM     13  C   UNL d   1      13.631  14.184  -4.892  0.00  0.00     0.101 A 
ATOM     14  C   UNL d   1      13.598  14.623  -5.601  0.00  0.00     0.100 A 
ATOM     15  N   UNL d   1      13.696  15.449  -5.597  0.00  0.00    -0.300 N 
ATOM     16  C   UNL d   1      13.829  15.839  -4.869  0.00  0.00     0.100 A 
ATOM     17  C   UNL d   1      13.863  15.404  -4.151  0.00  0.00     0.101 A 
BRANCH  15  18
ATOM     18  C   UNL d   1      13.661  15.880  -6.317  0.00  0.00     0.080 C 
BRANCH  18  19
ATOM     19  C   UNL d   1      13.599  16.715  -6.291  0.00  0.00     0.018 A 
ATOM     20  C   UNL d   1      14.285  17.179  -6.212  0.00  0.00     0.002 A 
ATOM     21  C   UNL d   1      14.223  18.014  -6.186  0.00  0.00     0.000 A 
ATOM     22  C   UNL d   1      13.477  18.365  -6.239  0.00  0.00     0.000 A 
ATOM     23  C   UNL d   1      12.788  17.898  -6.317  0.00  0.00     0.000 A 
ATOM     24  C   UNL d   1      12.858  17.072  -6.343  0.00  0.00     0.002 A 
ENDBRANCH  18  19
ENDBRANCH  15  18
ENDBRANCH   4  12
BRANCH   3  25
ATOM     25  C   UNL d   1      14.326  12.977  -1.080  0.00  0.00     0.027 A 
ATOM     26  C   UNL d   1      14.943  12.454  -1.047  0.00  0.00     0.094 A 
ATOM     27  C   UNL d   1      14.936  11.855  -0.514  0.00  0.00     0.024 A 
ATOM     28  C   UNL d   1      14.312  11.779  -0.014  0.00  0.00     0.002 A 
ATOM     29  C   UNL d   1      13.707  12.299  -0.052  0.00  0.00     0.000 A 
ATOM     30  C   UNL d   1      13.714  12.888  -0.575  0.00  0.00     0.002 A 
BRANCH  26  31
ATOM     31  O   UNL d   1      15.586  12.542  -1.571  0.00  0.00    -0.328 OA
ATOM     32  C   UNL d   1      16.090  11.889  -1.724  0.00  0.00     0.181 C 
ENDBRANCH  26  31
ENDBRANCH   3  25
TORSDOF 5
ENDMDL
MODEL 2
REMARK VINA RESULT:      75.8      0.779      1.757
REMARK  5 active torsions:
REMARK  status: ('A' for Active; 'I' for Inactive)
REMARK    1  A    between atoms: C_10  and  C_3 
REMARK    2  A    between atoms: N_9  and  C_4 
REMARK    3  A    between atoms: C_16  and  N_12 
REMARK    4  A    between atoms: O_21  and  C_15 
REMARK    5  A    between atoms: C_20  and  C_16 
ROOT
ATOM      1  N   UNL d   1      14.030  14.147  -2.981  0.00  0.00    -0.196 N 
ATOM      2  C   UNL d   1      14.147  13.786  -2.252  0.00  0.00     0.167 A 
ATOM      3  C   UNL d   1      14.004  13.022  -2.163  0.00  0.00     0.057 A 
ATOM      4  C   UNL d   1      14.186  14.936  -3.041  0.00  0.00     0.152 A 
ATOM      5  N   UNL d   1      13.626  12.941  -3.501  0.00  0.00    -0.163 NA
ATOM      6  C   UNL d   1      13.740  12.590  -2.793  0.00  0.00     0.104 A 
ATOM      7  N   UNL d   1      14.413  14.235  -1.627  0.00  0.00    -0.227 NA
ATOM      8  C   UNL d   1      14.444  15.365  -2.430  0.00  0.00     0.057 A 
ATOM      9  C   UNL d   1      14.559  15.009  -1.712  0.00  0.00     0.086 A 
ATOM     10  C   UNL d   1      13.585  11.779  -2.707  0.00  0.00     0.023 C 
ATOM     11  C   UNL d   1      14.831  15.461  -1.067  0.00  0.00     0.021 C 
ENDROOT
BRANCH   4  12
ATOM     12  N   UNL d   1      14.067  15.305  -3.786  0.00  0.00    -0.286 N 
ATOM     13  C   UNL d   1      14.741  15.771  -3.878  0.00  0.00     0.101 A 
ATOM     14  C   UNL d   1      14.838  16.237  -4.562  0.00  0.00     0.100 A 
ATOM     15  N   UNL d   1      14.261  16.240  -5.161  0.00  0.00    -0.300 N 
ATOM     16  C   UNL d   1      13.577  15.768  -5.071  0.00  0.00     0.100 A 
ATOM     17  C   UNL d   1      13.472  15.297  -4.383  0.00  0.00     0.101 A 
BRANCH  15  18
ATOM     18  C   UNL d   1      14.370  16.714  -5.847  0.00  0.00     0.080 C 
BRANCH  18  19
ATOM     19  C   UNL d   1      14.212  17.536  -5.805  0.00  0.00     0.018 A 
ATOM     20  C   UNL d   1      13.667  17.880  -6.332  0.00  0.00     0.002 A 
ATOM     21  C   UNL d   1      13.510  18.701  -6.290  0.00  0.00     0.000 A 
ATOM     22  C   UNL d   1      13.899  19.159  -5.722  0.00  0.00     0.000 A 
ATOM     23  C   UNL d   1      14.446  18.812  -5.194  0.00  0.00     0.000 A 
ATOM     24  C   UNL d   1      14.597  17.999  -5.242  0.00  0.00     0.002 A 
ENDBRANCH  18  19
ENDBRANCH  15  18
ENDBRANCH   4  12
BRANCH   3  25
ATOM     25  C   UNL d   1      14.118  12.668  -1.449  0.00  0.00     0.027 A 
ATOM     26  C   UNL d   1      14.837  12.347  -1.263  0.00  0.00     0.094 A 
ATOM     27  C   UNL d   1      14.951  11.995  -0.553  0.00  0.00     0.024 A 
ATOM     28  C   UNL d   1      14.346  11.963  -0.026  0.00  0.00     0.002 A 
ATOM     29  C   UNL d   1      13.638  12.281  -0.215  0.00  0.00     0.000 A 
ATOM     30  C   UNL d   1      13.526  12.628  -0.914  0.00  0.00     0.002 A 
BRANCH  26  31
ATOM     31  O   UNL d   1      15.460  12.386  -1.817  0.00  0.00    -0.328 OA
ATOM     32  C   UNL d   1      16.040  11.780  -1.834  0.00  0.00     0.181 C 
ENDBRANCH  26  31
ENDBRANCH   3  25
TORSDOF 5
ENDMDL
