MODEL 1
REMARK VINA RESULT:      27.3      0.000      0.000
REMARK  4 active torsions:
REMARK  status: ('A' for Active; 'I' for Inactive)
REMARK    1  A    between atoms: N_2  and  S_1 
REMARK    2  A    between atoms: C_3  and  S_1 
REMARK    3  A    between atoms: C_11  and  N_2 
REMARK    4  A    between atoms: C_6  and  C_7 
ROOT
ATOM      1  S   UNL d   1      13.425  11.802  -2.604  0.00  0.00     0.285 S 
ATOM      2  O   UNL d   1      12.779  11.815  -2.092  0.00  0.00    -0.198 OA
ATOM      3  O   UNL d   1      14.072  11.788  -3.117  0.00  0.00    -0.198 OA
ENDROOT
BRANCH   1   4
ATOM      4  N   UNL d   1      12.913  11.799  -3.251  0.00  0.00    -0.158 NA
BRANCH   4   5
ATOM      5  C   UNL d   1      13.080  12.255  -3.919  0.00  0.00     0.094 A 
ATOM      6  C   UNL d   1      13.279  11.893  -4.633  0.00  0.00     0.020 A 
ATOM      7  C   UNL d   1      13.445  12.350  -5.297  0.00  0.00     0.005 A 
ATOM      8  C   UNL d   1      13.411  13.182  -5.249  0.00  0.00     0.039 A 
ATOM      9  C   UNL d   1      13.211  13.543  -4.535  0.00  0.00     0.005 A 
ATOM     10  C   UNL d   1      13.045  13.089  -3.867  0.00  0.00     0.020 A 
BRANCH   8  11
ATOM     11  C   UNL d   1      13.578  13.651  -5.918  0.00  0.00     0.196 C 
ATOM     12  O   UNL d   1      13.058  14.248  -6.141  0.00  0.00    -0.287 OA
ATOM     13  C   UNL d   1      14.272  13.520  -6.369  0.00  0.00     0.045 C 
ENDBRANCH   8  11
ENDBRANCH   4   5
ENDBRANCH   1   4
BRANCH   1  14
ATOM     14  C   UNL d   1      13.937  11.804  -1.958  0.00  0.00     0.105 A 
ATOM     15  C   UNL d   1      14.747  11.804  -2.081  0.00  0.00     0.013 A 
ATOM     16  C   UNL d   1      15.267  11.806  -1.424  0.00  0.00     0.001 A 
ATOM     17  C   UNL d   1      14.964  11.808  -0.661  0.00  0.00     0.000 A 
ATOM     18  C   UNL d   1      14.146  11.807  -0.536  0.00  0.00     0.001 A 
ATOM     19  C   UNL d   1      15.476  11.810  -0.014  0.00  0.00     0.000 C 
ATOM     20  C   UNL d   1      13.626  11.805  -1.193  0.00  0.00     0.013 A 
ENDBRANCH   1  14
TORSDOF 4
ENDMDL
