MODEL 1
REMARK VINA RESULT:      -3.5      0.000      0.000
REMARK  3 active torsions:
REMARK  status: ('A' for Active; 'I' for Inactive)
REMARK    1  A    between atoms: C_5  and  C_3 
REMARK       I    between atoms: N_10  and  C_5 
REMARK    2  A    between atoms: C_13  and  N_10 
REMARK    3  A    between atoms: C_15  and  C_13 
ROOT
ATOM      1  N   UNL d   1      29.603  16.509 -23.909  0.00  0.00    -0.254 N 
ATOM      2  C   UNL d   1      30.282  16.943 -24.106  0.00  0.00     0.272 A 
ATOM      3  C   UNL d   1      31.033  16.647 -23.929  0.00  0.00     0.133 A 
ATOM      4  C   UNL d   1      29.686  15.779 -23.534  0.00  0.00     0.182 A 
ATOM      5  N   UNL d   1      30.433  15.482 -23.357  0.00  0.00    -0.220 NA
ATOM      6  C   UNL d   1      31.109  15.916 -23.554  0.00  0.00     0.111 A 
ATOM      7  S   UNL d   1      28.931  15.472 -23.404  0.00  0.00    -0.048 SA
ATOM      8  C   UNL d   1      28.805  16.657 -24.012  0.00  0.00     0.075 A 
ATOM      9  C   UNL d   1      28.383  16.024 -23.704  0.00  0.00     0.056 A 
ATOM     10  O   UNL d   1      30.199  17.674 -24.481  0.00  0.00    -0.266 OA
ATOM     11  C   UNL d   1      28.476  17.322 -24.362  0.00  0.00     0.020 C 
ENDROOT
BRANCH   3  12
ATOM     12  C   UNL d   1      31.703  17.091 -24.132  0.00  0.00     0.285 C 
ATOM     13  N   UNL d   1      32.050  17.576 -23.564  0.00  0.00    -0.208 NA
ATOM     14  O   UNL d   1      32.016  17.050 -24.886  0.00  0.00    -0.265 OA
BRANCH  13  15
ATOM     15  C   UNL d   1      32.715  18.021 -23.755  0.00  0.00     0.085 C 
ATOM     16  C   UNL d   1      33.198  17.803 -24.377  0.00  0.00     0.021 C 
BRANCH  15  17
ATOM     17  C   UNL d   1      32.890  18.694 -23.311  0.00  0.00     0.018 A 
ATOM     18  C   UNL d   1      32.906  19.429 -23.692  0.00  0.00     0.002 A 
ATOM     19  C   UNL d   1      33.081  20.102 -23.248  0.00  0.00     0.000 A 
ATOM     20  C   UNL d   1      33.241  20.049 -22.430  0.00  0.00     0.000 A 
ATOM     21  C   UNL d   1      33.222  19.308 -22.063  0.00  0.00     0.000 A 
ATOM     22  C   UNL d   1      33.048  18.629 -22.497  0.00  0.00     0.002 A 
ENDBRANCH  15  17
ENDBRANCH  13  15
ENDBRANCH   3  12
TORSDOF 3
ENDMDL
MODEL 2
REMARK VINA RESULT:      -2.6      3.080      5.166
REMARK  3 active torsions:
REMARK  status: ('A' for Active; 'I' for Inactive)
REMARK    1  A    between atoms: C_5  and  C_3 
REMARK       I    between atoms: N_10  and  C_5 
REMARK    2  A    between atoms: C_13  and  N_10 
REMARK    3  A    between atoms: C_15  and  C_13 
ROOT
ATOM      1  N   UNL d   1      32.709  21.842 -21.231  0.00  0.00    -0.254 N 
ATOM      2  C   UNL d   1      32.747  21.445 -21.958  0.00  0.00     0.272 A 
ATOM      3  C   UNL d   1      33.013  20.663 -21.993  0.00  0.00     0.133 A 
ATOM      4  C   UNL d   1      32.939  21.448 -20.544  0.00  0.00     0.182 A 
ATOM      5  N   UNL d   1      33.203  20.670 -20.576  0.00  0.00    -0.220 NA
ATOM      6  C   UNL d   1      33.241  20.275 -21.301  0.00  0.00     0.111 A 
ATOM      7  S   UNL d   1      32.846  21.968 -19.909  0.00  0.00    -0.048 SA
ATOM      8  C   UNL d   1      32.475  22.599 -21.027  0.00  0.00     0.075 A 
ATOM      9  C   UNL d   1      32.556  22.686 -20.216  0.00  0.00     0.056 A 
ATOM     10  O   UNL d   1      32.517  21.839 -22.645  0.00  0.00    -0.266 OA
ATOM     11  C   UNL d   1      32.205  23.178 -21.543  0.00  0.00     0.020 C 
ENDROOT
BRANCH   3  12
ATOM     12  C   UNL d   1      33.046  20.278 -22.727  0.00  0.00     0.285 C 
ATOM     13  N   UNL d   1      32.879  19.472 -22.765  0.00  0.00    -0.208 NA
ATOM     14  O   UNL d   1      33.241  20.691 -23.404  0.00  0.00    -0.265 OA
BRANCH  13  15
ATOM     15  C   UNL d   1      32.909  19.081 -23.488  0.00  0.00     0.085 C 
ATOM     16  C   UNL d   1      33.238  19.441 -24.144  0.00  0.00     0.021 C 
BRANCH  15  17
ATOM     17  C   UNL d   1      32.603  18.317 -23.546  0.00  0.00     0.018 A 
ATOM     18  C   UNL d   1      33.027  17.692 -23.208  0.00  0.00     0.002 A 
ATOM     19  C   UNL d   1      32.720  16.928 -23.265  0.00  0.00     0.000 A 
ATOM     20  C   UNL d   1      31.996  16.782 -23.656  0.00  0.00     0.000 A 
ATOM     21  C   UNL d   1      31.583  17.417 -23.988  0.00  0.00     0.000 A 
ATOM     22  C   UNL d   1      31.881  18.184 -23.937  0.00  0.00     0.002 A 
ENDBRANCH  15  17
ENDBRANCH  13  15
ENDBRANCH   3  12
TORSDOF 3
ENDMDL
MODEL 3
REMARK VINA RESULT:      -1.8      2.291      4.583
REMARK  3 active torsions:
REMARK  status: ('A' for Active; 'I' for Inactive)
REMARK    1  A    between atoms: C_5  and  C_3 
REMARK       I    between atoms: N_10  and  C_5 
REMARK    2  A    between atoms: C_13  and  N_10 
REMARK    3  A    between atoms: C_15  and  C_13 
ROOT
ATOM      1  N   UNL d   1      32.934  20.490 -22.418  0.00  0.00    -0.254 N 
ATOM      2  C   UNL d   1      32.860  19.669 -22.511  0.00  0.00     0.272 A 
ATOM      3  C   UNL d   1      32.976  19.320 -23.252  0.00  0.00     0.133 A 
ATOM      4  C   UNL d   1      33.125  20.954 -23.073  0.00  0.00     0.182 A 
ATOM      5  N   UNL d   1      33.241  20.609 -23.811  0.00  0.00    -0.220 NA
ATOM      6  C   UNL d   1      33.167  19.791 -23.902  0.00  0.00     0.111 A 
ATOM      7  S   UNL d   1      33.162  21.741 -22.826  0.00  0.00    -0.048 SA
ATOM      8  C   UNL d   1      32.854  20.982 -21.769  0.00  0.00     0.075 A 
ATOM      9  C   UNL d   1      32.992  21.753 -22.010  0.00  0.00     0.056 A 
ATOM     10  O   UNL d   1      32.670  19.205 -21.856  0.00  0.00    -0.266 OA
ATOM     11  C   UNL d   1      32.666  20.748 -21.005  0.00  0.00     0.020 C 
ENDROOT
BRANCH   3  12
ATOM     12  C   UNL d   1      32.899  18.498 -23.330  0.00  0.00     0.285 C 
ATOM     13  N   UNL d   1      32.476  18.194 -23.967  0.00  0.00    -0.208 NA
ATOM     14  O   UNL d   1      33.238  17.996 -22.782  0.00  0.00    -0.265 OA
BRANCH  13  15
ATOM     15  C   UNL d   1      32.394  17.380 -24.054  0.00  0.00     0.085 C 
ATOM     16  C   UNL d   1      33.045  16.888 -24.010  0.00  0.00     0.021 C 
BRANCH  15  17
ATOM     17  C   UNL d   1      31.643  17.063 -24.185  0.00  0.00     0.018 A 
ATOM     18  C   UNL d   1      31.255  17.243 -24.893  0.00  0.00     0.002 A 
ATOM     19  C   UNL d   1      30.504  16.926 -25.025  0.00  0.00     0.000 A 
ATOM     20  C   UNL d   1      30.139  16.432 -24.459  0.00  0.00     0.000 A 
ATOM     21  C   UNL d   1      30.539  16.261 -23.756  0.00  0.00     0.000 A 
ATOM     22  C   UNL d   1      31.290  16.573 -23.614  0.00  0.00     0.002 A 
ENDBRANCH  15  17
ENDBRANCH  13  15
ENDBRANCH   3  12
TORSDOF 3
ENDMDL
