MODEL 1
REMARK VINA RESULT:      -3.5      0.000      0.000
REMARK  4 active torsions:
REMARK  status: ('A' for Active; 'I' for Inactive)
REMARK    1  A    between atoms: N_2  and  S_1 
REMARK    2  A    between atoms: C_4  and  S_1 
REMARK    3  A    between atoms: C_3  and  C_9 
REMARK       I    between atoms: N_5  and  C_3 
REMARK    4  A    between atoms: C_6  and  N_5 
ROOT
ATOM      1  C   UNL d   1      32.015  17.853 -24.212  0.00  0.00     0.104 A 
ATOM      2  C   UNL d   1      32.774  18.771 -23.424  0.00  0.00     0.059 A 
ATOM      3  C   UNL d   1      32.162  18.226 -23.486  0.00  0.00     0.018 A 
ATOM      4  C   UNL d   1      32.481  18.029 -24.868  0.00  0.00     0.013 A 
ATOM      5  C   UNL d   1      33.241  18.947 -24.080  0.00  0.00     0.005 A 
ATOM      6  C   UNL d   1      33.091  18.571 -24.808  0.00  0.00     0.001 A 
ENDROOT
BRANCH   1   7
ATOM      7  S   UNL d   1      31.406  17.312 -24.272  0.00  0.00     0.271 S 
ATOM      8  O   UNL d   1      31.171  17.896 -24.774  0.00  0.00    -0.200 OA
ATOM      9  O   UNL d   1      31.609  16.689 -23.766  0.00  0.00    -0.200 OA
BRANCH   7  10
ATOM     10  N   UNL d   1      30.753  16.831 -24.396  0.00  0.00    -0.229 N 
ATOM     11  C   UNL d   1      30.896  16.011 -24.504  0.00  0.00     0.092 A 
ATOM     12  C   UNL d   1      30.390  15.502 -24.621  0.00  0.00     0.020 A 
ATOM     13  C   UNL d   1      29.532  15.501 -24.691  0.00  0.00     0.002 A 
ATOM     14  C   UNL d   1      29.017  16.037 -24.655  0.00  0.00     0.002 A 
ATOM     15  C   UNL d   1      29.163  16.857 -24.523  0.00  0.00     0.020 A 
ATOM     16  C   UNL d   1      29.965  17.225 -24.403  0.00  0.00     0.092 A 
ENDBRANCH   7  10
ENDBRANCH   1   7
BRANCH   2  17
ATOM     17  C   UNL d   1      32.922  19.144 -22.698  0.00  0.00     0.281 C 
ATOM     18  N   UNL d   1      32.744  19.947 -22.613  0.00  0.00    -0.187 NA
ATOM     19  O   UNL d   1      33.240  18.711 -22.080  0.00  0.00    -0.265 OA
BRANCH  18  20
ATOM     20  C   UNL d   1      32.892  20.311 -21.893  0.00  0.00     0.194 A 
ATOM     21  N   UNL d   1      33.036  19.933 -21.173  0.00  0.00    -0.106 NA
ATOM     22  O   UNL d   1      33.154  20.512 -20.602  0.00  0.00    -0.207 OA
ATOM     23  C   UNL d   1      33.083  21.251 -20.967  0.00  0.00     0.153 A 
ATOM     24  C   UNL d   1      32.922  21.130 -21.759  0.00  0.00     0.070 A 
ENDBRANCH  18  20
ENDBRANCH   2  17
TORSDOF 4
ENDMDL
MODEL 2
REMARK VINA RESULT:      -3.4      0.989      1.309
REMARK  4 active torsions:
REMARK  status: ('A' for Active; 'I' for Inactive)
REMARK    1  A    between atoms: N_2  and  S_1 
REMARK    2  A    between atoms: C_4  and  S_1 
REMARK    3  A    between atoms: C_3  and  C_9 
REMARK       I    between atoms: N_5  and  C_3 
REMARK    4  A    between atoms: C_6  and  N_5 
ROOT
ATOM      1  C   UNL d   1      31.736  16.875 -23.876  0.00  0.00     0.104 A 
ATOM      2  C   UNL d   1      32.672  17.855 -23.428  0.00  0.00     0.059 A 
ATOM      3  C   UNL d   1      31.920  17.664 -23.699  0.00  0.00     0.018 A 
ATOM      4  C   UNL d   1      32.304  16.286 -23.781  0.00  0.00     0.013 A 
ATOM      5  C   UNL d   1      33.241  17.266 -23.333  0.00  0.00     0.005 A 
ATOM      6  C   UNL d   1      33.053  16.475 -23.511  0.00  0.00     0.001 A 
ENDROOT
BRANCH   1   7
ATOM      7  S   UNL d   1      30.987  16.686 -24.145  0.00  0.00     0.271 S 
ATOM      8  O   UNL d   1      31.035  16.271 -23.457  0.00  0.00    -0.200 OA
ATOM      9  O   UNL d   1      30.895  17.096 -24.858  0.00  0.00    -0.200 OA
BRANCH   7  10
ATOM     10  N   UNL d   1      30.227  16.441 -24.334  0.00  0.00    -0.229 N 
ATOM     11  C   UNL d   1      30.154  15.756 -24.813  0.00  0.00     0.092 A 
ATOM     12  C   UNL d   1      29.530  15.457 -25.036  0.00  0.00     0.020 A 
ATOM     13  C   UNL d   1      28.695  15.638 -24.929  0.00  0.00     0.002 A 
ATOM     14  C   UNL d   1      28.333  16.176 -24.563  0.00  0.00     0.002 A 
ATOM     15  C   UNL d   1      28.687  16.800 -24.120  0.00  0.00     0.020 A 
ATOM     16  C   UNL d   1      29.563  16.923 -24.014  0.00  0.00     0.092 A 
ENDBRANCH   7  10
ENDBRANCH   1   7
BRANCH   2  17
ATOM     17  C   UNL d   1      32.858  18.644 -23.250  0.00  0.00     0.281 C 
ATOM     18  N   UNL d   1      32.746  18.921 -22.480  0.00  0.00    -0.187 NA
ATOM     19  O   UNL d   1      33.148  19.131 -23.841  0.00  0.00    -0.265 OA
BRANCH  18  20
ATOM     20  C   UNL d   1      32.931  19.702 -22.310  0.00  0.00     0.194 A 
ATOM     21  N   UNL d   1      33.002  20.319 -22.854  0.00  0.00    -0.106 NA
ATOM     22  O   UNL d   1      33.193  21.003 -22.441  0.00  0.00    -0.207 OA
ATOM     23  C   UNL d   1      33.241  20.811 -21.637  0.00  0.00     0.153 A 
ATOM     24  C   UNL d   1      33.080  20.014 -21.555  0.00  0.00     0.070 A 
ENDBRANCH  18  20
ENDBRANCH   2  17
TORSDOF 4
ENDMDL
MODEL 3
REMARK VINA RESULT:      -2.0      3.372      5.208
REMARK  4 active torsions:
REMARK  status: ('A' for Active; 'I' for Inactive)
REMARK    1  A    between atoms: N_2  and  S_1 
REMARK    2  A    between atoms: C_4  and  S_1 
REMARK    3  A    between atoms: C_3  and  C_9 
REMARK       I    between atoms: N_5  and  C_3 
REMARK    4  A    between atoms: C_6  and  N_5 
ROOT
ATOM      1  C   UNL d   1      32.451  22.119 -21.283  0.00  0.00     0.104 A 
ATOM      2  C   UNL d   1      32.432  22.999 -20.158  0.00  0.00     0.059 A 
ATOM      3  C   UNL d   1      32.660  22.286 -20.497  0.00  0.00     0.018 A 
ATOM      4  C   UNL d   1      32.018  22.665 -21.720  0.00  0.00     0.013 A 
ATOM      5  C   UNL d   1      31.998  23.546 -20.596  0.00  0.00     0.005 A 
ATOM      6  C   UNL d   1      31.790  23.376 -21.384  0.00  0.00     0.001 A 
ENDROOT
BRANCH   1   7
ATOM      7  S   UNL d   1      32.679  21.409 -21.618  0.00  0.00     0.271 S 
ATOM      8  O   UNL d   1      32.196  21.722 -22.182  0.00  0.00    -0.200 OA
ATOM      9  O   UNL d   1      33.182  21.051 -21.067  0.00  0.00    -0.200 OA
BRANCH   7  10
ATOM     10  N   UNL d   1      32.851  20.722 -22.033  0.00  0.00    -0.229 N 
ATOM     11  C   UNL d   1      32.952  20.020 -21.584  0.00  0.00     0.092 A 
ATOM     12  C   UNL d   1      33.106  19.361 -21.852  0.00  0.00     0.020 A 
ATOM     13  C   UNL d   1      33.237  19.040 -22.640  0.00  0.00     0.002 A 
ATOM     14  C   UNL d   1      33.235  19.342 -23.321  0.00  0.00     0.002 A 
ATOM     15  C   UNL d   1      33.089  20.152 -23.504  0.00  0.00     0.020 A 
ATOM     16  C   UNL d   1      32.912  20.791 -22.909  0.00  0.00     0.092 A 
ENDBRANCH   7  10
ENDBRANCH   1   7
BRANCH   2  17
ATOM     17  C   UNL d   1      32.640  23.166 -19.373  0.00  0.00     0.281 C 
ATOM     18  N   UNL d   1      32.236  22.788 -18.759  0.00  0.00    -0.187 NA
ATOM     19  O   UNL d   1      33.241  23.702 -19.222  0.00  0.00    -0.265 OA
BRANCH  18  20
ATOM     20  C   UNL d   1      32.446  22.957 -17.984  0.00  0.00     0.194 A 
ATOM     21  N   UNL d   1      33.016  22.564 -17.533  0.00  0.00    -0.106 NA
ATOM     22  O   UNL d   1      33.042  22.917 -16.792  0.00  0.00    -0.207 OA
ATOM     23  C   UNL d   1      32.487  23.532 -16.781  0.00  0.00     0.153 A 
ATOM     24  C   UNL d   1      32.121  23.557 -17.511  0.00  0.00     0.070 A 
ENDBRANCH  18  20
ENDBRANCH   2  17
TORSDOF 4
ENDMDL
MODEL 4
REMARK VINA RESULT:      -1.2      1.931      2.852
REMARK  4 active torsions:
REMARK  status: ('A' for Active; 'I' for Inactive)
REMARK    1  A    between atoms: N_2  and  S_1 
REMARK    2  A    between atoms: C_4  and  S_1 
REMARK    3  A    between atoms: C_3  and  C_9 
REMARK       I    between atoms: N_5  and  C_3 
REMARK    4  A    between atoms: C_6  and  N_5 
ROOT
ATOM      1  C   UNL d   1      32.900  19.036 -22.864  0.00  0.00     0.104 A 
ATOM      2  C   UNL d   1      33.072  20.419 -22.550  0.00  0.00     0.059 A 
ATOM      3  C   UNL d   1      32.901  19.832 -23.099  0.00  0.00     0.018 A 
ATOM      4  C   UNL d   1      33.069  18.836 -22.084  0.00  0.00     0.013 A 
ATOM      5  C   UNL d   1      33.241  20.219 -21.769  0.00  0.00     0.005 A 
ATOM      6  C   UNL d   1      33.239  19.420 -21.535  0.00  0.00     0.001 A 
ENDROOT
BRANCH   1   7
ATOM      7  S   UNL d   1      32.730  18.454 -23.412  0.00  0.00     0.271 S 
ATOM      8  O   UNL d   1      32.683  18.056 -22.714  0.00  0.00    -0.200 OA
ATOM      9  O   UNL d   1      32.768  18.823 -24.152  0.00  0.00    -0.200 OA
BRANCH   7  10
ATOM     10  N   UNL d   1      32.550  17.808 -23.885  0.00  0.00    -0.229 N 
ATOM     11  C   UNL d   1      31.744  17.575 -23.924  0.00  0.00     0.092 A 
ATOM     12  C   UNL d   1      31.480  17.019 -24.311  0.00  0.00     0.020 A 
ATOM     13  C   UNL d   1      31.819  16.426 -24.834  0.00  0.00     0.002 A 
ATOM     14  C   UNL d   1      32.513  16.287 -25.066  0.00  0.00     0.002 A 
ATOM     15  C   UNL d   1      33.204  16.719 -24.850  0.00  0.00     0.020 A 
ATOM     16  C   UNL d   1      33.222  17.423 -24.304  0.00  0.00     0.092 A 
ENDBRANCH   7  10
ENDBRANCH   1   7
BRANCH   2  17
ATOM     17  C   UNL d   1      33.074  21.214 -22.785  0.00  0.00     0.281 C 
ATOM     18  N   UNL d   1      33.184  21.400 -23.582  0.00  0.00    -0.187 NA
ATOM     19  O   UNL d   1      32.966  21.800 -22.222  0.00  0.00    -0.265 OA
BRANCH  18  20
ATOM     20  C   UNL d   1      33.184  22.188 -23.809  0.00  0.00     0.194 A 
ATOM     21  N   UNL d   1      33.130  22.843 -23.308  0.00  0.00    -0.106 NA
ATOM     22  O   UNL d   1      33.152  23.520 -23.771  0.00  0.00    -0.207 OA
ATOM     23  C   UNL d   1      33.221  23.287 -24.563  0.00  0.00     0.153 A 
ATOM     24  C   UNL d   1      33.241  22.471 -24.587  0.00  0.00     0.070 A 
ENDBRANCH  18  20
ENDBRANCH   2  17
TORSDOF 4
ENDMDL
