MODEL 1
REMARK VINA RESULT:      -9.9      0.000      0.000
REMARK  1 active torsions:
REMARK  status: ('A' for Active; 'I' for Inactive)
REMARK    1  A    between atoms: C_2  and  C_1 
REMARK       I    between atoms: N_6  and  C_2 
ROOT
ATOM      1  C   UNL d   1      53.154  32.420  53.474  0.00  0.00     0.057 A 
ATOM      2  C   UNL d   1      52.556  32.982  53.538  0.00  0.00     0.005 A 
ATOM      3  C   UNL d   1      52.674  33.661  54.007  0.00  0.00     0.001 A 
ATOM      4  C   UNL d   1      53.868  32.528  53.873  0.00  0.00     0.011 A 
ATOM      5  C   UNL d   1      53.388  33.765  54.402  0.00  0.00     0.006 A 
ATOM      6  C   UNL d   1      53.986  33.204  54.339  0.00  0.00     0.035 A 
ATOM      7 BR   UNL d   1      54.699  33.308  54.734  0.00  0.00    -0.049 Br
ATOM      8  C   UNL d   1      51.795  33.064  53.234  0.00  0.00     0.000 C 
ATOM      9  C   UNL d   1      51.973  34.087  53.940  0.00  0.00     0.000 C 
ATOM     10  C   UNL d   1      53.507  34.439  54.868  0.00  0.00     0.001 C 
ENDROOT
BRANCH   1  11
ATOM     11  C   UNL d   1      53.039  31.746  53.010  0.00  0.00     0.265 C 
ATOM     12  N   UNL d   1      53.091  30.996  53.351  0.00  0.00    -0.272 N 
ATOM     13  C   UNL d   1      53.253  30.833  54.140  0.00  0.00     0.083 A 
ATOM     14  C   UNL d   1      52.990  30.277  52.958  0.00  0.00     0.083 A 
ATOM     15  C   UNL d   1      53.252  30.016  54.240  0.00  0.00     0.021 A 
ATOM     16  C   UNL d   1      53.090  29.671  53.508  0.00  0.00     0.021 A 
ATOM     17  O   UNL d   1      52.873  31.822  52.207  0.00  0.00    -0.267 OA
ENDBRANCH   1  11
TORSDOF 1
ENDMDL
MODEL 2
REMARK VINA RESULT:      -9.7      1.582      2.901
REMARK  1 active torsions:
REMARK  status: ('A' for Active; 'I' for Inactive)
REMARK    1  A    between atoms: C_2  and  C_1 
REMARK       I    between atoms: N_6  and  C_2 
ROOT
ATOM      1  C   UNL d   1      53.873  32.156  53.510  0.00  0.00     0.057 A 
ATOM      2  C   UNL d   1      53.149  32.352  53.171  0.00  0.00     0.005 A 
ATOM      3  C   UNL d   1      52.581  31.758  53.032  0.00  0.00     0.001 A 
ATOM      4  C   UNL d   1      54.036  31.372  53.711  0.00  0.00     0.011 A 
ATOM      5  C   UNL d   1      52.749  30.978  53.234  0.00  0.00     0.006 A 
ATOM      6  C   UNL d   1      53.472  30.781  53.573  0.00  0.00     0.035 A 
ATOM      7 BR   UNL d   1      53.639  30.002  53.775  0.00  0.00    -0.049 Br
ATOM      8  C   UNL d   1      52.797  33.047  52.904  0.00  0.00     0.000 C 
ATOM      9  C   UNL d   1      51.942  32.152  52.695  0.00  0.00     0.000 C 
ATOM     10  C   UNL d   1      52.186  30.387  53.096  0.00  0.00     0.001 C 
ENDROOT
BRANCH   1  11
ATOM     11  C   UNL d   1      54.437  32.743  53.649  0.00  0.00     0.265 C 
ATOM     12  N   UNL d   1      54.555  33.029  54.414  0.00  0.00    -0.272 N 
ATOM     13  C   UNL d   1      54.156  32.784  55.089  0.00  0.00     0.083 A 
ATOM     14  C   UNL d   1      55.096  33.612  54.635  0.00  0.00     0.083 A 
ATOM     15  C   UNL d   1      54.447  33.212  55.730  0.00  0.00     0.021 A 
ATOM     16  C   UNL d   1      55.029  33.725  55.448  0.00  0.00     0.021 A 
ATOM     17  O   UNL d   1      54.880  33.044  53.024  0.00  0.00    -0.267 OA
ENDBRANCH   1  11
TORSDOF 1
ENDMDL
MODEL 3
REMARK VINA RESULT:      -9.6      1.884      2.869
REMARK  1 active torsions:
REMARK  status: ('A' for Active; 'I' for Inactive)
REMARK    1  A    between atoms: C_2  and  C_1 
REMARK       I    between atoms: N_6  and  C_2 
ROOT
ATOM      1  C   UNL d   1      52.906  33.949  53.504  0.00  0.00     0.057 A 
ATOM      2  C   UNL d   1      53.177  34.366  54.160  0.00  0.00     0.005 A 
ATOM      3  C   UNL d   1      53.667  33.987  54.717  0.00  0.00     0.001 A 
ATOM      4  C   UNL d   1      53.118  33.158  53.399  0.00  0.00     0.011 A 
ATOM      5  C   UNL d   1      53.876  33.199  54.609  0.00  0.00     0.006 A 
ATOM      6  C   UNL d   1      53.605  32.782  53.954  0.00  0.00     0.035 A 
ATOM      7 BR   UNL d   1      53.814  31.994  53.846  0.00  0.00    -0.049 Br
ATOM      8  C   UNL d   1      53.087  35.134  54.443  0.00  0.00     0.000 C 
ATOM      9  C   UNL d   1      53.825  34.564  55.284  0.00  0.00     0.000 C 
ATOM     10  C   UNL d   1      54.363  32.822  55.162  0.00  0.00     0.001 C 
ENDROOT
BRANCH   1  11
ATOM     11  C   UNL d   1      52.420  34.322  52.949  0.00  0.00     0.265 C 
ATOM     12  N   UNL d   1      51.623  34.114  52.893  0.00  0.00    -0.272 N 
ATOM     13  C   UNL d   1      51.237  33.550  53.347  0.00  0.00     0.083 A 
ATOM     14  C   UNL d   1      51.074  34.439  52.368  0.00  0.00     0.083 A 
ATOM     15  C   UNL d   1      50.449  33.521  53.108  0.00  0.00     0.021 A 
ATOM     16  C   UNL d   1      50.349  34.071  52.501  0.00  0.00     0.021 A 
ATOM     17  O   UNL d   1      52.731  34.902  52.454  0.00  0.00    -0.267 OA
ENDBRANCH   1  11
TORSDOF 1
ENDMDL
MODEL 4
REMARK VINA RESULT:      -9.5      1.547      2.915
REMARK  1 active torsions:
REMARK  status: ('A' for Active; 'I' for Inactive)
REMARK    1  A    between atoms: C_2  and  C_1 
REMARK       I    between atoms: N_6  and  C_2 
ROOT
ATOM      1  C   UNL d   1      53.556  32.920  53.429  0.00  0.00     0.057 A 
ATOM      2  C   UNL d   1      53.240  32.166  53.328  0.00  0.00     0.005 A 
ATOM      3  C   UNL d   1      52.440  32.077  53.112  0.00  0.00     0.001 A 
ATOM      4  C   UNL d   1      53.082  33.585  53.316  0.00  0.00     0.011 A 
ATOM      5  C   UNL d   1      51.972  32.744  53.000  0.00  0.00     0.006 A 
ATOM      6  C   UNL d   1      52.286  33.497  53.101  0.00  0.00     0.035 A 
ATOM      7 BR   UNL d   1      51.817  34.163  52.989  0.00  0.00    -0.049 Br
ATOM      8  C   UNL d   1      53.530  31.397  53.389  0.00  0.00     0.000 C 
ATOM      9  C   UNL d   1      52.325  31.264  53.064  0.00  0.00     0.000 C 
ATOM     10  C   UNL d   1      51.177  32.658  52.786  0.00  0.00     0.001 C 
ENDROOT
BRANCH   1  11
ATOM     11  C   UNL d   1      54.349  33.009  53.643  0.00  0.00     0.265 C 
ATOM     12  N   UNL d   1      54.544  33.319  54.383  0.00  0.00    -0.272 N 
ATOM     13  C   UNL d   1      54.013  33.561  54.962  0.00  0.00     0.083 A 
ATOM     14  C   UNL d   1      55.308  33.440  54.671  0.00  0.00     0.083 A 
ATOM     15  C   UNL d   1      54.443  33.832  55.609  0.00  0.00     0.021 A 
ATOM     16  C   UNL d   1      55.246  33.757  55.430  0.00  0.00     0.021 A 
ATOM     17  O   UNL d   1      54.945  32.790  53.119  0.00  0.00    -0.267 OA
ENDBRANCH   1  11
TORSDOF 1
ENDMDL
