MODEL 1
REMARK VINA RESULT:      73.0      0.000      0.000
REMARK  5 active torsions:
REMARK  status: ('A' for Active; 'I' for Inactive)
REMARK    1  A    between atoms: C_5  and  N_1 
REMARK    2  A    between atoms: C_12  and  C_2 
REMARK    3  A    between atoms: S_18  and  C_3 
REMARK    4  A    between atoms: C_9  and  C_12 
REMARK    5  A    between atoms: C_23  and  S_18 
ROOT
ATOM      1  N   UNL d   1     -51.331  26.011  34.592  0.00  0.00    -0.269 N 
ATOM      2  C   UNL d   1     -51.417  26.245  35.375  0.00  0.00     0.172 A 
ATOM      3  C   UNL d   1     -50.692  26.408  34.288  0.00  0.00     0.201 A 
ATOM      4  N   UNL d   1     -50.826  26.785  35.541  0.00  0.00    -0.128 NA
ATOM      5  N   UNL d   1     -50.373  26.886  34.860  0.00  0.00    -0.121 NA
ENDROOT
BRANCH   2   6
ATOM      6  C   UNL d   1     -52.017  25.937  35.827  0.00  0.00     0.059 C 
BRANCH   6   7
ATOM      7  C   UNL d   1     -51.999  26.031  36.643  0.00  0.00     0.094 A 
ATOM      8  C   UNL d   1     -51.425  26.503  36.990  0.00  0.00     0.082 A 
ATOM      9  C   UNL d   1     -51.409  26.596  37.810  0.00  0.00     0.285 A 
ATOM     10  O   UNL d   1     -50.821  27.080  38.171  0.00  0.00    -0.265 OA
ATOM     11  N   UNL d   1     -51.980  26.206  38.275  0.00  0.00    -0.152 NA
ATOM     12  C   UNL d   1     -52.549  25.738  37.927  0.00  0.00     0.371 A 
ATOM     13  N   UNL d   1     -52.559  25.649  37.101  0.00  0.00    -0.191 NA
ATOM     14  O   UNL d   1     -53.110  25.356  38.398  0.00  0.00    -0.242 OA
ENDBRANCH   6   7
ENDBRANCH   2   6
BRANCH   1  15
ATOM     15  C   UNL d   1     -51.786  25.480  34.166  0.00  0.00     0.067 A 
ATOM     16  C   UNL d   1     -52.435  25.749  33.735  0.00  0.00     0.016 A 
ATOM     17  C   UNL d   1     -52.892  25.215  33.307  0.00  0.00     0.001 A 
ATOM     18  C   UNL d   1     -52.626  26.557  33.734  0.00  0.00     0.002 C 
ATOM     19  C   UNL d   1     -52.704  24.410  33.307  0.00  0.00     0.000 A 
ATOM     20  C   UNL d   1     -52.048  24.136  33.742  0.00  0.00     0.001 A 
ATOM     21  C   UNL d   1     -51.595  24.678  34.169  0.00  0.00     0.018 A 
ATOM     22  C   UNL d   1     -51.848  23.334  33.751  0.00  0.00     0.000 C 
ENDBRANCH   1  15
BRANCH   3  23
ATOM     23  S   UNL d   1     -50.410  26.329  33.498  0.00  0.00    -0.048 SA
BRANCH  23  24
ATOM     24  C   UNL d   1     -49.646  26.604  33.307  0.00  0.00     0.038 C 
ATOM     25  C   UNL d   1     -49.009  26.078  33.318  0.00  0.00     0.008 C 
ENDBRANCH  23  24
ENDBRANCH   3  23
TORSDOF 5
ENDMDL
