MODEL 1
REMARK VINA RESULT:      -2.4      0.000      0.000
REMARK  6 active torsions:
REMARK  status: ('A' for Active; 'I' for Inactive)
REMARK    1  A    between atoms: C_2  and  C_1 
REMARK       I    between atoms: N_6  and  C_1 
REMARK    2  A    between atoms: O_15  and  C_3 
REMARK    3  A    between atoms: O_17  and  C_4 
REMARK    4  A    between atoms: O_16  and  C_5 
REMARK    5  A    between atoms: C_12  and  N_6 
REMARK    6  A    between atoms: N_11  and  C_9 
ROOT
ATOM      1  C   UNL d   1      32.288  17.790 -24.176  0.00  0.00     0.074 A 
ATOM      2  C   UNL d   1      31.268  16.501 -24.087  0.00  0.00     0.138 A 
ATOM      3  C   UNL d   1      30.977  17.243 -24.272  0.00  0.00     0.118 A 
ATOM      4  C   UNL d   1      32.070  16.408 -23.947  0.00  0.00     0.118 A 
ATOM      5  C   UNL d   1      31.474  17.891 -24.319  0.00  0.00     0.032 A 
ATOM      6  C   UNL d   1      32.594  17.046 -23.988  0.00  0.00     0.032 A 
ENDROOT
BRANCH   1   7
ATOM      7  C   UNL d   1      32.799  18.436 -24.221  0.00  0.00     0.328 C 
ATOM      8  N   UNL d   1      32.865  18.943 -23.581  0.00  0.00    -0.365 NA
ATOM      9  O   UNL d   1      33.240  18.569 -24.906  0.00  0.00    -0.251 OA
BRANCH   8  10
ATOM     10  C   UNL d   1      32.938  19.456 -22.943  0.00  0.00     0.135 A 
ATOM     11  C   UNL d   1      32.779  20.266 -23.031  0.00  0.00     0.034 A 
ATOM     12  C   UNL d   1      32.851  20.780 -22.392  0.00  0.00     0.020 A 
ATOM     13  C   UNL d   1      33.082  20.491 -21.662  0.00  0.00     0.064 A 
ATOM     14  C   UNL d   1      33.241  19.687 -21.566  0.00  0.00     0.020 A 
ATOM     15  C   UNL d   1      33.168  19.168 -22.213  0.00  0.00     0.034 A 
BRANCH  13  16
ATOM     16  N   UNL d   1      33.155  21.007 -21.018  0.00  0.00    -0.301 N 
ATOM     17  C   UNL d   1      33.226  21.821 -21.150  0.00  0.00     0.100 C 
ATOM     18  C   UNL d   1      33.156  20.705 -20.239  0.00  0.00     0.100 C 
ENDBRANCH  13  16
ENDBRANCH   8  10
ENDBRANCH   1   7
BRANCH   3  19
ATOM     19  O   UNL d   1      30.168  17.341 -24.414  0.00  0.00    -0.326 OA
ATOM     20  C   UNL d   1      29.914  17.844 -25.036  0.00  0.00     0.181 C 
ENDBRANCH   3  19
BRANCH   4  21
ATOM     21  O   UNL d   1      32.367  15.651 -23.758  0.00  0.00    -0.326 OA
ATOM     22  C   UNL d   1      33.188  15.513 -23.774  0.00  0.00     0.181 C 
ENDBRANCH   4  21
BRANCH   2  23
ATOM     23  O   UNL d   1      30.757  15.855 -24.042  0.00  0.00    -0.324 OA
ATOM     24  C   UNL d   1      30.514  15.561 -23.313  0.00  0.00     0.182 C 
ENDBRANCH   2  23
TORSDOF 6
ENDMDL
