MODEL 1
REMARK VINA RESULT:      71.3      0.000      0.000
REMARK  4 active torsions:
REMARK  status: ('A' for Active; 'I' for Inactive)
REMARK    1  A    between atoms: C_11  and  C_3 
REMARK    2  A    between atoms: N_10  and  C_4 
REMARK    3  A    between atoms: C_15  and  N_10 
REMARK    4  A    between atoms: C_16  and  C_15 
ROOT
ATOM      1  C   UNL d   1      58.944  49.536  51.742  0.00  0.00     0.167 A 
ATOM      2  N   UNL d   1      58.147  49.578  51.452  0.00  0.00    -0.195 N 
ATOM      3  C   UNL d   1      59.560  49.457  51.221  0.00  0.00     0.057 A 
ATOM      4  C   UNL d   1      57.545  49.656  51.982  0.00  0.00     0.167 A 
ATOM      5  N   UNL d   1      58.636  49.460  50.125  0.00  0.00    -0.161 NA
ATOM      6  N   UNL d   1      59.087  49.574  52.541  0.00  0.00    -0.227 NA
ATOM      7  C   UNL d   1      57.680  49.696  52.793  0.00  0.00     0.058 A 
ATOM      8  C   UNL d   1      59.409  49.419  50.405  0.00  0.00     0.124 A 
ATOM      9  C   UNL d   1      58.465  49.654  53.078  0.00  0.00     0.086 A 
ATOM     10  C   UNL d   1      58.616  49.694  53.922  0.00  0.00     0.021 C 
ENDROOT
BRANCH   4  11
ATOM     11  N   UNL d   1      56.738  49.700  51.694  0.00  0.00    -0.224 NA
BRANCH  11  12
ATOM     12  C   UNL d   1      56.113  49.213  51.365  0.00  0.00     0.120 C 
BRANCH  12  13
ATOM     13  C   UNL d   1      56.178  48.917  50.564  0.00  0.00     0.101 A 
ATOM     14  N   UNL d   1      56.279  48.070  50.437  0.00  0.00    -0.242 NA
ATOM     15  C   UNL d   1      56.344  47.775  49.635  0.00  0.00     0.099 A 
ATOM     16  C   UNL d   1      56.308  48.317  48.970  0.00  0.00     0.021 A 
ATOM     17  C   UNL d   1      56.207  49.155  49.105  0.00  0.00     0.003 A 
ATOM     18  C   UNL d   1      56.143  49.452  49.907  0.00  0.00     0.021 A 
ENDBRANCH  12  13
ENDBRANCH  11  12
ENDBRANCH   4  11
BRANCH   3  19
ATOM     19  C   UNL d   1      60.333  49.416  51.502  0.00  0.00     0.005 A 
ATOM     20  C   UNL d   1      60.479  49.118  52.244  0.00  0.00     0.001 A 
ATOM     21  C   UNL d   1      61.252  49.077  52.524  0.00  0.00     0.011 A 
ATOM     22  C   UNL d   1      61.866  49.334  52.058  0.00  0.00     0.058 A 
ATOM     23  C   UNL d   1      61.709  49.632  51.310  0.00  0.00     0.011 A 
ATOM     24 CL   UNL d   1      62.676  49.290  52.352  0.00  0.00    -0.082 Cl
ATOM     25  C   UNL d   1      60.948  49.673  51.035  0.00  0.00     0.001 A 
ENDBRANCH   3  19
TORSDOF 4
ENDMDL
