MODEL 1
REMARK VINA RESULT:      -4.9      0.000      0.000
REMARK  5 active torsions:
REMARK  status: ('A' for Active; 'I' for Inactive)
REMARK    1  A    between atoms: C_2  and  S_1 
REMARK    2  A    between atoms: C_9  and  S_1 
REMARK    3  A    between atoms: N_5  and  C_3 
REMARK    4  A    between atoms: O_28  and  C_23 
REMARK    5  A    between atoms: O_29  and  C_24 
ROOT
ATOM      1  C   UNL d   1     -38.544  14.521  18.914  0.00  0.00     0.123 A 
ATOM      2  C   UNL d   1     -39.263  14.847  18.678  0.00  0.00     0.078 A 
ATOM      3  C   UNL d   1     -39.377  15.058  17.890  0.00  0.00     0.036 A 
ATOM      4  C   UNL d   1     -37.941  14.406  18.364  0.00  0.00     0.112 A 
ATOM      5  N   UNL d   1     -38.056  14.617  17.577  0.00  0.00    -0.243 NA
ATOM      6  C   UNL d   1     -38.774  14.943  17.340  0.00  0.00     0.083 A 
ATOM      7  C   UNL d   1     -40.095  15.384  17.654  0.00  0.00     0.027 A 
ATOM      8  C   UNL d   1     -38.888  15.154  16.553  0.00  0.00     0.021 A 
ATOM      9  C   UNL d   1     -40.210  15.595  16.866  0.00  0.00     0.094 A 
ATOM     10  C   UNL d   1     -39.606  15.480  16.315  0.00  0.00     0.026 A 
ENDROOT
BRANCH   1  11
ATOM     11  S   UNL d   1     -38.423  14.305  19.711  0.00  0.00     0.213 S 
ATOM     12  O   UNL d   1     -38.723  13.543  19.551  0.00  0.00    -0.217 OA
ATOM     13  O   UNL d   1     -38.125  15.063  19.870  0.00  0.00    -0.217 OA
BRANCH  11  14
ATOM     14  C   UNL d   1     -38.302  14.088  20.507  0.00  0.00     0.088 A 
ATOM     15  C   UNL d   1     -38.105  14.668  21.062  0.00  0.00     0.013 A 
ATOM     16  C   UNL d   1     -37.985  14.459  21.850  0.00  0.00     0.025 A 
ATOM     17  C   UNL d   1     -38.061  13.662  22.089  0.00  0.00     0.094 A 
ATOM     18  C   UNL d   1     -38.259  13.086  21.520  0.00  0.00     0.025 A 
ATOM     19  C   UNL d   1     -38.378  13.300  20.738  0.00  0.00     0.013 A 
BRANCH  17  20
ATOM     20  O   UNL d   1     -37.940  13.449  22.882  0.00  0.00    -0.328 OA
ATOM     21  C   UNL d   1     -38.581  13.388  23.398  0.00  0.00     0.181 C 
ENDBRANCH  17  20
ENDBRANCH  11  14
ENDBRANCH   1  11
BRANCH   2  22
ATOM     22  N   UNL d   1     -39.866  14.961  19.229  0.00  0.00    -0.303 N 
ATOM     23  C   UNL d   1     -40.403  14.356  19.385  0.00  0.00     0.081 A 
ATOM     24  C   UNL d   1     -41.013  14.472  19.941  0.00  0.00     0.053 A 
ATOM     25  C   UNL d   1     -41.079  15.192  20.336  0.00  0.00     0.239 A 
ATOM     26  C   UNL d   1     -40.539  15.808  20.183  0.00  0.00     0.053 A 
ATOM     27  O   UNL d   1     -41.216  15.887  20.778  0.00  0.00    -0.298 OA
ATOM     28  O   UNL d   1     -41.654  14.643  20.550  0.00  0.00    -0.298 OA
ATOM     29  C   UNL d   1     -39.929  15.692  19.627  0.00  0.00     0.081 A 
ATOM     30  C   UNL d   1     -41.879  15.752  21.259  0.00  0.00     0.146 A 
ATOM     31  C   UNL d   1     -42.148  14.985  21.118  0.00  0.00     0.146 A 
ENDBRANCH   2  22
BRANCH   9  32
ATOM     32  O   UNL d   1     -40.934  15.922  16.635  0.00  0.00    -0.328 OA
ATOM     33  C   UNL d   1     -41.378  15.551  16.045  0.00  0.00     0.181 C 
ENDBRANCH   9  32
TORSDOF 5
ENDMDL
MODEL 2
REMARK VINA RESULT:      -3.7      7.023      9.533
REMARK  5 active torsions:
REMARK  status: ('A' for Active; 'I' for Inactive)
REMARK    1  A    between atoms: C_2  and  S_1 
REMARK    2  A    between atoms: C_9  and  S_1 
REMARK    3  A    between atoms: N_5  and  C_3 
REMARK    4  A    between atoms: O_28  and  C_23 
REMARK    5  A    between atoms: O_29  and  C_24 
ROOT
ATOM      1  C   UNL d   1     -46.640  13.714  22.387  0.00  0.00     0.123 A 
ATOM      2  C   UNL d   1     -46.612  12.915  22.582  0.00  0.00     0.078 A 
ATOM      3  C   UNL d   1     -45.883  12.536  22.649  0.00  0.00     0.036 A 
ATOM      4  C   UNL d   1     -45.942  14.134  22.260  0.00  0.00     0.112 A 
ATOM      5  N   UNL d   1     -45.215  13.756  22.326  0.00  0.00    -0.243 NA
ATOM      6  C   UNL d   1     -45.185  12.956  22.521  0.00  0.00     0.083 A 
ATOM      7  C   UNL d   1     -45.854  11.736  22.843  0.00  0.00     0.027 A 
ATOM      8  C   UNL d   1     -44.458  12.577  22.588  0.00  0.00     0.021 A 
ATOM      9  C   UNL d   1     -45.126  11.357  22.910  0.00  0.00     0.094 A 
ATOM     10  C   UNL d   1     -44.427  11.778  22.783  0.00  0.00     0.026 A 
ENDROOT
BRANCH   1  11
ATOM     11  S   UNL d   1     -47.375  14.103  22.318  0.00  0.00     0.213 S 
ATOM     12  O   UNL d   1     -47.454  13.817  21.538  0.00  0.00    -0.217 OA
ATOM     13  O   UNL d   1     -47.296  14.387  23.094  0.00  0.00    -0.217 OA
BRANCH  11  14
ATOM     14  C   UNL d   1     -48.110  14.491  22.248  0.00  0.00     0.088 A 
ATOM     15  C   UNL d   1     -48.389  14.951  22.875  0.00  0.00     0.013 A 
ATOM     16  C   UNL d   1     -49.114  15.337  22.811  0.00  0.00     0.025 A 
ATOM     17  C   UNL d   1     -49.568  15.264  22.113  0.00  0.00     0.094 A 
ATOM     18  C   UNL d   1     -49.275  14.798  21.488  0.00  0.00     0.025 A 
ATOM     19  C   UNL d   1     -48.554  14.416  21.557  0.00  0.00     0.013 A 
BRANCH  17  20
ATOM     20  O   UNL d   1     -50.299  15.652  22.046  0.00  0.00    -0.328 OA
ATOM     21  C   UNL d   1     -50.990  15.217  21.929  0.00  0.00     0.181 C 
ENDBRANCH  17  20
ENDBRANCH  11  14
ENDBRANCH   1  11
BRANCH   2  22
ATOM     22  N   UNL d   1     -47.310  12.494  22.710  0.00  0.00    -0.303 N 
ATOM     23  C   UNL d   1     -47.613  12.420  23.472  0.00  0.00     0.081 A 
ATOM     24  C   UNL d   1     -48.318  11.995  23.601  0.00  0.00     0.053 A 
ATOM     25  C   UNL d   1     -48.713  11.649  22.966  0.00  0.00     0.239 A 
ATOM     26  C   UNL d   1     -48.411  11.721  22.192  0.00  0.00     0.053 A 
ATOM     27  O   UNL d   1     -49.173  11.270  22.381  0.00  0.00    -0.298 OA
ATOM     28  O   UNL d   1     -49.083  11.527  23.691  0.00  0.00    -0.298 OA
ATOM     29  C   UNL d   1     -47.706  12.146  22.063  0.00  0.00     0.081 A 
ATOM     30  C   UNL d   1     -49.822  10.919  22.761  0.00  0.00     0.146 A 
ATOM     31  C   UNL d   1     -49.765  11.078  23.568  0.00  0.00     0.146 A 
ENDBRANCH   2  22
BRANCH   9  32
ATOM     32  O   UNL d   1     -45.103  10.554  23.106  0.00  0.00    -0.328 OA
ATOM     33  C   UNL d   1     -44.386  10.209  23.330  0.00  0.00     0.181 C 
ENDBRANCH   9  32
TORSDOF 5
ENDMDL
MODEL 3
REMARK VINA RESULT:      -2.9      7.257      9.832
REMARK  5 active torsions:
REMARK  status: ('A' for Active; 'I' for Inactive)
REMARK    1  A    between atoms: C_2  and  S_1 
REMARK    2  A    between atoms: C_9  and  S_1 
REMARK    3  A    between atoms: N_5  and  C_3 
REMARK    4  A    between atoms: O_28  and  C_23 
REMARK    5  A    between atoms: O_29  and  C_24 
ROOT
ATOM      1  C   UNL d   1     -47.832  11.464  23.102  0.00  0.00     0.123 A 
ATOM      2  C   UNL d   1     -47.069  11.772  23.110  0.00  0.00     0.078 A 
ATOM      3  C   UNL d   1     -46.433  11.287  23.306  0.00  0.00     0.036 A 
ATOM      4  C   UNL d   1     -47.960  10.671  23.291  0.00  0.00     0.112 A 
ATOM      5  N   UNL d   1     -47.325  10.187  23.487  0.00  0.00    -0.243 NA
ATOM      6  C   UNL d   1     -46.561  10.494  23.495  0.00  0.00     0.083 A 
ATOM      7  C   UNL d   1     -45.670  11.595  23.313  0.00  0.00     0.027 A 
ATOM      8  C   UNL d   1     -45.926  10.009  23.690  0.00  0.00     0.021 A 
ATOM      9  C   UNL d   1     -45.034  11.109  23.509  0.00  0.00     0.094 A 
ATOM     10  C   UNL d   1     -45.162  10.316  23.698  0.00  0.00     0.026 A 
ENDROOT
BRANCH   1  11
ATOM     11  S   UNL d   1     -48.480  11.951  22.905  0.00  0.00     0.213 S 
ATOM     12  O   UNL d   1     -48.416  11.712  22.108  0.00  0.00    -0.217 OA
ATOM     13  O   UNL d   1     -48.542  12.189  23.698  0.00  0.00    -0.217 OA
BRANCH  11  14
ATOM     14  C   UNL d   1     -49.127  12.438  22.706  0.00  0.00     0.088 A 
ATOM     15  C   UNL d   1     -49.532  12.842  23.302  0.00  0.00     0.013 A 
ATOM     16  C   UNL d   1     -50.172  13.324  23.111  0.00  0.00     0.025 A 
ATOM     17  C   UNL d   1     -50.413  13.405  22.315  0.00  0.00     0.094 A 
ATOM     18  C   UNL d   1     -49.997  12.992  21.723  0.00  0.00     0.025 A 
ATOM     19  C   UNL d   1     -49.362  12.515  21.918  0.00  0.00     0.013 A 
BRANCH  17  20
ATOM     20  O   UNL d   1     -51.058  13.891  22.120  0.00  0.00    -0.328 OA
ATOM     21  C   UNL d   1     -50.941  14.692  21.962  0.00  0.00     0.181 C 
ENDBRANCH  17  20
ENDBRANCH  11  14
ENDBRANCH   1  11
BRANCH   2  22
ATOM     22  N   UNL d   1     -46.941  12.565  22.921  0.00  0.00    -0.303 N 
ATOM     23  C   UNL d   1     -46.932  13.135  23.516  0.00  0.00     0.081 A 
ATOM     24  C   UNL d   1     -46.803  13.936  23.325  0.00  0.00     0.053 A 
ATOM     25  C   UNL d   1     -46.683  14.159  22.542  0.00  0.00     0.239 A 
ATOM     26  C   UNL d   1     -46.691  13.587  21.935  0.00  0.00     0.053 A 
ATOM     27  O   UNL d   1     -46.555  14.468  21.776  0.00  0.00    -0.298 OA
ATOM     28  O   UNL d   1     -46.659  14.788  23.071  0.00  0.00    -0.298 OA
ATOM     29  C   UNL d   1     -46.821  12.786  22.125  0.00  0.00     0.081 A 
ATOM     30  C   UNL d   1     -46.453  15.288  21.851  0.00  0.00     0.146 A 
ATOM     31  C   UNL d   1     -46.518  15.484  22.650  0.00  0.00     0.146 A 
ENDBRANCH   2  22
BRANCH   9  32
ATOM     32  O   UNL d   1     -44.269  11.425  23.515  0.00  0.00    -0.328 OA
ATOM     33  C   UNL d   1     -43.655  11.012  23.145  0.00  0.00     0.181 C 
ENDBRANCH   9  32
TORSDOF 5
ENDMDL
MODEL 4
REMARK VINA RESULT:      -2.4      1.443      4.359
REMARK  5 active torsions:
REMARK  status: ('A' for Active; 'I' for Inactive)
REMARK    1  A    between atoms: C_2  and  S_1 
REMARK    2  A    between atoms: C_9  and  S_1 
REMARK    3  A    between atoms: N_5  and  C_3 
REMARK    4  A    between atoms: O_28  and  C_23 
REMARK    5  A    between atoms: O_29  and  C_24 
ROOT
ATOM      1  C   UNL d   1     -39.459  15.169  20.026  0.00  0.00     0.123 A 
ATOM      2  C   UNL d   1     -39.704  14.778  20.707  0.00  0.00     0.078 A 
ATOM      3  C   UNL d   1     -39.197  14.726  21.355  0.00  0.00     0.036 A 
ATOM      4  C   UNL d   1     -38.708  15.510  19.992  0.00  0.00     0.112 A 
ATOM      5  N   UNL d   1     -38.203  15.458  20.638  0.00  0.00    -0.243 NA
ATOM      6  C   UNL d   1     -38.446  15.067  21.320  0.00  0.00     0.083 A 
ATOM      7  C   UNL d   1     -39.442  14.334  22.036  0.00  0.00     0.027 A 
ATOM      8  C   UNL d   1     -37.940  15.015  21.967  0.00  0.00     0.021 A 
ATOM      9  C   UNL d   1     -38.935  14.283  22.684  0.00  0.00     0.094 A 
ATOM     10  C   UNL d   1     -38.184  14.623  22.649  0.00  0.00     0.026 A 
ENDROOT
BRANCH   1  11
ATOM     11  S   UNL d   1     -39.968  15.225  19.367  0.00  0.00     0.213 S 
ATOM     12  O   UNL d   1     -39.629  14.533  19.047  0.00  0.00    -0.217 OA
ATOM     13  O   UNL d   1     -40.306  15.913  19.687  0.00  0.00    -0.217 OA
BRANCH  11  14
ATOM     14  C   UNL d   1     -40.477  15.279  18.709  0.00  0.00     0.088 A 
ATOM     15  C   UNL d   1     -40.397  14.743  18.086  0.00  0.00     0.013 A 
ATOM     16  C   UNL d   1     -40.896  14.792  17.433  0.00  0.00     0.025 A 
ATOM     17  C   UNL d   1     -41.485  15.384  17.400  0.00  0.00     0.094 A 
ATOM     18  C   UNL d   1     -41.556  15.919  18.034  0.00  0.00     0.025 A 
ATOM     19  C   UNL d   1     -41.057  15.866  18.680  0.00  0.00     0.013 A 
BRANCH  17  20
ATOM     20  O   UNL d   1     -41.990  15.436  16.743  0.00  0.00    -0.328 OA
ATOM     21  C   UNL d   1     -41.683  15.604  15.996  0.00  0.00     0.181 C 
ENDBRANCH  17  20
ENDBRANCH  11  14
ENDBRANCH   1  11
BRANCH   2  22
ATOM     22  N   UNL d   1     -40.455  14.437  20.742  0.00  0.00    -0.303 N 
ATOM     23  C   UNL d   1     -41.088  14.865  21.050  0.00  0.00     0.081 A 
ATOM     24  C   UNL d   1     -41.846  14.521  21.085  0.00  0.00     0.053 A 
ATOM     25  C   UNL d   1     -41.963  13.753  20.811  0.00  0.00     0.239 A 
ATOM     26  C   UNL d   1     -41.326  13.315  20.499  0.00  0.00     0.053 A 
ATOM     27  O   UNL d   1     -42.167  12.984  20.557  0.00  0.00    -0.298 OA
ATOM     28  O   UNL d   1     -42.647  14.107  21.102  0.00  0.00    -0.298 OA
ATOM     29  C   UNL d   1     -40.568  13.659  20.464  0.00  0.00     0.081 A 
ATOM     30  C   UNL d   1     -42.978  12.880  20.697  0.00  0.00     0.146 A 
ATOM     31  C   UNL d   1     -43.273  13.573  21.033  0.00  0.00     0.146 A 
ENDBRANCH   2  22
BRANCH   9  32
ATOM     32  O   UNL d   1     -39.187  13.888  23.365  0.00  0.00    -0.328 OA
ATOM     33  C   UNL d   1     -38.712  13.294  23.691  0.00  0.00     0.181 C 
ENDBRANCH   9  32
TORSDOF 5
ENDMDL
