MODEL 1
REMARK VINA RESULT:      -2.9      0.000      0.000
REMARK  3 active torsions:
REMARK  status: ('A' for Active; 'I' for Inactive)
REMARK       I    between atoms: C_4  and  N_1 
REMARK    1  A    between atoms: C_2  and  S_8 
REMARK    2  A    between atoms: C_10  and  C_4 
REMARK    3  A    between atoms: S_8  and  C_10 
ROOT
ATOM      1  N   UNL d   1      32.966  21.777 -21.411  0.00  0.00    -0.274 N 
ATOM      2  C   UNL d   1      32.938  22.299 -20.771  0.00  0.00     0.067 A 
ATOM      3  C   UNL d   1      33.089  20.952 -21.373  0.00  0.00     0.259 C 
ATOM      4  C   UNL d   1      32.851  22.217 -22.109  0.00  0.00     0.083 A 
ATOM      5  C   UNL d   1      32.806  23.058 -21.063  0.00  0.00     0.018 A 
ATOM      6  O   UNL d   1      33.199  20.575 -20.636  0.00  0.00    -0.267 OA
ATOM      7  C   UNL d   1      32.753  23.002 -21.884  0.00  0.00     0.021 A 
ATOM      8  C   UNL d   1      33.016  22.178 -19.959  0.00  0.00     0.018 A 
ATOM      9  C   UNL d   1      32.751  23.697 -20.554  0.00  0.00     0.002 A 
ATOM     10  C   UNL d   1      32.964  22.806 -19.442  0.00  0.00     0.002 A 
ATOM     11  C   UNL d   1      32.831  23.575 -19.729  0.00  0.00     0.000 A 
ENDROOT
BRANCH   3  12
ATOM     12  C   UNL d   1      33.104  20.495 -22.072  0.00  0.00     0.127 C 
BRANCH  12  13
ATOM     13  S   UNL d   1      33.241  19.685 -22.033  0.00  0.00    -0.069 SA
BRANCH  13  14
ATOM     14  C   UNL d   1      33.195  19.226 -22.723  0.00  0.00     0.140 A 
ATOM     15  N   UNL d   1      33.117  19.421 -23.528  0.00  0.00    -0.230 NA
ATOM     16  C   UNL d   1      33.102  18.714 -23.954  0.00  0.00     0.107 A 
ATOM     17  C   UNL d   1      33.168  18.087 -23.435  0.00  0.00     0.058 A 
ATOM     18  S   UNL d   1      33.226  18.394 -22.671  0.00  0.00    -0.059 SA
ENDBRANCH  13  14
ENDBRANCH  12  13
ENDBRANCH   3  12
TORSDOF 3
ENDMDL
MODEL 2
REMARK VINA RESULT:      -2.7      1.796      5.280
REMARK  3 active torsions:
REMARK  status: ('A' for Active; 'I' for Inactive)
REMARK       I    between atoms: C_4  and  N_1 
REMARK    1  A    between atoms: C_2  and  S_8 
REMARK    2  A    between atoms: C_10  and  C_4 
REMARK    3  A    between atoms: S_8  and  C_10 
ROOT
ATOM      1  N   UNL d   1      32.353  17.869 -23.633  0.00  0.00    -0.274 N 
ATOM      2  C   UNL d   1      32.259  17.066 -23.804  0.00  0.00     0.067 A 
ATOM      3  C   UNL d   1      32.812  18.193 -23.015  0.00  0.00     0.259 C 
ATOM      4  C   UNL d   1      31.909  18.305 -24.186  0.00  0.00     0.083 A 
ATOM      5  C   UNL d   1      31.761  16.999 -24.458  0.00  0.00     0.018 A 
ATOM      6  O   UNL d   1      33.234  17.694 -22.495  0.00  0.00    -0.267 OA
ATOM      7  C   UNL d   1      31.549  17.761 -24.688  0.00  0.00     0.021 A 
ATOM      8  C   UNL d   1      32.564  16.388 -23.448  0.00  0.00     0.018 A 
ATOM      9  C   UNL d   1      31.565  16.263 -24.758  0.00  0.00     0.002 A 
ATOM     10  C   UNL d   1      32.377  15.649 -23.737  0.00  0.00     0.002 A 
ATOM     11  C   UNL d   1      31.875  15.573 -24.396  0.00  0.00     0.000 A 
ENDROOT
BRANCH   3  12
ATOM     12  C   UNL d   1      32.853  19.021 -22.911  0.00  0.00     0.127 C 
BRANCH  12  13
ATOM     13  S   UNL d   1      33.240  19.336 -22.256  0.00  0.00    -0.069 SA
BRANCH  13  14
ATOM     14  C   UNL d   1      33.215  20.154 -22.118  0.00  0.00     0.140 A 
ATOM     15  N   UNL d   1      33.236  20.814 -22.624  0.00  0.00    -0.230 NA
ATOM     16  C   UNL d   1      33.192  21.489 -22.151  0.00  0.00     0.107 A 
ATOM     17  C   UNL d   1      33.144  21.266 -21.367  0.00  0.00     0.058 A 
ATOM     18  S   UNL d   1      33.158  20.441 -21.337  0.00  0.00    -0.059 SA
ENDBRANCH  13  14
ENDBRANCH  12  13
ENDBRANCH   3  12
TORSDOF 3
ENDMDL
MODEL 3
REMARK VINA RESULT:      -2.7      1.141      4.711
REMARK  3 active torsions:
REMARK  status: ('A' for Active; 'I' for Inactive)
REMARK       I    between atoms: C_4  and  N_1 
REMARK    1  A    between atoms: C_2  and  S_8 
REMARK    2  A    between atoms: C_10  and  C_4 
REMARK    3  A    between atoms: S_8  and  C_10 
ROOT
ATOM      1  N   UNL d   1      33.032  18.916 -23.241  0.00  0.00    -0.274 N 
ATOM      2  C   UNL d   1      33.085  18.113 -23.431  0.00  0.00     0.067 A 
ATOM      3  C   UNL d   1      33.103  19.250 -22.479  0.00  0.00     0.259 C 
ATOM      4  C   UNL d   1      32.895  19.340 -23.944  0.00  0.00     0.083 A 
ATOM      5  C   UNL d   1      32.983  18.034 -24.245  0.00  0.00     0.018 A 
ATOM      6  O   UNL d   1      33.241  18.763 -21.815  0.00  0.00    -0.267 OA
ATOM      7  C   UNL d   1      32.866  18.789 -24.555  0.00  0.00     0.021 A 
ATOM      8  C   UNL d   1      33.214  17.444 -22.966  0.00  0.00     0.018 A 
ATOM      9  C   UNL d   1      33.007  17.296 -24.598  0.00  0.00     0.002 A 
ATOM     10  C   UNL d   1      33.241  16.704 -23.305  0.00  0.00     0.002 A 
ATOM     11  C   UNL d   1      33.138  16.616 -24.126  0.00  0.00     0.000 A 
ENDROOT
BRANCH   3  12
ATOM     12  C   UNL d   1      33.036  20.076 -22.373  0.00  0.00     0.127 C 
BRANCH  12  13
ATOM     13  S   UNL d   1      32.986  20.392 -21.615  0.00  0.00    -0.069 SA
BRANCH  13  14
ATOM     14  C   UNL d   1      32.857  21.206 -21.517  0.00  0.00     0.140 A 
ATOM     15  N   UNL d   1      33.105  21.875 -21.945  0.00  0.00    -0.230 NA
ATOM     16  C   UNL d   1      32.793  22.540 -21.569  0.00  0.00     0.107 A 
ATOM     17  C   UNL d   1      32.358  22.302 -20.920  0.00  0.00     0.058 A 
ATOM     18  S   UNL d   1      32.392  21.478 -20.880  0.00  0.00    -0.059 SA
ENDBRANCH  13  14
ENDBRANCH  12  13
ENDBRANCH   3  12
TORSDOF 3
ENDMDL
MODEL 4
REMARK VINA RESULT:      -2.7      3.867      6.119
REMARK  3 active torsions:
REMARK  status: ('A' for Active; 'I' for Inactive)
REMARK       I    between atoms: C_4  and  N_1 
REMARK    1  A    between atoms: C_2  and  S_8 
REMARK    2  A    between atoms: C_10  and  C_4 
REMARK    3  A    between atoms: S_8  and  C_10 
ROOT
ATOM      1  N   UNL d   1      30.136  17.055 -24.177  0.00  0.00    -0.274 N 
ATOM      2  C   UNL d   1      29.594  16.518 -23.860  0.00  0.00     0.067 A 
ATOM      3  C   UNL d   1      30.949  17.107 -23.990  0.00  0.00     0.259 C 
ATOM      4  C   UNL d   1      29.734  17.539 -24.721  0.00  0.00     0.083 A 
ATOM      5  C   UNL d   1      28.858  16.665 -24.201  0.00  0.00     0.018 A 
ATOM      6  O   UNL d   1      31.288  16.587 -23.432  0.00  0.00    -0.267 OA
ATOM      7  C   UNL d   1      28.949  17.292 -24.729  0.00  0.00     0.021 A 
ATOM      8  C   UNL d   1      29.677  15.915 -23.304  0.00  0.00     0.018 A 
ATOM      9  C   UNL d   1      28.206  16.216 -23.993  0.00  0.00     0.002 A 
ATOM     10  C   UNL d   1      29.036  15.461 -23.087  0.00  0.00     0.002 A 
ATOM     11  C   UNL d   1      28.290  15.603 -23.427  0.00  0.00     0.000 A 
ENDROOT
BRANCH   3  12
ATOM     12  C   UNL d   1      31.430  17.682 -24.359  0.00  0.00     0.127 C 
BRANCH  12  13
ATOM     13  S   UNL d   1      32.158  17.881 -24.032  0.00  0.00    -0.069 SA
BRANCH  13  14
ATOM     14  C   UNL d   1      32.576  18.535 -24.327  0.00  0.00     0.140 A 
ATOM     15  N   UNL d   1      32.806  18.761 -25.094  0.00  0.00    -0.230 NA
ATOM     16  C   UNL d   1      33.213  19.477 -25.029  0.00  0.00     0.107 A 
ATOM     17  C   UNL d   1      33.241  19.700 -24.245  0.00  0.00     0.058 A 
ATOM     18  S   UNL d   1      32.849  19.123 -23.802  0.00  0.00    -0.059 SA
ENDBRANCH  13  14
ENDBRANCH  12  13
ENDBRANCH   3  12
TORSDOF 3
ENDMDL
MODEL 5
REMARK VINA RESULT:      -2.4      1.335      4.596
REMARK  3 active torsions:
REMARK  status: ('A' for Active; 'I' for Inactive)
REMARK       I    between atoms: C_4  and  N_1 
REMARK    1  A    between atoms: C_2  and  S_8 
REMARK    2  A    between atoms: C_10  and  C_4 
REMARK    3  A    between atoms: S_8  and  C_10 
ROOT
ATOM      1  N   UNL d   1      33.213  19.688 -22.927  0.00  0.00    -0.274 N 
ATOM      2  C   UNL d   1      33.216  19.277 -23.643  0.00  0.00     0.067 A 
ATOM      3  C   UNL d   1      33.224  20.518 -22.832  0.00  0.00     0.259 C 
ATOM      4  C   UNL d   1      33.199  19.131 -22.308  0.00  0.00     0.083 A 
ATOM      5  C   UNL d   1      33.204  18.469 -23.476  0.00  0.00     0.018 A 
ATOM      6  O   UNL d   1      33.238  21.019 -23.500  0.00  0.00    -0.267 OA
ATOM      7  C   UNL d   1      33.193  18.386 -22.656  0.00  0.00     0.021 A 
ATOM      8  C   UNL d   1      33.229  19.534 -24.426  0.00  0.00     0.018 A 
ATOM      9  C   UNL d   1      33.203  17.919 -24.082  0.00  0.00     0.002 A 
ATOM     10  C   UNL d   1      33.229  18.996 -25.038  0.00  0.00     0.002 A 
ATOM     11  C   UNL d   1      33.216  18.180 -24.878  0.00  0.00     0.000 A 
ENDROOT
BRANCH   3  12
ATOM     12  C   UNL d   1      33.219  20.855 -22.068  0.00  0.00     0.127 C 
BRANCH  12  13
ATOM     13  S   UNL d   1      33.157  21.670 -21.977  0.00  0.00    -0.069 SA
BRANCH  13  14
ATOM     14  C   UNL d   1      32.972  21.988 -21.233  0.00  0.00     0.140 A 
ATOM     15  N   UNL d   1      33.156  21.755 -20.456  0.00  0.00    -0.230 NA
ATOM     16  C   UNL d   1      32.809  22.302 -19.944  0.00  0.00     0.107 A 
ATOM     17  C   UNL d   1      32.416  22.868 -20.382  0.00  0.00     0.058 A 
ATOM     18  S   UNL d   1      32.511  22.682 -21.181  0.00  0.00    -0.059 SA
ENDBRANCH  13  14
ENDBRANCH  12  13
ENDBRANCH   3  12
TORSDOF 3
ENDMDL
MODEL 6
REMARK VINA RESULT:      -2.0      1.781      2.839
REMARK  3 active torsions:
REMARK  status: ('A' for Active; 'I' for Inactive)
REMARK       I    between atoms: C_4  and  N_1 
REMARK    1  A    between atoms: C_2  and  S_8 
REMARK    2  A    between atoms: C_10  and  C_4 
REMARK    3  A    between atoms: S_8  and  C_10 
ROOT
ATOM      1  N   UNL d   1      33.102  19.613 -22.526  0.00  0.00    -0.274 N 
ATOM      2  C   UNL d   1      33.119  20.439 -22.524  0.00  0.00     0.067 A 
ATOM      3  C   UNL d   1      33.022  19.121 -23.197  0.00  0.00     0.259 C 
ATOM      4  C   UNL d   1      33.178  19.350 -21.740  0.00  0.00     0.083 A 
ATOM      5  C   UNL d   1      33.206  20.692 -21.744  0.00  0.00     0.018 A 
ATOM      6  O   UNL d   1      32.950  19.454 -23.959  0.00  0.00    -0.267 OA
ATOM      7  C   UNL d   1      33.241  20.020 -21.268  0.00  0.00     0.021 A 
ATOM      8  C   UNL d   1      33.068  20.993 -23.133  0.00  0.00     0.018 A 
ATOM      9  C   UNL d   1      33.241  21.491 -21.567  0.00  0.00     0.002 A 
ATOM     10  C   UNL d   1      33.102  21.790 -22.970  0.00  0.00     0.002 A 
ATOM     11  C   UNL d   1      33.189  22.054 -22.186  0.00  0.00     0.000 A 
ENDROOT
BRANCH   3  12
ATOM     12  C   UNL d   1      33.013  18.291 -23.111  0.00  0.00     0.127 C 
BRANCH  12  13
ATOM     13  S   UNL d   1      32.632  17.822 -23.670  0.00  0.00    -0.069 SA
BRANCH  13  14
ATOM     14  C   UNL d   1      32.669  16.995 -23.608  0.00  0.00     0.140 A 
ATOM     15  N   UNL d   1      33.174  16.481 -23.192  0.00  0.00    -0.230 NA
ATOM     16  C   UNL d   1      32.928  15.709 -23.353  0.00  0.00     0.107 A 
ATOM     17  C   UNL d   1      32.286  15.731 -23.857  0.00  0.00     0.058 A 
ATOM     18  S   UNL d   1      32.118  16.523 -24.020  0.00  0.00    -0.059 SA
ENDBRANCH  13  14
ENDBRANCH  12  13
ENDBRANCH   3  12
TORSDOF 3
ENDMDL
MODEL 7
REMARK VINA RESULT:      -1.7      4.620      5.920
REMARK  3 active torsions:
REMARK  status: ('A' for Active; 'I' for Inactive)
REMARK       I    between atoms: C_4  and  N_1 
REMARK    1  A    between atoms: C_2  and  S_8 
REMARK    2  A    between atoms: C_10  and  C_4 
REMARK    3  A    between atoms: S_8  and  C_10 
ROOT
ATOM      1  N   UNL d   1      31.144  17.226 -24.163  0.00  0.00    -0.274 N 
ATOM      2  C   UNL d   1      31.868  17.560 -23.946  0.00  0.00     0.067 A 
ATOM      3  C   UNL d   1      30.797  16.541 -23.833  0.00  0.00     0.259 C 
ATOM      4  C   UNL d   1      30.816  17.689 -24.771  0.00  0.00     0.083 A 
ATOM      5  C   UNL d   1      31.993  18.228 -24.414  0.00  0.00     0.018 A 
ATOM      6  O   UNL d   1      31.184  16.123 -23.223  0.00  0.00    -0.267 OA
ATOM      7  C   UNL d   1      31.345  18.303 -24.918  0.00  0.00     0.021 A 
ATOM      8  C   UNL d   1      32.429  17.342 -23.383  0.00  0.00     0.018 A 
ATOM      9  C   UNL d   1      32.670  18.678 -24.324  0.00  0.00     0.002 A 
ATOM     10  C   UNL d   1      33.108  17.782 -23.284  0.00  0.00     0.002 A 
ATOM     11  C   UNL d   1      33.241  18.457 -23.752  0.00  0.00     0.000 A 
ENDROOT
BRANCH   3  12
ATOM     12  C   UNL d   1      30.058  16.268 -24.112  0.00  0.00     0.127 C 
BRANCH  12  13
ATOM     13  S   UNL d   1      29.593  15.782 -23.638  0.00  0.00    -0.069 SA
BRANCH  13  14
ATOM     14  C   UNL d   1      28.791  15.674 -23.822  0.00  0.00     0.140 A 
ATOM     15  N   UNL d   1      28.393  15.481 -24.527  0.00  0.00    -0.230 NA
ATOM     16  C   UNL d   1      27.586  15.453 -24.356  0.00  0.00     0.107 A 
ATOM     17  C   UNL d   1      27.473  15.622 -23.566  0.00  0.00     0.058 A 
ATOM     18  S   UNL d   1      28.213  15.760 -23.227  0.00  0.00    -0.059 SA
ENDBRANCH  13  14
ENDBRANCH  12  13
ENDBRANCH   3  12
TORSDOF 3
ENDMDL
MODEL 8
REMARK VINA RESULT:      -0.9      1.160      1.783
REMARK  3 active torsions:
REMARK  status: ('A' for Active; 'I' for Inactive)
REMARK       I    between atoms: C_4  and  N_1 
REMARK    1  A    between atoms: C_2  and  S_8 
REMARK    2  A    between atoms: C_10  and  C_4 
REMARK    3  A    between atoms: S_8  and  C_10 
ROOT
ATOM      1  N   UNL d   1      33.127  20.783 -21.930  0.00  0.00    -0.274 N 
ATOM      2  C   UNL d   1      33.130  21.602 -21.821  0.00  0.00     0.067 A 
ATOM      3  C   UNL d   1      33.082  20.381 -22.661  0.00  0.00     0.259 C 
ATOM      4  C   UNL d   1      33.176  20.422 -21.182  0.00  0.00     0.083 A 
ATOM      5  C   UNL d   1      33.181  21.754 -21.012  0.00  0.00     0.018 A 
ATOM      6  O   UNL d   1      33.034  20.809 -23.376  0.00  0.00    -0.267 OA
ATOM      7  C   UNL d   1      33.209  21.026 -20.625  0.00  0.00     0.021 A 
ATOM      8  C   UNL d   1      33.093  22.229 -22.355  0.00  0.00     0.018 A 
ATOM      9  C   UNL d   1      33.195  22.523 -20.733  0.00  0.00     0.002 A 
ATOM     10  C   UNL d   1      33.106  22.999 -22.090  0.00  0.00     0.002 A 
ATOM     11  C   UNL d   1      33.157  23.160 -21.275  0.00  0.00     0.000 A 
ENDROOT
BRANCH   3  12
ATOM     12  C   UNL d   1      33.084  19.546 -22.683  0.00  0.00     0.127 C 
BRANCH  12  13
ATOM     13  S   UNL d   1      32.437  19.139 -22.988  0.00  0.00    -0.069 SA
BRANCH  13  14
ATOM     14  C   UNL d   1      32.510  18.335 -23.180  0.00  0.00     0.140 A 
ATOM     15  N   UNL d   1      32.953  17.712 -22.851  0.00  0.00    -0.230 NA
ATOM     16  C   UNL d   1      32.790  17.033 -23.291  0.00  0.00     0.107 A 
ATOM     17  C   UNL d   1      32.258  17.218 -23.882  0.00  0.00     0.058 A 
ATOM     18  S   UNL d   1      32.079  18.022 -23.821  0.00  0.00    -0.059 SA
ENDBRANCH  13  14
ENDBRANCH  12  13
ENDBRANCH   3  12
TORSDOF 3
ENDMDL
MODEL 9
REMARK VINA RESULT:      -0.0      2.269      4.609
REMARK  3 active torsions:
REMARK  status: ('A' for Active; 'I' for Inactive)
REMARK       I    between atoms: C_4  and  N_1 
REMARK    1  A    between atoms: C_2  and  S_8 
REMARK    2  A    between atoms: C_10  and  C_4 
REMARK    3  A    between atoms: S_8  and  C_10 
ROOT
ATOM      1  N   UNL d   1      32.737  21.597 -20.784  0.00  0.00    -0.274 N 
ATOM      2  C   UNL d   1      32.800  21.357 -21.573  0.00  0.00     0.067 A 
ATOM      3  C   UNL d   1      32.940  22.347 -20.477  0.00  0.00     0.259 C 
ATOM      4  C   UNL d   1      32.435  20.960 -20.343  0.00  0.00     0.083 A 
ATOM      5  C   UNL d   1      32.539  20.577 -21.625  0.00  0.00     0.018 A 
ATOM      6  O   UNL d   1      33.239  22.942 -20.980  0.00  0.00    -0.267 OA
ATOM      7  C   UNL d   1      32.317  20.338 -20.868  0.00  0.00     0.021 A 
ATOM      8  C   UNL d   1      33.061  21.750 -22.249  0.00  0.00     0.018 A 
ATOM      9  C   UNL d   1      32.537  20.186 -22.345  0.00  0.00     0.002 A 
ATOM     10  C   UNL d   1      33.063  21.373 -22.971  0.00  0.00     0.002 A 
ATOM     11  C   UNL d   1      32.802  20.585 -23.032  0.00  0.00     0.000 A 
ENDROOT
BRANCH   3  12
ATOM     12  C   UNL d   1      32.846  22.508 -19.663  0.00  0.00     0.127 C 
BRANCH  12  13
ATOM     13  S   UNL d   1      32.755  23.284 -19.404  0.00  0.00    -0.069 SA
BRANCH  13  14
ATOM     14  C   UNL d   1      32.545  23.432 -18.615  0.00  0.00     0.140 A 
ATOM     15  N   UNL d   1      31.813  23.477 -18.223  0.00  0.00    -0.230 NA
ATOM     16  C   UNL d   1      31.967  23.643 -17.429  0.00  0.00     0.107 A 
ATOM     17  C   UNL d   1      32.773  23.702 -17.319  0.00  0.00     0.058 A 
ATOM     18  S   UNL d   1      33.140  23.573 -18.048  0.00  0.00    -0.059 SA
ENDBRANCH  13  14
ENDBRANCH  12  13
ENDBRANCH   3  12
TORSDOF 3
ENDMDL
