MODEL 1
REMARK VINA RESULT:      12.4      0.000      0.000
REMARK  0 active torsions:
REMARK  status: ('A' for Active; 'I' for Inactive)
ROOT
ATOM      1  C   UNL d   1      58.433  49.700  50.691  0.00  0.00     0.311 A 
ATOM      2  N   UNL d   1      59.075  49.700  50.163  0.00  0.00    -0.202 NA
ATOM      3  S   UNL d   1      58.726  49.700  51.459  0.00  0.00    -0.024 SA
ATOM      4  C   UNL d   1      59.772  49.701  50.619  0.00  0.00     0.091 A 
ATOM      5  C   UNL d   1      59.557  49.701  51.417  0.00  0.00     0.052 A 
ATOM      6  O   UNL d   1      57.631  49.699  50.475  0.00  0.00    -0.258 OA
ATOM      7  C   UNL d   1      60.568  49.702  50.406  0.00  0.00     0.020 A 
ATOM      8  C   UNL d   1      60.139  49.702  52.001  0.00  0.00     0.008 A 
ATOM      9  C   UNL d   1      60.937  49.702  51.788  0.00  0.00     0.001 A 
ATOM     10  C   UNL d   1      61.152  49.702  50.990  0.00  0.00     0.002 A 
ENDROOT
TORSDOF 0
ENDMDL
MODEL 2
REMARK VINA RESULT:      12.6      1.885      2.472
REMARK  0 active torsions:
REMARK  status: ('A' for Active; 'I' for Inactive)
ROOT
ATOM      1  C   UNL d   1      61.083  49.684  52.141  0.00  0.00     0.311 A 
ATOM      2  N   UNL d   1      60.254  49.665  52.195  0.00  0.00    -0.202 NA
ATOM      3  S   UNL d   1      61.293  49.700  51.346  0.00  0.00    -0.024 SA
ATOM      4  C   UNL d   1      59.954  49.669  51.419  0.00  0.00     0.091 A 
ATOM      5  C   UNL d   1      60.593  49.691  50.896  0.00  0.00     0.052 A 
ATOM      6  O   UNL d   1      61.609  49.686  52.785  0.00  0.00    -0.258 OA
ATOM      7  C   UNL d   1      59.183  49.657  51.127  0.00  0.00     0.020 A 
ATOM      8  C   UNL d   1      60.461  49.699  50.082  0.00  0.00     0.008 A 
ATOM      9  C   UNL d   1      59.689  49.686  49.790  0.00  0.00     0.001 A 
ATOM     10  C   UNL d   1      59.050  49.665  50.312  0.00  0.00     0.002 A 
ENDROOT
TORSDOF 0
ENDMDL
MODEL 3
REMARK VINA RESULT:      14.3      1.701      2.148
REMARK  0 active torsions:
REMARK  status: ('A' for Active; 'I' for Inactive)
ROOT
ATOM      1  C   UNL d   1      60.648  49.675  52.347  0.00  0.00     0.311 A 
ATOM      2  N   UNL d   1      61.081  49.682  51.637  0.00  0.00    -0.202 NA
ATOM      3  S   UNL d   1      59.846  49.666  52.163  0.00  0.00    -0.024 SA
ATOM      4  C   UNL d   1      60.533  49.678  51.011  0.00  0.00     0.091 A 
ATOM      5  C   UNL d   1      59.773  49.668  51.334  0.00  0.00     0.052 A 
ATOM      6  O   UNL d   1      60.973  49.676  53.111  0.00  0.00    -0.258 OA
ATOM      7  C   UNL d   1      60.633  49.682  50.192  0.00  0.00     0.020 A 
ATOM      8  C   UNL d   1      59.113  49.662  50.839  0.00  0.00     0.008 A 
ATOM      9  C   UNL d   1      59.213  49.666  50.019  0.00  0.00     0.001 A 
ATOM     10  C   UNL d   1      59.973  49.676  49.696  0.00  0.00     0.002 A 
ENDROOT
TORSDOF 0
ENDMDL
