MODEL 1
REMARK VINA RESULT:      -8.1      0.000      0.000
REMARK  4 active torsions:
REMARK  status: ('A' for Active; 'I' for Inactive)
REMARK    1  A    between atoms: C_10  and  C_1 
REMARK       I    between atoms: C_5  and  N_3 
REMARK    2  A    between atoms: O_18  and  C_5 
REMARK    3  A    between atoms: N_9  and  C_10 
REMARK    4  A    between atoms: C_22  and  O_18 
ROOT
ATOM      1  C   UNL d   1     -48.472  13.494  22.884  0.00  0.00     0.059 A 
ATOM      2  C   UNL d   1     -49.702  13.942  22.316  0.00  0.00     0.121 A 
ATOM      3  C   UNL d   1     -49.023  14.095  22.764  0.00  0.00     0.214 A 
ATOM      4  C   UNL d   1     -49.827  13.186  21.991  0.00  0.00     0.032 A 
ATOM      5  C   UNL d   1     -49.276  12.585  22.111  0.00  0.00     0.059 A 
ATOM      6  C   UNL d   1     -48.597  12.738  22.559  0.00  0.00     0.016 A 
ATOM      7  N   UNL d   1     -50.251  14.530  22.193  0.00  0.00    -0.241 NA
ATOM      8 CL   UNL d   1     -49.401  11.830  21.786  0.00  0.00    -0.082 Cl
ATOM      9  O   UNL d   1     -48.900  14.838  23.084  0.00  0.00    -0.285 OA
ATOM     10  C   UNL d   1     -50.499  13.035  21.548  0.00  0.00     0.004 A 
ATOM     11  C   UNL d   1     -50.935  14.391  21.747  0.00  0.00     0.099 A 
ATOM     12  C   UNL d   1     -51.064  13.637  21.420  0.00  0.00     0.021 A 
ENDROOT
BRANCH   1  13
ATOM     13  C   UNL d   1     -47.791  13.633  23.328  0.00  0.00     0.084 C 
BRANCH  13  14
ATOM     14  N   UNL d   1     -47.119  13.179  23.228  0.00  0.00    -0.300 N 
ATOM     15  C   UNL d   1     -46.550  13.380  22.671  0.00  0.00     0.100 A 
ATOM     16  C   UNL d   1     -45.878  12.926  22.571  0.00  0.00     0.104 A 
ATOM     17  N   UNL d   1     -45.768  12.247  23.040  0.00  0.00    -0.249 N 
ATOM     18  C   UNL d   1     -46.344  12.040  23.606  0.00  0.00     0.104 A 
ATOM     19  C   UNL d   1     -45.088  11.784  22.941  0.00  0.00     0.378 C 
ATOM     20  C   UNL d   1     -47.009  12.500  23.697  0.00  0.00     0.100 A 
ATOM     21  O   UNL d   1     -44.531  11.995  22.385  0.00  0.00    -0.237 OA
BRANCH  19  22
ATOM     22  O   UNL d   1     -44.981  11.119  23.401  0.00  0.00    -0.257 OA
BRANCH  22  23
ATOM     23  C   UNL d   1     -44.280  10.674  23.337  0.00  0.00     0.128 C 
ATOM     24  C   UNL d   1     -43.983  10.056  23.679  0.00  0.00     0.029 C 
ENDBRANCH  22  23
ENDBRANCH  19  22
ENDBRANCH  13  14
ENDBRANCH   1  13
TORSDOF 4
ENDMDL
MODEL 2
REMARK VINA RESULT:      -6.5      1.594      2.064
REMARK  4 active torsions:
REMARK  status: ('A' for Active; 'I' for Inactive)
REMARK    1  A    between atoms: C_10  and  C_1 
REMARK       I    between atoms: C_5  and  N_3 
REMARK    2  A    between atoms: O_18  and  C_5 
REMARK    3  A    between atoms: N_9  and  C_10 
REMARK    4  A    between atoms: C_22  and  O_18 
ROOT
ATOM      1  C   UNL d   1     -48.815  13.510  22.581  0.00  0.00     0.059 A 
ATOM      2  C   UNL d   1     -49.938  14.190  23.138  0.00  0.00     0.121 A 
ATOM      3  C   UNL d   1     -49.564  13.484  22.922  0.00  0.00     0.214 A 
ATOM      4  C   UNL d   1     -49.559  14.920  23.012  0.00  0.00     0.032 A 
ATOM      5  C   UNL d   1     -48.809  14.945  22.671  0.00  0.00     0.059 A 
ATOM      6  C   UNL d   1     -48.435  14.239  22.454  0.00  0.00     0.016 A 
ATOM      7  N   UNL d   1     -50.679  14.174  23.476  0.00  0.00    -0.241 NA
ATOM      8 CL   UNL d   1     -48.429  15.675  22.545  0.00  0.00    -0.082 Cl
ATOM      9  O   UNL d   1     -49.938  12.766  23.046  0.00  0.00    -0.285 OA
ATOM     10  C   UNL d   1     -49.928  15.619  23.226  0.00  0.00     0.004 A 
ATOM     11  C   UNL d   1     -51.064  14.873  23.697  0.00  0.00     0.099 A 
ATOM     12  C   UNL d   1     -50.689  15.605  23.573  0.00  0.00     0.021 A 
ENDROOT
BRANCH   1  13
ATOM     13  C   UNL d   1     -48.432  12.813  22.361  0.00  0.00     0.084 C 
BRANCH  13  14
ATOM     14  N   UNL d   1     -47.617  12.754  22.378  0.00  0.00    -0.300 N 
ATOM     15  C   UNL d   1     -47.226  12.475  23.044  0.00  0.00     0.100 A 
ATOM     16  C   UNL d   1     -46.411  12.416  23.062  0.00  0.00     0.104 A 
ATOM     17  N   UNL d   1     -45.969  12.641  22.394  0.00  0.00    -0.249 N 
ATOM     18  C   UNL d   1     -46.362  12.925  21.716  0.00  0.00     0.104 A 
ATOM     19  C   UNL d   1     -45.143  12.583  22.407  0.00  0.00     0.378 C 
ATOM     20  C   UNL d   1     -47.175  12.979  21.710  0.00  0.00     0.100 A 
ATOM     21  O   UNL d   1     -44.766  12.305  23.076  0.00  0.00    -0.237 OA
BRANCH  19  22
ATOM     22  O   UNL d   1     -44.710  12.804  21.753  0.00  0.00    -0.257 OA
BRANCH  22  23
ATOM     23  C   UNL d   1     -43.914  12.570  21.677  0.00  0.00     0.128 C 
ATOM     24  C   UNL d   1     -43.271  12.876  21.397  0.00  0.00     0.029 C 
ENDBRANCH  22  23
ENDBRANCH  19  22
ENDBRANCH  13  14
ENDBRANCH   1  13
TORSDOF 4
ENDMDL
MODEL 3
REMARK VINA RESULT:      -5.9      8.503     10.124
REMARK  4 active torsions:
REMARK  status: ('A' for Active; 'I' for Inactive)
REMARK    1  A    between atoms: C_10  and  C_1 
REMARK       I    between atoms: C_5  and  N_3 
REMARK    2  A    between atoms: O_18  and  C_5 
REMARK    3  A    between atoms: N_9  and  C_10 
REMARK    4  A    between atoms: C_22  and  O_18 
ROOT
ATOM      1  C   UNL d   1     -39.682  14.564  17.906  0.00  0.00     0.059 A 
ATOM      2  C   UNL d   1     -38.929  14.526  16.694  0.00  0.00     0.121 A 
ATOM      3  C   UNL d   1     -39.423  14.936  17.218  0.00  0.00     0.214 A 
ATOM      4  C   UNL d   1     -38.697  13.745  16.863  0.00  0.00     0.032 A 
ATOM      5  C   UNL d   1     -38.956  13.374  17.552  0.00  0.00     0.059 A 
ATOM      6  C   UNL d   1     -39.449  13.783  18.075  0.00  0.00     0.016 A 
ATOM      7  N   UNL d   1     -38.668  14.886  16.012  0.00  0.00    -0.241 NA
ATOM      8 CL   UNL d   1     -38.724  12.593  17.720  0.00  0.00    -0.082 Cl
ATOM      9  O   UNL d   1     -39.651  15.704  17.052  0.00  0.00    -0.285 OA
ATOM     10  C   UNL d   1     -38.209  13.340  16.346  0.00  0.00     0.004 A 
ATOM     11  C   UNL d   1     -38.174  14.488  15.480  0.00  0.00     0.099 A 
ATOM     12  C   UNL d   1     -37.940  13.707  15.644  0.00  0.00     0.021 A 
ENDROOT
BRANCH   1  13
ATOM     13  C   UNL d   1     -40.174  14.961  18.436  0.00  0.00     0.084 C 
BRANCH  13  14
ATOM     14  N   UNL d   1     -40.019  14.962  19.238  0.00  0.00    -0.300 N 
ATOM     15  C   UNL d   1     -40.383  14.424  19.741  0.00  0.00     0.100 A 
ATOM     16  C   UNL d   1     -40.228  14.425  20.544  0.00  0.00     0.104 A 
ATOM     17  N   UNL d   1     -39.694  14.980  20.858  0.00  0.00    -0.249 N 
ATOM     18  C   UNL d   1     -39.324  15.528  20.351  0.00  0.00     0.104 A 
ATOM     19  C   UNL d   1     -39.535  14.985  21.671  0.00  0.00     0.378 C 
ATOM     20  C   UNL d   1     -39.485  15.518  19.552  0.00  0.00     0.100 A 
ATOM     21  O   UNL d   1     -39.903  14.444  22.159  0.00  0.00    -0.237 OA
BRANCH  19  22
ATOM     22  O   UNL d   1     -39.012  15.529  21.979  0.00  0.00    -0.257 OA
BRANCH  22  23
ATOM     23  C   UNL d   1     -38.741  15.454  22.762  0.00  0.00     0.128 C 
ATOM     24  C   UNL d   1     -38.456  15.922  23.298  0.00  0.00     0.029 C 
ENDBRANCH  22  23
ENDBRANCH  19  22
ENDBRANCH  13  14
ENDBRANCH   1  13
TORSDOF 4
ENDMDL
MODEL 4
REMARK VINA RESULT:      -5.5      8.602      9.886
REMARK  4 active torsions:
REMARK  status: ('A' for Active; 'I' for Inactive)
REMARK    1  A    between atoms: C_10  and  C_1 
REMARK       I    between atoms: C_5  and  N_3 
REMARK    2  A    between atoms: O_18  and  C_5 
REMARK    3  A    between atoms: N_9  and  C_10 
REMARK    4  A    between atoms: C_22  and  O_18 
ROOT
ATOM      1  C   UNL d   1     -39.878  14.731  20.670  0.00  0.00     0.059 A 
ATOM      2  C   UNL d   1     -39.457  15.264  21.925  0.00  0.00     0.121 A 
ATOM      3  C   UNL d   1     -39.941  15.308  21.255  0.00  0.00     0.214 A 
ATOM      4  C   UNL d   1     -38.912  14.640  22.007  0.00  0.00     0.032 A 
ATOM      5  C   UNL d   1     -38.850  14.063  21.422  0.00  0.00     0.059 A 
ATOM      6  C   UNL d   1     -39.334  14.107  20.752  0.00  0.00     0.016 A 
ATOM      7  N   UNL d   1     -39.512  15.830  22.508  0.00  0.00    -0.241 NA
ATOM      8 CL   UNL d   1     -38.305  13.439  21.504  0.00  0.00    -0.082 Cl
ATOM      9  O   UNL d   1     -40.477  15.922  21.174  0.00  0.00    -0.285 OA
ATOM     10  C   UNL d   1     -38.434  14.595  22.669  0.00  0.00     0.004 A 
ATOM     11  C   UNL d   1     -39.034  15.798  23.183  0.00  0.00     0.099 A 
ATOM     12  C   UNL d   1     -38.488  15.176  23.269  0.00  0.00     0.021 A 
ENDROOT
BRANCH   1  13
ATOM     13  C   UNL d   1     -40.355  14.764  19.998  0.00  0.00     0.084 C 
BRANCH  13  14
ATOM     14  N   UNL d   1     -40.029  14.799  19.249  0.00  0.00    -0.300 N 
ATOM     15  C   UNL d   1     -39.806  15.517  18.917  0.00  0.00     0.100 A 
ATOM     16  C   UNL d   1     -39.480  15.552  18.168  0.00  0.00     0.104 A 
ATOM     17  N   UNL d   1     -39.372  14.850  17.734  0.00  0.00    -0.249 N 
ATOM     18  C   UNL d   1     -39.597  14.121  18.068  0.00  0.00     0.104 A 
ATOM     19  C   UNL d   1     -39.042  14.882  16.975  0.00  0.00     0.378 C 
ATOM     20  C   UNL d   1     -39.921  14.097  18.816  0.00  0.00     0.100 A 
ATOM     21  O   UNL d   1     -38.825  15.601  16.656  0.00  0.00    -0.237 OA
BRANCH  19  22
ATOM     22  O   UNL d   1     -38.936  14.194  16.550  0.00  0.00    -0.257 OA
BRANCH  22  23
ATOM     23  C   UNL d   1     -38.464  14.193  15.864  0.00  0.00     0.128 C 
ATOM     24  C   UNL d   1     -38.128  13.665  15.424  0.00  0.00     0.029 C 
ENDBRANCH  22  23
ENDBRANCH  19  22
ENDBRANCH  13  14
ENDBRANCH   1  13
TORSDOF 4
ENDMDL
