MODEL 1
REMARK VINA RESULT:      16.4      0.000      0.000
REMARK  4 active torsions:
REMARK  status: ('A' for Active; 'I' for Inactive)
REMARK    1  A    between atoms: N_6  and  C_1 
REMARK    2  A    between atoms: C_8  and  N_4 
REMARK    3  A    between atoms: C_9  and  N_6 
REMARK    4  A    between atoms: C_13  and  C_9 
ROOT
ATOM      1  C   UNL d   1      45.578 -15.842  44.364  0.00  0.00     0.157 A 
ATOM      2  C   UNL d   1      45.881 -15.100  44.172  0.00  0.00     0.298 A 
ATOM      3  N   UNL d   1      44.664 -14.913  44.669  0.00  0.00    -0.238 N 
ATOM      4  N   UNL d   1      45.312 -14.527  44.362  0.00  0.00    -0.209 N 
ATOM      5  C   UNL d   1      44.820 -15.744  44.676  0.00  0.00     0.104 A 
ATOM      6  O   UNL d   1      46.647 -14.948  43.836  0.00  0.00    -0.263 OA
ATOM      7  C   UNL d   1      43.912 -14.549  44.954  0.00  0.00     0.120 C 
ATOM      8  C   UNL d   1      44.287 -16.358  44.954  0.00  0.00     0.022 C 
ENDROOT
BRANCH   1   9
ATOM      9  N   UNL d   1      45.973 -16.587  44.263  0.00  0.00    -0.238 NA
BRANCH   9  10
ATOM     10  C   UNL d   1      45.661 -17.168  43.765  0.00  0.00     0.099 C 
BRANCH  10  11
ATOM     11  C   UNL d   1      45.992 -17.936  43.768  0.00  0.00     0.022 A 
ATOM     12  C   UNL d   1      46.196 -18.282  43.071  0.00  0.00     0.022 A 
ATOM     13  C   UNL d   1      46.525 -19.046  43.070  0.00  0.00     0.099 A 
ATOM     14  N   UNL d   1      46.646 -19.452  43.748  0.00  0.00    -0.242 NA
ATOM     15  C   UNL d   1      46.446 -19.118  44.471  0.00  0.00     0.099 A 
ATOM     16  C   UNL d   1      46.107 -18.335  44.480  0.00  0.00     0.022 A 
ENDBRANCH  10  11
ENDBRANCH   9  10
ENDBRANCH   1   9
BRANCH   4  17
ATOM     17  C   UNL d   1      45.425 -13.697  44.242  0.00  0.00     0.085 A 
ATOM     18  C   UNL d   1      45.068 -13.335  43.603  0.00  0.00     0.019 A 
ATOM     19  C   UNL d   1      45.182 -12.500  43.482  0.00  0.00     0.002 A 
ATOM     20  C   UNL d   1      45.645 -12.082  44.009  0.00  0.00     0.000 A 
ATOM     21  C   UNL d   1      46.005 -12.443  44.652  0.00  0.00     0.002 A 
ATOM     22  C   UNL d   1      45.891 -13.278  44.773  0.00  0.00     0.019 A 
ENDBRANCH   4  17
TORSDOF 4
ENDMDL
MODEL 2
REMARK VINA RESULT:      19.2      1.279      4.960
REMARK  4 active torsions:
REMARK  status: ('A' for Active; 'I' for Inactive)
REMARK    1  A    between atoms: N_6  and  C_1 
REMARK    2  A    between atoms: C_8  and  N_4 
REMARK    3  A    between atoms: C_9  and  N_6 
REMARK    4  A    between atoms: C_13  and  C_9 
ROOT
ATOM      1  C   UNL d   1      45.929 -17.305  43.543  0.00  0.00     0.157 A 
ATOM      2  C   UNL d   1      45.971 -17.648  42.794  0.00  0.00     0.298 A 
ATOM      3  N   UNL d   1      46.359 -18.565  43.671  0.00  0.00    -0.238 N 
ATOM      4  N   UNL d   1      46.238 -18.429  42.878  0.00  0.00    -0.209 N 
ATOM      5  C   UNL d   1      46.167 -17.863  44.101  0.00  0.00     0.104 A 
ATOM      6  O   UNL d   1      45.774 -17.265  42.061  0.00  0.00    -0.263 OA
ATOM      7  C   UNL d   1      46.643 -19.313  44.047  0.00  0.00     0.120 C 
ATOM      8  C   UNL d   1      46.215 -17.761  44.953  0.00  0.00     0.022 C 
ENDROOT
BRANCH   1   9
ATOM      9  N   UNL d   1      45.682 -16.511  43.718  0.00  0.00    -0.238 NA
BRANCH   9  10
ATOM     10  C   UNL d   1      46.087 -16.054  44.274  0.00  0.00     0.099 C 
BRANCH  10  11
ATOM     11  C   UNL d   1      45.827 -15.277  44.440  0.00  0.00     0.022 A 
ATOM     12  C   UNL d   1      46.368 -14.686  44.515  0.00  0.00     0.022 A 
ATOM     13  C   UNL d   1      46.112 -13.911  44.680  0.00  0.00     0.099 A 
ATOM     14  N   UNL d   1      45.337 -13.734  44.767  0.00  0.00    -0.242 NA
ATOM     15  C   UNL d   1      44.768 -14.322  44.694  0.00  0.00     0.099 A 
ATOM     16  C   UNL d   1      45.022 -15.119  44.525  0.00  0.00     0.022 A 
ENDBRANCH  10  11
ENDBRANCH   9  10
ENDBRANCH   1   9
BRANCH   4  17
ATOM     17  C   UNL d   1      46.351 -18.957  42.227  0.00  0.00     0.085 A 
ATOM     18  C   UNL d   1      46.275 -19.761  42.349  0.00  0.00     0.019 A 
ATOM     19  C   UNL d   1      46.389 -20.293  41.694  0.00  0.00     0.002 A 
ATOM     20  C   UNL d   1      46.570 -19.986  40.960  0.00  0.00     0.000 A 
ATOM     21  C   UNL d   1      46.647 -19.178  40.834  0.00  0.00     0.002 A 
ATOM     22  C   UNL d   1      46.533 -18.647  41.489  0.00  0.00     0.019 A 
ENDBRANCH   4  17
TORSDOF 4
ENDMDL
