MODEL 1
REMARK VINA RESULT:      -8.4      0.000      0.000
REMARK  4 active torsions:
REMARK  status: ('A' for Active; 'I' for Inactive)
REMARK    1  A    between atoms: C_6  and  N_1 
REMARK    2  A    between atoms: C_8  and  C_2 
REMARK    3  A    between atoms: C_16  and  C_5 
REMARK    4  A    between atoms: C_7  and  C_8 
ROOT
ATOM      1  N   UNL d   1     -48.579  12.347  22.946  0.00  0.00    -0.251 N 
ATOM      2  C   UNL d   1     -47.349  12.797  23.186  0.00  0.00     0.101 A 
ATOM      3  C   UNL d   1     -48.132  11.722  23.245  0.00  0.00     0.305 A 
ATOM      4  C   UNL d   1     -47.366  12.003  23.395  0.00  0.00     0.256 A 
ATOM      5  C   UNL d   1     -48.091  13.009  22.912  0.00  0.00     0.075 A 
ATOM      6  O   UNL d   1     -48.397  10.948  23.375  0.00  0.00    -0.263 OA
ATOM      7  O   UNL d   1     -46.746  11.552  23.697  0.00  0.00    -0.281 OA
ENDROOT
BRANCH   2   8
ATOM      8  C   UNL d   1     -46.687  13.292  23.247  0.00  0.00     0.223 C 
ATOM      9  O   UNL d   1     -46.733  13.986  23.692  0.00  0.00    -0.284 OA
BRANCH   8  10
ATOM     10  C   UNL d   1     -45.988  13.097  22.869  0.00  0.00     0.139 A 
ATOM     11  O   UNL d   1     -45.492  12.466  23.057  0.00  0.00    -0.304 OA
ATOM     12  C   UNL d   1     -44.851  12.474  22.538  0.00  0.00     0.100 A 
ATOM     13  C   UNL d   1     -44.198  11.985  22.470  0.00  0.00     0.025 A 
ATOM     14  C   UNL d   1     -44.954  13.109  22.032  0.00  0.00     0.025 A 
ATOM     15  C   UNL d   1     -43.640  12.133  21.887  0.00  0.00     0.002 A 
ATOM     16  C   UNL d   1     -43.738  12.774  21.371  0.00  0.00     0.000 A 
ATOM     17  C   UNL d   1     -44.396  13.257  21.449  0.00  0.00     0.002 A 
ATOM     18  C   UNL d   1     -45.652  13.496  22.231  0.00  0.00     0.030 A 
ENDBRANCH   8  10
ENDBRANCH   2   8
BRANCH   5  19
ATOM     19  C   UNL d   1     -48.311  13.766  22.644  0.00  0.00     0.017 A 
ATOM     20  C   UNL d   1     -48.565  14.340  23.192  0.00  0.00     0.002 A 
ATOM     21  C   UNL d   1     -48.785  15.096  22.933  0.00  0.00     0.000 A 
ATOM     22  C   UNL d   1     -48.753  15.286  22.119  0.00  0.00     0.000 A 
ATOM     23  C   UNL d   1     -48.497  14.705  21.574  0.00  0.00     0.000 A 
ATOM     24  C   UNL d   1     -48.276  13.945  21.838  0.00  0.00     0.002 A 
ENDBRANCH   5  19
BRANCH   1  25
ATOM     25  C   UNL d   1     -49.366  12.312  22.725  0.00  0.00     0.182 A 
ATOM     26  N   UNL d   1     -49.657  12.218  21.955  0.00  0.00    -0.220 NA
ATOM     27  C   UNL d   1     -50.477  12.212  21.990  0.00  0.00     0.108 A 
ATOM     28  C   UNL d   1     -50.701  12.301  22.779  0.00  0.00     0.059 A 
ATOM     29  S   UNL d   1     -50.015  12.363  23.233  0.00  0.00    -0.048 SA
ENDBRANCH   1  25
TORSDOF 4
ENDMDL
MODEL 2
REMARK VINA RESULT:      -7.7      1.150      2.210
REMARK  4 active torsions:
REMARK  status: ('A' for Active; 'I' for Inactive)
REMARK    1  A    between atoms: C_6  and  N_1 
REMARK    2  A    between atoms: C_8  and  C_2 
REMARK    3  A    between atoms: C_16  and  C_5 
REMARK    4  A    between atoms: C_7  and  C_8 
ROOT
ATOM      1  N   UNL d   1     -48.050  14.250  22.712  0.00  0.00    -0.251 N 
ATOM      2  C   UNL d   1     -47.001  13.490  23.019  0.00  0.00     0.101 A 
ATOM      3  C   UNL d   1     -47.421  14.748  22.905  0.00  0.00     0.305 A 
ATOM      4  C   UNL d   1     -46.768  14.275  23.096  0.00  0.00     0.256 A 
ATOM      5  C   UNL d   1     -47.785  13.475  22.784  0.00  0.00     0.075 A 
ATOM      6  O   UNL d   1     -47.436  15.577  22.908  0.00  0.00    -0.263 OA
ATOM      7  O   UNL d   1     -46.027  14.556  23.321  0.00  0.00    -0.281 OA
ENDROOT
BRANCH   2   8
ATOM      8  C   UNL d   1     -46.516  12.833  23.159  0.00  0.00     0.223 C 
ATOM      9  O   UNL d   1     -46.754  12.254  23.697  0.00  0.00    -0.284 OA
BRANCH   8  10
ATOM     10  C   UNL d   1     -45.802  12.754  22.767  0.00  0.00     0.139 A 
ATOM     11  O   UNL d   1     -45.557  13.189  22.110  0.00  0.00    -0.304 OA
ATOM     12  C   UNL d   1     -44.804  12.931  21.892  0.00  0.00     0.100 A 
ATOM     13  C   UNL d   1     -44.301  13.164  21.290  0.00  0.00     0.025 A 
ATOM     14  C   UNL d   1     -44.588  12.341  22.416  0.00  0.00     0.025 A 
ATOM     15  C   UNL d   1     -43.570  12.799  21.209  0.00  0.00     0.002 A 
ATOM     16  C   UNL d   1     -43.344  12.200  21.735  0.00  0.00     0.000 A 
ATOM     17  C   UNL d   1     -43.857  11.976  22.336  0.00  0.00     0.002 A 
ATOM     18  C   UNL d   1     -45.197  12.227  22.955  0.00  0.00     0.030 A 
ENDBRANCH   8  10
ENDBRANCH   2   8
BRANCH   5  19
ATOM     19  C   UNL d   1     -48.235  12.788  22.643  0.00  0.00     0.017 A 
ATOM     20  C   UNL d   1     -48.627  12.415  23.276  0.00  0.00     0.002 A 
ATOM     21  C   UNL d   1     -49.077  11.731  23.143  0.00  0.00     0.000 A 
ATOM     22  C   UNL d   1     -49.139  11.412  22.372  0.00  0.00     0.000 A 
ATOM     23  C   UNL d   1     -48.741  11.793  21.741  0.00  0.00     0.000 A 
ATOM     24  C   UNL d   1     -48.290  12.481  21.878  0.00  0.00     0.002 A 
ENDBRANCH   5  19
BRANCH   1  25
ATOM     25  C   UNL d   1     -48.800  14.489  22.489  0.00  0.00     0.182 A 
ATOM     26  N   UNL d   1     -49.090  14.543  21.714  0.00  0.00    -0.220 NA
ATOM     27  C   UNL d   1     -49.867  14.804  21.748  0.00  0.00     0.108 A 
ATOM     28  C   UNL d   1     -50.065  14.915  22.541  0.00  0.00     0.059 A 
ATOM     29  S   UNL d   1     -49.406  14.720  22.998  0.00  0.00    -0.048 SA
ENDBRANCH   1  25
TORSDOF 4
ENDMDL
MODEL 3
REMARK VINA RESULT:      -6.8      7.136      9.710
REMARK  4 active torsions:
REMARK  status: ('A' for Active; 'I' for Inactive)
REMARK    1  A    between atoms: C_6  and  N_1 
REMARK    2  A    between atoms: C_8  and  C_2 
REMARK    3  A    between atoms: C_16  and  C_5 
REMARK    4  A    between atoms: C_7  and  C_8 
ROOT
ATOM      1  N   UNL d   1     -40.334  15.308  19.218  0.00  0.00    -0.251 N 
ATOM      2  C   UNL d   1     -39.318  15.420  18.364  0.00  0.00     0.101 A 
ATOM      3  C   UNL d   1     -40.631  15.588  18.501  0.00  0.00     0.305 A 
ATOM      4  C   UNL d   1     -39.999  15.658  17.970  0.00  0.00     0.256 A 
ATOM      5  C   UNL d   1     -39.523  15.206  19.128  0.00  0.00     0.075 A 
ATOM      6  O   UNL d   1     -41.423  15.769  18.337  0.00  0.00    -0.263 OA
ATOM      7  O   UNL d   1     -40.059  15.919  17.191  0.00  0.00    -0.281 OA
ENDROOT
BRANCH   2   8
ATOM      8  C   UNL d   1     -38.558  15.403  18.035  0.00  0.00     0.223 C 
ATOM      9  O   UNL d   1     -37.940  15.801  18.410  0.00  0.00    -0.284 OA
BRANCH   8  10
ATOM     10  C   UNL d   1     -38.416  14.994  17.340  0.00  0.00     0.139 A 
ATOM     11  O   UNL d   1     -38.317  14.179  17.266  0.00  0.00    -0.304 OA
ATOM     12  C   UNL d   1     -38.187  14.003  16.471  0.00  0.00     0.100 A 
ATOM     13  C   UNL d   1     -38.055  13.294  16.084  0.00  0.00     0.025 A 
ATOM     14  C   UNL d   1     -38.205  14.709  16.058  0.00  0.00     0.025 A 
ATOM     15  C   UNL d   1     -37.941  13.290  15.271  0.00  0.00     0.002 A 
ATOM     16  C   UNL d   1     -37.959  14.002  14.847  0.00  0.00     0.000 A 
ATOM     17  C   UNL d   1     -38.091  14.707  15.246  0.00  0.00     0.002 A 
ATOM     18  C   UNL d   1     -38.346  15.322  16.587  0.00  0.00     0.030 A 
ENDBRANCH   8  10
ENDBRANCH   2   8
BRANCH   5  19
ATOM     19  C   UNL d   1     -38.995  14.931  19.711  0.00  0.00     0.017 A 
ATOM     20  C   UNL d   1     -38.840  14.116  19.776  0.00  0.00     0.002 A 
ATOM     21  C   UNL d   1     -38.316  13.835  20.354  0.00  0.00     0.000 A 
ATOM     22  C   UNL d   1     -37.941  14.371  20.876  0.00  0.00     0.000 A 
ATOM     23  C   UNL d   1     -38.103  15.189  20.806  0.00  0.00     0.000 A 
ATOM     24  C   UNL d   1     -38.630  15.468  20.222  0.00  0.00     0.002 A 
ENDBRANCH   5  19
BRANCH   1  25
ATOM     25  C   UNL d   1     -40.770  15.160  19.894  0.00  0.00     0.182 A 
ATOM     26  N   UNL d   1     -41.116  14.437  20.109  0.00  0.00    -0.220 NA
ATOM     27  C   UNL d   1     -41.499  14.541  20.827  0.00  0.00     0.108 A 
ATOM     28  C   UNL d   1     -41.396  15.324  21.062  0.00  0.00     0.059 A 
ATOM     29  S   UNL d   1     -40.946  15.706  20.486  0.00  0.00    -0.048 SA
ENDBRANCH   1  25
TORSDOF 4
ENDMDL
MODEL 4
REMARK VINA RESULT:      -5.7      6.860      8.626
REMARK  4 active torsions:
REMARK  status: ('A' for Active; 'I' for Inactive)
REMARK    1  A    between atoms: C_6  and  N_1 
REMARK    2  A    between atoms: C_8  and  C_2 
REMARK    3  A    between atoms: C_16  and  C_5 
REMARK    4  A    between atoms: C_7  and  C_8 
ROOT
ATOM      1  N   UNL d   1     -39.615  15.186  19.311  0.00  0.00    -0.251 N 
ATOM      2  C   UNL d   1     -39.361  15.314  20.612  0.00  0.00     0.101 A 
ATOM      3  C   UNL d   1     -38.832  15.433  19.396  0.00  0.00     0.305 A 
ATOM      4  C   UNL d   1     -38.675  15.513  20.206  0.00  0.00     0.256 A 
ATOM      5  C   UNL d   1     -39.937  15.114  20.064  0.00  0.00     0.075 A 
ATOM      6  O   UNL d   1     -38.295  15.578  18.782  0.00  0.00    -0.263 OA
ATOM      7  O   UNL d   1     -37.955  15.749  20.529  0.00  0.00    -0.281 OA
ENDROOT
BRANCH   2   8
ATOM      8  C   UNL d   1     -39.446  15.318  21.436  0.00  0.00     0.223 C 
ATOM      9  O   UNL d   1     -39.879  15.919  21.801  0.00  0.00    -0.284 OA
BRANCH   8  10
ATOM     10  C   UNL d   1     -39.103  14.731  21.891  0.00  0.00     0.139 A 
ATOM     11  O   UNL d   1     -38.959  13.954  21.655  0.00  0.00    -0.304 OA
ATOM     12  C   UNL d   1     -38.608  13.550  22.283  0.00  0.00     0.100 A 
ATOM     13  C   UNL d   1     -38.350  12.777  22.358  0.00  0.00     0.025 A 
ATOM     14  C   UNL d   1     -38.536  14.080  22.903  0.00  0.00     0.025 A 
ATOM     15  C   UNL d   1     -38.015  12.529  23.066  0.00  0.00     0.002 A 
ATOM     16  C   UNL d   1     -37.940  13.060  23.698  0.00  0.00     0.000 A 
ATOM     17  C   UNL d   1     -38.202  13.832  23.610  0.00  0.00     0.002 A 
ATOM     18  C   UNL d   1     -38.839  14.807  22.668  0.00  0.00     0.030 A 
ENDBRANCH   8  10
ENDBRANCH   2   8
BRANCH   5  19
ATOM     19  C   UNL d   1     -40.715  14.878  20.244  0.00  0.00     0.017 A 
ATOM     20  C   UNL d   1     -40.894  14.068  20.318  0.00  0.00     0.002 A 
ATOM     21  C   UNL d   1     -41.666  13.825  20.497  0.00  0.00     0.000 A 
ATOM     22  C   UNL d   1     -42.270  14.394  20.604  0.00  0.00     0.000 A 
ATOM     23  C   UNL d   1     -42.083  15.207  20.528  0.00  0.00     0.000 A 
ATOM     24  C   UNL d   1     -41.305  15.447  20.348  0.00  0.00     0.002 A 
ENDBRANCH   5  19
BRANCH   1  25
ATOM     25  C   UNL d   1     -39.998  15.040  18.602  0.00  0.00     0.182 A 
ATOM     26  N   UNL d   1     -40.070  14.306  18.224  0.00  0.00    -0.220 NA
ATOM     27  C   UNL d   1     -40.496  14.416  17.531  0.00  0.00     0.108 A 
ATOM     28  C   UNL d   1     -40.690  15.216  17.474  0.00  0.00     0.059 A 
ATOM     29  S   UNL d   1     -40.383  15.601  18.136  0.00  0.00    -0.048 SA
ENDBRANCH   1  25
TORSDOF 4
ENDMDL
