MODEL 1
REMARK VINA RESULT:      -8.2      0.000      0.000
REMARK  4 active torsions:
REMARK  status: ('A' for Active; 'I' for Inactive)
REMARK    1  A    between atoms: C_6  and  N_1 
REMARK    2  A    between atoms: C_11  and  C_6 
REMARK    3  A    between atoms: O_14  and  C_8 
REMARK    4  A    between atoms: O_15  and  C_9 
ROOT
ATOM      1  C   UNL d   1     -48.668  13.166  22.194  0.00  0.00     0.084 C 
ENDROOT
BRANCH   1   2
ATOM      2  N   UNL d   1     -49.343  13.352  22.630  0.00  0.00    -0.268 N 
ATOM      3  C   UNL d   1     -49.942  12.822  22.844  0.00  0.00     0.296 A 
ATOM      4  S   UNL d   1     -50.511  13.246  23.277  0.00  0.00    -0.025 SA
ATOM      5  O   UNL d   1     -49.968  12.018  22.661  0.00  0.00    -0.259 OA
ATOM      6  C   UNL d   1     -50.259  14.031  23.325  0.00  0.00     0.050 A 
ATOM      7  C   UNL d   1     -49.540  14.100  22.927  0.00  0.00     0.073 A 
ATOM      8  C   UNL d   1     -50.589  14.707  23.682  0.00  0.00     0.008 A 
ATOM      9  C   UNL d   1     -49.151  14.825  22.881  0.00  0.00     0.018 A 
ATOM     10  C   UNL d   1     -49.482  15.491  23.236  0.00  0.00     0.002 A 
ATOM     11  C   UNL d   1     -50.204  15.431  23.638  0.00  0.00     0.001 A 
ENDBRANCH   1   2
BRANCH   1  12
ATOM     12  C   UNL d   1     -48.008  12.836  22.574  0.00  0.00     0.020 A 
ATOM     13  C   UNL d   1     -47.324  13.277  22.646  0.00  0.00     0.028 A 
ATOM     14  C   UNL d   1     -46.670  12.952  23.021  0.00  0.00     0.116 A 
ATOM     15  C   UNL d   1     -46.703  12.177  23.327  0.00  0.00     0.116 A 
ATOM     16  C   UNL d   1     -47.401  11.740  23.248  0.00  0.00     0.026 A 
ATOM     17  C   UNL d   1     -48.057  12.074  22.869  0.00  0.00     0.004 A 
BRANCH  14  18
ATOM     18  O   UNL d   1     -45.977  13.391  23.097  0.00  0.00    -0.326 OA
ATOM     19  C   UNL d   1     -45.816  14.015  22.570  0.00  0.00     0.181 C 
ENDBRANCH  14  18
BRANCH  15  20
ATOM     20  O   UNL d   1     -46.031  11.880  23.698  0.00  0.00    -0.326 OA
ATOM     21  C   UNL d   1     -45.880  11.074  23.698  0.00  0.00     0.181 C 
ENDBRANCH  15  20
ENDBRANCH   1  12
TORSDOF 4
ENDMDL
MODEL 2
REMARK VINA RESULT:      -8.2      1.444      2.269
REMARK  4 active torsions:
REMARK  status: ('A' for Active; 'I' for Inactive)
REMARK    1  A    between atoms: C_6  and  N_1 
REMARK    2  A    between atoms: C_11  and  C_6 
REMARK    3  A    between atoms: O_14  and  C_8 
REMARK    4  A    between atoms: O_15  and  C_9 
ROOT
ATOM      1  C   UNL d   1     -47.977  13.681  23.334  0.00  0.00     0.084 C 
ENDROOT
BRANCH   1   2
ATOM      2  N   UNL d   1     -48.556  13.856  22.773  0.00  0.00    -0.268 N 
ATOM      3  C   UNL d   1     -48.668  14.589  22.405  0.00  0.00     0.296 A 
ATOM      4  S   UNL d   1     -49.310  14.512  21.882  0.00  0.00    -0.025 SA
ATOM      5  O   UNL d   1     -48.222  15.271  22.535  0.00  0.00    -0.259 OA
ATOM      6  C   UNL d   1     -49.587  13.736  21.931  0.00  0.00     0.050 A 
ATOM      7  C   UNL d   1     -49.124  13.329  22.480  0.00  0.00     0.073 A 
ATOM      8  C   UNL d   1     -50.206  13.334  21.548  0.00  0.00     0.008 A 
ATOM      9  C   UNL d   1     -49.271  12.535  22.648  0.00  0.00     0.018 A 
ATOM     10  C   UNL d   1     -49.886  12.142  22.265  0.00  0.00     0.002 A 
ATOM     11  C   UNL d   1     -50.356  12.544  21.713  0.00  0.00     0.001 A 
ENDBRANCH   1   2
BRANCH   1  12
ATOM     12  C   UNL d   1     -47.218  13.453  23.090  0.00  0.00     0.020 A 
ATOM     13  C   UNL d   1     -46.900  12.754  23.368  0.00  0.00     0.028 A 
ATOM     14  C   UNL d   1     -46.149  12.526  23.127  0.00  0.00     0.116 A 
ATOM     15  C   UNL d   1     -45.713  13.005  22.602  0.00  0.00     0.116 A 
ATOM     16  C   UNL d   1     -46.045  13.710  22.327  0.00  0.00     0.026 A 
ATOM     17  C   UNL d   1     -46.803  13.934  22.574  0.00  0.00     0.004 A 
BRANCH  14  18
ATOM     18  O   UNL d   1     -45.823  11.822  23.404  0.00  0.00    -0.326 OA
ATOM     19  C   UNL d   1     -46.314  11.218  23.698  0.00  0.00     0.181 C 
ENDBRANCH  14  18
BRANCH  15  20
ATOM     20  O   UNL d   1     -44.963  12.748  22.380  0.00  0.00    -0.326 OA
ATOM     21  C   UNL d   1     -44.526  13.174  21.832  0.00  0.00     0.181 C 
ENDBRANCH  15  20
ENDBRANCH   1  12
TORSDOF 4
ENDMDL
MODEL 3
REMARK VINA RESULT:      -7.8      1.472      4.093
REMARK  4 active torsions:
REMARK  status: ('A' for Active; 'I' for Inactive)
REMARK    1  A    between atoms: C_6  and  N_1 
REMARK    2  A    between atoms: C_11  and  C_6 
REMARK    3  A    between atoms: O_14  and  C_8 
REMARK    4  A    between atoms: O_15  and  C_9 
ROOT
ATOM      1  C   UNL d   1     -48.183  13.830  22.138  0.00  0.00     0.084 C 
ENDROOT
BRANCH   1   2
ATOM      2  N   UNL d   1     -47.550  13.591  22.611  0.00  0.00    -0.268 N 
ATOM      3  C   UNL d   1     -46.938  14.078  22.884  0.00  0.00     0.296 A 
ATOM      4  S   UNL d   1     -46.426  13.607  23.339  0.00  0.00    -0.025 SA
ATOM      5  O   UNL d   1     -46.854  14.884  22.730  0.00  0.00    -0.259 OA
ATOM      6  C   UNL d   1     -46.725  12.838  23.343  0.00  0.00     0.050 A 
ATOM      7  C   UNL d   1     -47.419  12.825  22.896  0.00  0.00     0.073 A 
ATOM      8  C   UNL d   1     -46.461  12.133  23.698  0.00  0.00     0.008 A 
ATOM      9  C   UNL d   1     -47.845  12.126  22.799  0.00  0.00     0.018 A 
ATOM     10  C   UNL d   1     -47.578  11.431  23.153  0.00  0.00     0.002 A 
ATOM     11  C   UNL d   1     -46.883  11.435  23.604  0.00  0.00     0.001 A 
ENDBRANCH   1   2
BRANCH   1  12
ATOM     12  C   UNL d   1     -48.859  14.161  22.487  0.00  0.00     0.020 A 
ATOM     13  C   UNL d   1     -49.580  13.787  22.398  0.00  0.00     0.028 A 
ATOM     14  C   UNL d   1     -50.250  14.112  22.741  0.00  0.00     0.116 A 
ATOM     15  C   UNL d   1     -50.197  14.820  23.179  0.00  0.00     0.116 A 
ATOM     16  C   UNL d   1     -49.462  15.190  23.262  0.00  0.00     0.026 A 
ATOM     17  C   UNL d   1     -48.790  14.856  22.912  0.00  0.00     0.004 A 
BRANCH  14  18
ATOM     18  O   UNL d   1     -50.980  13.740  22.656  0.00  0.00    -0.326 OA
ATOM     19  C   UNL d   1     -51.021  12.953  22.390  0.00  0.00     0.181 C 
ENDBRANCH  14  18
BRANCH  15  20
ATOM     20  O   UNL d   1     -50.888  15.121  23.511  0.00  0.00    -0.326 OA
ATOM     21  C   UNL d   1     -50.944  15.918  23.698  0.00  0.00     0.181 C 
ENDBRANCH  15  20
ENDBRANCH   1  12
TORSDOF 4
ENDMDL
MODEL 4
REMARK VINA RESULT:      -7.0      1.551      3.702
REMARK  4 active torsions:
REMARK  status: ('A' for Active; 'I' for Inactive)
REMARK    1  A    between atoms: C_6  and  N_1 
REMARK    2  A    between atoms: C_11  and  C_6 
REMARK    3  A    between atoms: O_14  and  C_8 
REMARK    4  A    between atoms: O_15  and  C_9 
ROOT
ATOM      1  C   UNL d   1     -48.469  13.034  23.698  0.00  0.00     0.084 C 
ENDROOT
BRANCH   1   2
ATOM      2  N   UNL d   1     -47.783  12.659  23.434  0.00  0.00    -0.268 N 
ATOM      3  C   UNL d   1     -47.655  11.841  23.416  0.00  0.00     0.296 A 
ATOM      4  S   UNL d   1     -46.893  11.712  23.110  0.00  0.00    -0.025 SA
ATOM      5  O   UNL d   1     -48.189  11.260  23.659  0.00  0.00    -0.259 OA
ATOM      6  C   UNL d   1     -46.559  12.448  22.943  0.00  0.00     0.050 A 
ATOM      7  C   UNL d   1     -47.105  13.034  23.141  0.00  0.00     0.073 A 
ATOM      8  C   UNL d   1     -45.821  12.673  22.632  0.00  0.00     0.008 A 
ATOM      9  C   UNL d   1     -46.926  13.831  23.034  0.00  0.00     0.018 A 
ATOM     10  C   UNL d   1     -46.193  14.049  22.725  0.00  0.00     0.002 A 
ATOM     11  C   UNL d   1     -45.638  13.467  22.523  0.00  0.00     0.001 A 
ENDBRANCH   1   2
BRANCH   1  12
ATOM     12  C   UNL d   1     -49.074  13.216  23.161  0.00  0.00     0.020 A 
ATOM     13  C   UNL d   1     -49.390  13.969  23.153  0.00  0.00     0.028 A 
ATOM     14  C   UNL d   1     -49.990  14.152  22.622  0.00  0.00     0.116 A 
ATOM     15  C   UNL d   1     -50.275  13.572  22.094  0.00  0.00     0.116 A 
ATOM     16  C   UNL d   1     -49.947  12.814  22.112  0.00  0.00     0.026 A 
ATOM     17  C   UNL d   1     -49.342  12.636  22.650  0.00  0.00     0.004 A 
BRANCH  14  18
ATOM     18  O   UNL d   1     -50.313  14.910  22.609  0.00  0.00    -0.326 OA
ATOM     19  C   UNL d   1     -49.987  15.513  23.079  0.00  0.00     0.181 C 
ENDBRANCH  14  18
BRANCH  15  20
ATOM     20  O   UNL d   1     -50.876  13.787  21.575  0.00  0.00    -0.326 OA
ATOM     21  C   UNL d   1     -51.064  13.305  20.938  0.00  0.00     0.181 C 
ENDBRANCH  15  20
ENDBRANCH   1  12
TORSDOF 4
ENDMDL
MODEL 5
REMARK VINA RESULT:      -5.7      8.192     10.247
REMARK  4 active torsions:
REMARK  status: ('A' for Active; 'I' for Inactive)
REMARK    1  A    between atoms: C_6  and  N_1 
REMARK    2  A    between atoms: C_11  and  C_6 
REMARK    3  A    between atoms: O_14  and  C_8 
REMARK    4  A    between atoms: O_15  and  C_9 
ROOT
ATOM      1  C   UNL d   1     -40.359  14.326  18.741  0.00  0.00     0.084 C 
ENDROOT
BRANCH   1   2
ATOM      2  N   UNL d   1     -40.046  14.587  18.023  0.00  0.00    -0.268 N 
ATOM      3  C   UNL d   1     -40.243  15.293  17.637  0.00  0.00     0.296 A 
ATOM      4  S   UNL d   1     -39.797  15.329  16.937  0.00  0.00    -0.025 SA
ATOM      5  O   UNL d   1     -40.785  15.856  17.901  0.00  0.00    -0.259 OA
ATOM      6  C   UNL d   1     -39.330  14.649  16.897  0.00  0.00     0.050 A 
ATOM      7  C   UNL d   1     -39.482  14.189  17.566  0.00  0.00     0.073 A 
ATOM      8  C   UNL d   1     -38.778  14.377  16.337  0.00  0.00     0.008 A 
ATOM      9  C   UNL d   1     -39.094  13.471  17.680  0.00  0.00     0.018 A 
ATOM     10  C   UNL d   1     -38.549  13.206  17.122  0.00  0.00     0.002 A 
ATOM     11  C   UNL d   1     -38.390  13.662  16.447  0.00  0.00     0.001 A 
ENDBRANCH   1   2
BRANCH   1  12
ATOM     12  C   UNL d   1     -40.084  14.648  19.454  0.00  0.00     0.020 A 
ATOM     13  C   UNL d   1     -40.584  15.110  19.905  0.00  0.00     0.028 A 
ATOM     14  C   UNL d   1     -40.314  15.429  20.611  0.00  0.00     0.116 A 
ATOM     15  C   UNL d   1     -39.534  15.283  20.868  0.00  0.00     0.116 A 
ATOM     16  C   UNL d   1     -39.037  14.813  20.403  0.00  0.00     0.026 A 
ATOM     17  C   UNL d   1     -39.316  14.494  19.691  0.00  0.00     0.004 A 
BRANCH  14  18
ATOM     18  O   UNL d   1     -40.813  15.897  21.071  0.00  0.00    -0.326 OA
ATOM     19  C   UNL d   1     -41.638  15.850  20.974  0.00  0.00     0.181 C 
ENDBRANCH  14  18
BRANCH  15  20
ATOM     20  O   UNL d   1     -39.293  15.617  21.580  0.00  0.00    -0.326 OA
ATOM     21  C   UNL d   1     -38.507  15.581  21.810  0.00  0.00     0.181 C 
ENDBRANCH  15  20
ENDBRANCH   1  12
TORSDOF 4
ENDMDL
