MODEL 1
REMARK VINA RESULT:      46.8      0.000      0.000
REMARK  7 active torsions:
REMARK  status: ('A' for Active; 'I' for Inactive)
REMARK    1  A    between atoms: C_13  and  N_1 
REMARK    2  A    between atoms: C_2  and  N_6 
REMARK    3  A    between atoms: C_8  and  C_5 
REMARK       I    between atoms: N_6  and  C_8 
REMARK    4  A    between atoms: S_20  and  C_9 
REMARK    5  A    between atoms: C_14  and  C_19 
REMARK    6  A    between atoms: C_19  and  C_23 
REMARK    7  A    between atoms: C_23  and  S_20 
ROOT
ATOM      1  N   UNL d   1     -54.791-101.171 -40.494  0.00  0.00    -0.181 NA
ATOM      2  C   UNL d   1     -54.756-101.861 -40.155  0.00  0.00     0.283 C 
ATOM      3  O   UNL d   1     -54.720-102.500 -40.584  0.00  0.00    -0.265 OA
ENDROOT
BRANCH   2   4
ATOM      4  C   UNL d   1     -54.757-101.911 -39.390  0.00  0.00     0.080 A 
ATOM      5  C   UNL d   1     -54.766-101.327 -38.894  0.00  0.00     0.088 A 
ATOM      6  N   UNL d   1     -54.764-101.618 -38.182  0.00  0.00    -0.273 N 
ATOM      7  C   UNL d   1     -54.754-102.379 -38.239  0.00  0.00     0.265 A 
ATOM      8  C   UNL d   1     -54.749-102.568 -38.988  0.00  0.00     0.067 A 
ATOM      9  O   UNL d   1     -54.748-102.880 -37.648  0.00  0.00    -0.267 OA
BRANCH   6  10
ATOM     10  C   UNL d   1     -54.771-101.177 -37.478  0.00  0.00     0.067 A 
ATOM     11  C   UNL d   1     -54.799-101.572 -36.753  0.00  0.00     0.020 A 
ATOM     12  C   UNL d   1     -54.807-101.125 -36.057  0.00  0.00     0.031 A 
ATOM     13  C   UNL d   1     -54.786-100.307 -36.081  0.00  0.00     0.140 A 
ATOM     14  C   UNL d   1     -54.758 -99.918 -36.814  0.00  0.00     0.031 A 
ATOM     15  F   UNL d   1     -54.794 -99.859 -35.378  0.00  0.00    -0.204 F 
ATOM     16  C   UNL d   1     -54.751-100.348 -37.503  0.00  0.00     0.020 A 
ENDBRANCH   6  10
ENDBRANCH   2   4
BRANCH   1  17
ATOM     17  C   UNL d   1     -54.790-101.116 -41.262  0.00  0.00     0.219 A 
ATOM     18  S   UNL d   1     -54.763-100.463 -41.669  0.00  0.00    -0.019 SA
ATOM     19  C   UNL d   1     -54.772-100.646 -42.409  0.00  0.00     0.165 A 
ATOM     20  N   UNL d   1     -54.805-101.413 -42.476  0.00  0.00    -0.133 NA
ATOM     21  N   UNL d   1     -54.817-101.708 -41.753  0.00  0.00    -0.120 NA
BRANCH  19  22
ATOM     22  S   UNL d   1     -54.719 -99.362 -43.514  0.00  0.00    -0.059 SA
BRANCH  22  23
ATOM     23  C   UNL d   1     -55.030 -99.454 -44.273  0.00  0.00     0.042 C 
BRANCH  23  24
ATOM     24  C   UNL d   1     -55.653 -99.986 -44.401  0.00  0.00     0.058 C 
BRANCH  24  25
ATOM     25  C   UNL d   1     -56.414 -99.690 -44.515  0.00  0.00     0.204 A 
ATOM     26  O   UNL d   1     -57.094 -99.918 -44.096  0.00  0.00    -0.281 OA
ATOM     27  C   UNL d   1     -57.733 -99.479 -44.394  0.00  0.00     0.152 A 
ATOM     28  C   UNL d   1     -57.445 -98.984 -44.993  0.00  0.00     0.152 A 
ATOM     29  O   UNL d   1     -56.632 -99.111 -45.070  0.00  0.00    -0.281 OA
ENDBRANCH  24  25
ENDBRANCH  23  24
ENDBRANCH  22  23
ENDBRANCH  19  22
ENDBRANCH   1  17
TORSDOF 7
ENDMDL
