MODEL 1
REMARK VINA RESULT:      12.7      0.000      0.000
REMARK  3 active torsions:
REMARK  status: ('A' for Active; 'I' for Inactive)
REMARK    1  A    between atoms: N_2  and  S_1 
REMARK    2  A    between atoms: N_3  and  S_1 
REMARK    3  A    between atoms: C_6  and  N_2 
ROOT
ATOM      1  C   UNL d   1     -51.637  25.137  33.564  0.00  0.00     0.095 A 
ATOM      2  C   UNL d   1     -52.751  23.903  33.393  0.00  0.00     0.000 A 
ATOM      3  C   UNL d   1     -51.384  24.349  33.557  0.00  0.00     0.020 A 
ATOM      4  C   UNL d   1     -52.436  25.309  33.486  0.00  0.00     0.020 A 
ATOM      5  C   UNL d   1     -51.950  23.722  33.471  0.00  0.00     0.002 A 
ATOM      6  C   UNL d   1     -53.003  24.681  33.399  0.00  0.00     0.002 A 
ATOM      7  C   UNL d   1     -53.302  23.293  33.309  0.00  0.00     0.000 C 
ENDROOT
BRANCH   1   8
ATOM      8  N   UNL d   1     -51.087  25.746  33.648  0.00  0.00    -0.144 NA
BRANCH   8   9
ATOM      9  S   UNL d   1     -51.305  26.521  33.468  0.00  0.00     0.351 S 
ATOM     10  O   UNL d   1     -52.096  26.301  33.455  0.00  0.00    -0.180 OA
ATOM     11  O   UNL d   1     -51.888  27.083  33.306  0.00  0.00    -0.180 OA
BRANCH   9  12
ATOM     12  N   UNL d   1     -50.724  27.101  33.388  0.00  0.00    -0.212 N 
ATOM     13  C   UNL d   1     -49.933  26.879  33.307  0.00  0.00     0.113 C 
ATOM     14  C   UNL d   1     -50.936  27.896  33.390  0.00  0.00     0.113 C 
ENDBRANCH   9  12
ENDBRANCH   8   9
ENDBRANCH   1   8
TORSDOF 3
ENDMDL
