MODEL 1
REMARK VINA RESULT:      -6.6      0.000      0.000
REMARK  3 active torsions:
REMARK  status: ('A' for Active; 'I' for Inactive)
REMARK    1  A    between atoms: C_2  and  C_3 
REMARK    2  A    between atoms: C_5  and  C_2 
REMARK    3  A    between atoms: C_3  and  C_6 
ROOT
ATOM      1  N   UNL d   1     -41.781-122.141 -53.052  0.00  0.00    -0.246 NA
ATOM      2  C   UNL d   1     -41.868-122.177 -53.871  0.00  0.00     0.081 A 
ATOM      3  C   UNL d   1     -41.398-122.778 -52.663  0.00  0.00     0.081 A 
ATOM      4  C   UNL d   1     -41.578-122.835 -54.296  0.00  0.00     0.018 A 
ATOM      5  C   UNL d   1     -41.211-123.437 -53.890  0.00  0.00     0.003 A 
ATOM      6  C   UNL d   1     -41.123-123.404 -53.067  0.00  0.00     0.019 A 
ATOM      7  C   UNL d   1     -42.244-121.556 -54.272  0.00  0.00     0.019 A 
ATOM      8  C   UNL d   1     -41.674-122.852 -55.110  0.00  0.00     0.002 A 
ATOM      9  C   UNL d   1     -42.322-121.610 -55.097  0.00  0.00     0.002 A 
ATOM     10  C   UNL d   1     -42.047-122.235 -55.502  0.00  0.00     0.000 A 
ENDROOT
BRANCH   3  11
ATOM     11  C   UNL d   1     -41.294-122.773 -51.835  0.00  0.00     0.019 C 
BRANCH  11  12
ATOM     12  C   UNL d   1     -41.899-122.547 -51.335  0.00  0.00     0.005 C 
BRANCH  12  13
ATOM     13  C   UNL d   1     -41.857-122.730 -50.532  0.00  0.00     0.039 A 
ATOM     14  C   UNL d   1     -42.503-122.619 -50.054  0.00  0.00     0.196 A 
ATOM     15  O   UNL d   1     -43.236-122.315 -50.357  0.00  0.00    -0.287 OA
ATOM     16  C   UNL d   1     -42.462-122.803 -49.251  0.00  0.00     0.042 A 
ATOM     17  C   UNL d   1     -41.750-123.103 -48.942  0.00  0.00     0.003 A 
ATOM     18  C   UNL d   1     -41.123-123.211 -49.401  0.00  0.00     0.000 A 
ATOM     19  C   UNL d   1     -41.163-123.028 -50.204  0.00  0.00     0.003 A 
ENDBRANCH  12  13
ENDBRANCH  11  12
ENDBRANCH   3  11
TORSDOF 3
ENDMDL
MODEL 2
REMARK VINA RESULT:      -6.2      1.183      4.395
REMARK  3 active torsions:
REMARK  status: ('A' for Active; 'I' for Inactive)
REMARK    1  A    between atoms: C_2  and  C_3 
REMARK    2  A    between atoms: C_5  and  C_2 
REMARK    3  A    between atoms: C_3  and  C_6 
ROOT
ATOM      1  N   UNL d   1     -41.866-123.190 -51.618  0.00  0.00    -0.246 NA
ATOM      2  C   UNL d   1     -41.948-123.196 -50.798  0.00  0.00     0.081 A 
ATOM      3  C   UNL d   1     -41.451-122.553 -51.974  0.00  0.00     0.081 A 
ATOM      4  C   UNL d   1     -41.623-122.579 -50.338  0.00  0.00     0.018 A 
ATOM      5  C   UNL d   1     -41.226-121.974 -50.713  0.00  0.00     0.003 A 
ATOM      6  C   UNL d   1     -41.142-121.966 -51.537  0.00  0.00     0.019 A 
ATOM      7  C   UNL d   1     -42.355-123.817 -50.430  0.00  0.00     0.019 A 
ATOM      8  C   UNL d   1     -41.715-122.602 -49.524  0.00  0.00     0.002 A 
ATOM      9  C   UNL d   1     -42.427-123.806 -49.602  0.00  0.00     0.002 A 
ATOM     10  C   UNL d   1     -42.118-123.219 -49.165  0.00  0.00     0.000 A 
ENDROOT
BRANCH   3  11
ATOM     11  C   UNL d   1     -41.350-122.517 -52.802  0.00  0.00     0.019 C 
BRANCH  11  12
ATOM     12  C   UNL d   1     -41.948-122.247 -53.288  0.00  0.00     0.005 C 
BRANCH  12  13
ATOM     13  C   UNL d   1     -41.854-122.277 -54.106  0.00  0.00     0.039 A 
ATOM     14  C   UNL d   1     -42.387-121.905 -54.592  0.00  0.00     0.196 A 
ATOM     15  O   UNL d   1     -43.052-121.477 -54.281  0.00  0.00    -0.287 OA
ATOM     16  C   UNL d   1     -42.294-121.934 -55.411  0.00  0.00     0.042 A 
ATOM     17  C   UNL d   1     -41.647-122.349 -55.729  0.00  0.00     0.003 A 
ATOM     18  C   UNL d   1     -41.129-122.711 -55.262  0.00  0.00     0.000 A 
ATOM     19  C   UNL d   1     -41.222-122.682 -54.443  0.00  0.00     0.003 A 
ENDBRANCH  12  13
ENDBRANCH  11  12
ENDBRANCH   3  11
TORSDOF 3
ENDMDL
