MODEL 1
REMARK VINA RESULT:      17.6      0.000      0.000
REMARK  5 active torsions:
REMARK  status: ('A' for Active; 'I' for Inactive)
REMARK    1  A    between atoms: C_12  and  C_3 
REMARK    2  A    between atoms: C_14  and  N_5 
REMARK    3  A    between atoms: C_11  and  C_6 
REMARK    4  A    between atoms: O_25  and  C_12 
REMARK    5  A    between atoms: C_24  and  C_14 
ROOT
ATOM      1  C   UNL d   1     -41.505-122.584 -52.945  0.00  0.00     0.080 A 
ATOM      2  C   UNL d   1     -41.531-122.178 -52.224  0.00  0.00     0.267 A 
ATOM      3  C   UNL d   1     -41.603-122.592 -54.377  0.00  0.00     0.106 A 
ATOM      4  C   UNL d   1     -41.352-123.402 -52.959  0.00  0.00     0.108 A 
ATOM      5  N   UNL d   1     -41.404-122.589 -51.513  0.00  0.00    -0.271 N 
ATOM      6  C   UNL d   1     -41.629-122.185 -53.656  0.00  0.00     0.015 A 
ATOM      7  C   UNL d   1     -41.451-123.401 -54.386  0.00  0.00     0.208 A 
ATOM      8  O   UNL d   1     -41.323-123.817 -53.675  0.00  0.00    -0.288 OA
ATOM      9  C   UNL d   1     -41.226-123.809 -52.251  0.00  0.00     0.043 A 
ATOM     10  C   UNL d   1     -41.251-123.407 -51.526  0.00  0.00     0.069 A 
ATOM     11  O   UNL d   1     -41.683-121.368 -52.211  0.00  0.00    -0.267 OA
ATOM     12  N   UNL d   1     -41.424-123.812 -55.106  0.00  0.00    -0.121 N 
ATOM     13  C   UNL d   1     -41.125-123.814 -50.824  0.00  0.00     0.019 C 
ENDROOT
BRANCH   6  14
ATOM     14  C   UNL d   1     -41.781-121.376 -53.647  0.00  0.00     0.001 A 
ATOM     15  C   UNL d   1     -42.559-121.106 -53.717  0.00  0.00     0.012 A 
ATOM     16  C   UNL d   1     -42.712-120.296 -53.709  0.00  0.00     0.068 A 
ATOM     17 CL   UNL d   1     -43.484-120.026 -53.779  0.00  0.00    -0.082 Cl
ATOM     18  C   UNL d   1     -42.095-119.758 -53.631  0.00  0.00     0.068 A 
ATOM     19  C   UNL d   1     -41.311-120.040 -53.561  0.00  0.00     0.012 A 
ATOM     20 CL   UNL d   1     -42.243-118.948 -53.623  0.00  0.00    -0.082 Cl
ATOM     21  C   UNL d   1     -41.162-120.850 -53.570  0.00  0.00     0.001 A 
ENDBRANCH   6  14
BRANCH   3  22
ATOM     22  C   UNL d   1     -41.727-122.192 -55.079  0.00  0.00     0.299 C 
ATOM     23  O   UNL d   1     -41.126-121.733 -55.407  0.00  0.00    -0.259 OA
BRANCH  22  24
ATOM     24  O   UNL d   1     -42.451-122.245 -55.465  0.00  0.00    -0.296 OA
ATOM     25  C   UNL d   1     -42.516-122.044 -56.265  0.00  0.00     0.185 C 
ENDBRANCH  22  24
ENDBRANCH   3  22
BRANCH   5  26
ATOM     26  C   UNL d   1     -41.428-122.195 -50.797  0.00  0.00     0.108 C 
BRANCH  26  27
ATOM     27  C   UNL d   1     -42.080-122.273 -50.302  0.00  0.00     0.118 A 
ATOM     28  O   UNL d   1     -42.817-121.944 -50.418  0.00  0.00    -0.304 OA
ATOM     29  C   UNL d   1     -43.301-122.162 -49.791  0.00  0.00     0.123 A 
ATOM     30  C   UNL d   1     -42.861-122.634 -49.275  0.00  0.00     0.029 A 
ATOM     31  C   UNL d   1     -42.101-122.701 -49.596  0.00  0.00     0.028 A 
ENDBRANCH  26  27
ENDBRANCH   5  26
TORSDOF 5
ENDMDL
