MODEL 1
REMARK VINA RESULT:      13.5      0.000      0.000
REMARK  2 active torsions:
REMARK  status: ('A' for Active; 'I' for Inactive)
REMARK       I    between atoms: C_3  and  N_1 
REMARK    1  A    between atoms: C_7  and  C_3 
REMARK    2  A    between atoms: O_15  and  C_11 
ROOT
ATOM      1  N   UNL d   1      45.544 -13.250  44.045  0.00  0.00    -0.195 N 
ATOM      2  N   UNL d   1      44.885 -13.427  43.568  0.00  0.00    -0.163 NA
ATOM      3  C   UNL d   1      45.976 -13.765  44.520  0.00  0.00     0.280 C 
ATOM      4  C   UNL d   1      45.710 -12.482  43.981  0.00  0.00     0.088 A 
ATOM      5  C   UNL d   1      45.164 -12.131  43.459  0.00  0.00     0.040 A 
ATOM      6  C   UNL d   1      44.659 -12.720  43.209  0.00  0.00     0.103 A 
ATOM      7  O   UNL d   1      46.607 -13.477  44.947  0.00  0.00    -0.265 OA
ATOM      8  C   UNL d   1      46.343 -12.080  44.381  0.00  0.00     0.021 C 
ATOM      9  C   UNL d   1      44.019 -12.607  42.672  0.00  0.00     0.022 C 
ENDROOT
BRANCH   3  10
ATOM     10  C   UNL d   1      45.783 -14.573  44.573  0.00  0.00     0.058 A 
ATOM     11  C   UNL d   1      46.312 -15.137  44.288  0.00  0.00     0.007 A 
ATOM     12  C   UNL d   1      46.133 -15.938  44.335  0.00  0.00     0.024 A 
ATOM     13  C   UNL d   1      45.423 -16.178  44.668  0.00  0.00     0.094 A 
ATOM     14  C   UNL d   1      44.888 -15.618  44.955  0.00  0.00     0.024 A 
ATOM     15  C   UNL d   1      45.058 -14.818  44.913  0.00  0.00     0.007 A 
BRANCH  13  16
ATOM     16  O   UNL d   1      45.254 -16.993  44.709  0.00  0.00    -0.328 OA
ATOM     17  C   UNL d   1      45.873 -17.544  44.823  0.00  0.00     0.181 C 
ENDBRANCH  13  16
ENDBRANCH   3  10
TORSDOF 2
ENDMDL
MODEL 2
REMARK VINA RESULT:      16.1      2.764      5.076
REMARK  2 active torsions:
REMARK  status: ('A' for Active; 'I' for Inactive)
REMARK       I    between atoms: C_3  and  N_1 
REMARK    1  A    between atoms: C_7  and  C_3 
REMARK    2  A    between atoms: O_15  and  C_11 
ROOT
ATOM      1  N   UNL d   1      46.403 -18.918  43.388  0.00  0.00    -0.195 N 
ATOM      2  N   UNL d   1      46.417 -18.572  42.631  0.00  0.00    -0.163 NA
ATOM      3  C   UNL d   1      46.272 -18.546  44.110  0.00  0.00     0.280 C 
ATOM      4  C   UNL d   1      46.539 -19.692  43.322  0.00  0.00     0.088 A 
ATOM      5  C   UNL d   1      46.647 -19.878  42.517  0.00  0.00     0.040 A 
ATOM      6  C   UNL d   1      46.570 -19.183  42.097  0.00  0.00     0.103 A 
ATOM      7  O   UNL d   1      46.281 -18.988  44.793  0.00  0.00    -0.265 OA
ATOM      8  C   UNL d   1      46.570 -20.244  43.967  0.00  0.00     0.021 C 
ATOM      9  C   UNL d   1      46.639 -19.118  41.260  0.00  0.00     0.022 C 
ENDROOT
BRANCH   3  10
ATOM     10  C   UNL d   1      46.130 -17.727  44.158  0.00  0.00     0.058 A 
ATOM     11  C   UNL d   1      46.022 -17.374  44.895  0.00  0.00     0.007 A 
ATOM     12  C   UNL d   1      45.882 -16.567  44.955  0.00  0.00     0.024 A 
ATOM     13  C   UNL d   1      45.848 -16.108  44.276  0.00  0.00     0.094 A 
ATOM     14  C   UNL d   1      45.955 -16.454  43.534  0.00  0.00     0.024 A 
ATOM     15  C   UNL d   1      46.096 -17.258  43.464  0.00  0.00     0.007 A 
BRANCH  13  16
ATOM     16  O   UNL d   1      45.705 -15.290  44.351  0.00  0.00    -0.328 OA
ATOM     17  C   UNL d   1      44.947 -15.016  44.577  0.00  0.00     0.181 C 
ENDBRANCH  13  16
ENDBRANCH   3  10
TORSDOF 2
ENDMDL
