MODEL 1
REMARK VINA RESULT:      -7.5      0.000      0.000
REMARK  4 active torsions:
REMARK  status: ('A' for Active; 'I' for Inactive)
REMARK    1  A    between atoms: N_10  and  C_3 
REMARK    2  A    between atoms: C_11  and  C_5 
REMARK    3  A    between atoms: C_13  and  N_10 
REMARK    4  A    between atoms: C_19  and  C_13 
ROOT
ATOM      1  N   UNL d   1     -47.549  13.649  22.890  0.00  0.00    -0.195 N 
ATOM      2  C   UNL d   1     -48.371  13.813  22.974  0.00  0.00     0.167 A 
ATOM      3  C   UNL d   1     -47.264  12.886  23.054  0.00  0.00     0.167 A 
ATOM      4  N   UNL d   1     -47.321  14.996  22.485  0.00  0.00    -0.163 NA
ATOM      5  C   UNL d   1     -48.650  14.557  22.814  0.00  0.00     0.055 A 
ATOM      6  N   UNL d   1     -48.878  13.210  23.220  0.00  0.00    -0.227 NA
ATOM      7  C   UNL d   1     -47.778  12.301  23.295  0.00  0.00     0.054 A 
ATOM      8  C   UNL d   1     -48.130  15.158  22.568  0.00  0.00     0.104 A 
ATOM      9  C   UNL d   1     -48.600  12.458  23.382  0.00  0.00     0.086 A 
ATOM     10  C   UNL d   1     -47.666  11.519  23.492  0.00  0.00     0.005 A 
ATOM     11  C   UNL d   1     -48.421  15.908  22.408  0.00  0.00     0.023 C 
ATOM     12  C   UNL d   1     -48.974  11.769  23.630  0.00  0.00     0.019 A 
ATOM     13  C   UNL d   1     -48.386  11.181  23.698  0.00  0.00     0.002 A 
ENDROOT
BRANCH   5  14
ATOM     14  C   UNL d   1     -49.455  14.719  22.897  0.00  0.00     0.004 A 
ATOM     15  C   UNL d   1     -49.749  15.008  23.612  0.00  0.00     0.000 A 
ATOM     16  C   UNL d   1     -50.548  15.169  23.698  0.00  0.00     0.000 A 
ATOM     17  C   UNL d   1     -51.064  15.041  23.063  0.00  0.00     0.000 A 
ATOM     18  C   UNL d   1     -50.782  14.756  22.354  0.00  0.00     0.000 A 
ATOM     19  C   UNL d   1     -49.970  14.593  22.271  0.00  0.00     0.000 A 
ENDBRANCH   5  14
BRANCH   3  20
ATOM     20  N   UNL d   1     -46.435  12.716  22.970  0.00  0.00    -0.225 NA
BRANCH  20  21
ATOM     21  C   UNL d   1     -45.631  12.970  22.982  0.00  0.00     0.101 C 
BRANCH  21  22
ATOM     22  C   UNL d   1     -45.050  12.576  22.515  0.00  0.00     0.019 C 
ATOM     23  C   UNL d   1     -44.783  12.923  21.789  0.00  0.00     0.002 C 
ATOM     24  C   UNL d   1     -44.734  11.830  22.777  0.00  0.00     0.002 C 
ENDBRANCH  21  22
ENDBRANCH  20  21
ENDBRANCH   3  20
TORSDOF 4
ENDMDL
MODEL 2
REMARK VINA RESULT:      -6.7      7.843     10.059
REMARK  4 active torsions:
REMARK  status: ('A' for Active; 'I' for Inactive)
REMARK    1  A    between atoms: N_10  and  C_3 
REMARK    2  A    between atoms: C_11  and  C_5 
REMARK    3  A    between atoms: C_13  and  N_10 
REMARK    4  A    between atoms: C_19  and  C_13 
ROOT
ATOM      1  N   UNL d   1     -39.342  14.741  17.933  0.00  0.00    -0.195 N 
ATOM      2  C   UNL d   1     -39.870  14.939  18.559  0.00  0.00     0.167 A 
ATOM      3  C   UNL d   1     -39.543  14.933  17.150  0.00  0.00     0.167 A 
ATOM      4  N   UNL d   1     -38.438  14.171  18.876  0.00  0.00    -0.163 NA
ATOM      5  C   UNL d   1     -39.674  14.752  19.324  0.00  0.00     0.055 A 
ATOM      6  N   UNL d   1     -40.579  15.322  18.381  0.00  0.00    -0.227 NA
ATOM      7  C   UNL d   1     -40.247  15.311  16.990  0.00  0.00     0.054 A 
ATOM      8  C   UNL d   1     -38.957  14.366  19.492  0.00  0.00     0.104 A 
ATOM      9  C   UNL d   1     -40.780  15.512  17.611  0.00  0.00     0.086 A 
ATOM     10  C   UNL d   1     -40.589  15.565  16.297  0.00  0.00     0.005 A 
ATOM     11  C   UNL d   1     -38.767  14.180  20.268  0.00  0.00     0.023 C 
ATOM     12  C   UNL d   1     -41.436  15.885  17.284  0.00  0.00     0.019 A 
ATOM     13  C   UNL d   1     -41.313  15.917  16.459  0.00  0.00     0.002 A 
ENDROOT
BRANCH   5  14
ATOM     14  C   UNL d   1     -40.191  14.946  19.937  0.00  0.00     0.004 A 
ATOM     15  C   UNL d   1     -40.780  14.417  20.166  0.00  0.00     0.000 A 
ATOM     16  C   UNL d   1     -41.296  14.606  20.775  0.00  0.00     0.000 A 
ATOM     17  C   UNL d   1     -41.224  15.335  21.164  0.00  0.00     0.000 A 
ATOM     18  C   UNL d   1     -40.645  15.863  20.943  0.00  0.00     0.000 A 
ATOM     19  C   UNL d   1     -40.123  15.667  20.324  0.00  0.00     0.000 A 
ENDBRANCH   5  14
BRANCH   3  20
ATOM     20  N   UNL d   1     -39.014  14.734  16.516  0.00  0.00    -0.225 NA
BRANCH  20  21
ATOM     21  C   UNL d   1     -38.259  14.801  16.144  0.00  0.00     0.101 C 
BRANCH  21  22
ATOM     22  C   UNL d   1     -38.049  14.290  15.506  0.00  0.00     0.019 C 
ATOM     23  C   UNL d   1     -37.948  13.459  15.644  0.00  0.00     0.002 C 
ATOM     24  C   UNL d   1     -37.941  14.613  14.726  0.00  0.00     0.002 C 
ENDBRANCH  21  22
ENDBRANCH  20  21
ENDBRANCH   3  20
TORSDOF 4
ENDMDL
MODEL 3
REMARK VINA RESULT:      -6.4      1.029      3.997
REMARK  4 active torsions:
REMARK  status: ('A' for Active; 'I' for Inactive)
REMARK    1  A    between atoms: N_10  and  C_3 
REMARK    2  A    between atoms: C_11  and  C_5 
REMARK    3  A    between atoms: C_13  and  N_10 
REMARK    4  A    between atoms: C_19  and  C_13 
ROOT
ATOM      1  N   UNL d   1     -48.474  13.847  22.955  0.00  0.00    -0.195 N 
ATOM      2  C   UNL d   1     -47.826  13.316  22.869  0.00  0.00     0.167 A 
ATOM      3  C   UNL d   1     -49.250  13.551  22.972  0.00  0.00     0.167 A 
ATOM      4  N   UNL d   1     -47.566  14.945  23.005  0.00  0.00    -0.163 NA
ATOM      5  C   UNL d   1     -47.069  13.604  22.853  0.00  0.00     0.055 A 
ATOM      6  N   UNL d   1     -47.977  12.506  22.803  0.00  0.00    -0.227 NA
ATOM      7  C   UNL d   1     -49.382  12.749  22.905  0.00  0.00     0.054 A 
ATOM      8  C   UNL d   1     -46.929  14.421  22.920  0.00  0.00     0.104 A 
ATOM      9  C   UNL d   1     -48.740  12.211  22.819  0.00  0.00     0.086 A 
ATOM     10  C   UNL d   1     -50.063  12.303  22.903  0.00  0.00     0.005 A 
ATOM     11  C   UNL d   1     -46.159  14.705  22.903  0.00  0.00     0.023 C 
ATOM     12  C   UNL d   1     -49.042  11.448  22.766  0.00  0.00     0.019 A 
ATOM     13  C   UNL d   1     -49.872  11.509  22.819  0.00  0.00     0.002 A 
ENDROOT
BRANCH   5  14
ATOM     14  C   UNL d   1     -46.435  13.083  22.769  0.00  0.00     0.004 A 
ATOM     15  C   UNL d   1     -45.989  13.081  22.074  0.00  0.00     0.000 A 
ATOM     16  C   UNL d   1     -45.358  12.565  21.987  0.00  0.00     0.000 A 
ATOM     17  C   UNL d   1     -45.166  12.042  22.601  0.00  0.00     0.000 A 
ATOM     18  C   UNL d   1     -45.601  12.038  23.289  0.00  0.00     0.000 A 
ATOM     19  C   UNL d   1     -46.241  12.564  23.374  0.00  0.00     0.000 A 
ENDBRANCH   5  14
BRANCH   3  20
ATOM     20  N   UNL d   1     -49.906  14.084  23.058  0.00  0.00    -0.225 NA
BRANCH  20  21
ATOM     21  C   UNL d   1     -50.398  14.566  23.545  0.00  0.00     0.101 C 
BRANCH  21  22
ATOM     22  C   UNL d   1     -50.841  15.202  23.211  0.00  0.00     0.019 C 
ATOM     23  C   UNL d   1     -51.064  15.178  22.393  0.00  0.00     0.002 C 
ATOM     24  C   UNL d   1     -51.061  15.864  23.698  0.00  0.00     0.002 C 
ENDBRANCH  21  22
ENDBRANCH  20  21
ENDBRANCH   3  20
TORSDOF 4
ENDMDL
MODEL 4
REMARK VINA RESULT:      -6.3      8.194      9.674
REMARK  4 active torsions:
REMARK  status: ('A' for Active; 'I' for Inactive)
REMARK    1  A    between atoms: N_10  and  C_3 
REMARK    2  A    between atoms: C_11  and  C_5 
REMARK    3  A    between atoms: C_13  and  N_10 
REMARK    4  A    between atoms: C_19  and  C_13 
ROOT
ATOM      1  N   UNL d   1     -39.145  14.441  19.875  0.00  0.00    -0.195 N 
ATOM      2  C   UNL d   1     -39.591  14.764  19.239  0.00  0.00     0.167 A 
ATOM      3  C   UNL d   1     -39.350  14.628  20.658  0.00  0.00     0.167 A 
ATOM      4  N   UNL d   1     -38.310  13.759  18.943  0.00  0.00    -0.163 NA
ATOM      5  C   UNL d   1     -39.392  14.581  18.475  0.00  0.00     0.055 A 
ATOM      6  N   UNL d   1     -40.228  15.263  19.407  0.00  0.00    -0.227 NA
ATOM      7  C   UNL d   1     -39.980  15.123  20.808  0.00  0.00     0.054 A 
ATOM      8  C   UNL d   1     -38.750  14.077  18.317  0.00  0.00     0.104 A 
ATOM      9  C   UNL d   1     -40.431  15.450  20.177  0.00  0.00     0.086 A 
ATOM     10  C   UNL d   1     -40.307  15.402  21.499  0.00  0.00     0.005 A 
ATOM     11  C   UNL d   1     -38.555  13.897  17.540  0.00  0.00     0.023 C 
ATOM     12  C   UNL d   1     -41.025  15.922  20.496  0.00  0.00     0.019 A 
ATOM     13  C   UNL d   1     -40.944  15.890  21.325  0.00  0.00     0.002 A 
ENDROOT
BRANCH   5  14
ATOM     14  C   UNL d   1     -39.830  14.897  17.851  0.00  0.00     0.004 A 
ATOM     15  C   UNL d   1     -39.595  15.604  17.496  0.00  0.00     0.000 A 
ATOM     16  C   UNL d   1     -40.028  15.922  16.876  0.00  0.00     0.000 A 
ATOM     17  C   UNL d   1     -40.705  15.530  16.604  0.00  0.00     0.000 A 
ATOM     18  C   UNL d   1     -40.943  14.832  16.948  0.00  0.00     0.000 A 
ATOM     19  C   UNL d   1     -40.501  14.513  17.578  0.00  0.00     0.000 A 
ENDBRANCH   5  14
BRANCH   3  20
ATOM     20  N   UNL d   1     -38.901  14.304  21.303  0.00  0.00    -0.225 NA
BRANCH  20  21
ATOM     21  C   UNL d   1     -38.208  14.301  21.784  0.00  0.00     0.101 C 
BRANCH  21  22
ATOM     22  C   UNL d   1     -38.087  13.695  22.358  0.00  0.00     0.019 C 
ATOM     23  C   UNL d   1     -37.940  12.898  22.109  0.00  0.00     0.002 C 
ATOM     24  C   UNL d   1     -38.115  13.888  23.187  0.00  0.00     0.002 C 
ENDBRANCH  21  22
ENDBRANCH  20  21
ENDBRANCH   3  20
TORSDOF 4
ENDMDL
MODEL 5
REMARK VINA RESULT:      -6.1      8.613      9.940
REMARK  4 active torsions:
REMARK  status: ('A' for Active; 'I' for Inactive)
REMARK    1  A    between atoms: N_10  and  C_3 
REMARK    2  A    between atoms: C_11  and  C_5 
REMARK    3  A    between atoms: C_13  and  N_10 
REMARK    4  A    between atoms: C_19  and  C_13 
ROOT
ATOM      1  N   UNL d   1     -39.791  14.945  19.293  0.00  0.00    -0.195 N 
ATOM      2  C   UNL d   1     -39.388  14.631  19.963  0.00  0.00     0.167 A 
ATOM      3  C   UNL d   1     -39.639  14.632  18.538  0.00  0.00     0.167 A 
ATOM      4  N   UNL d   1     -40.479  15.864  20.137  0.00  0.00    -0.163 NA
ATOM      5  C   UNL d   1     -39.536  14.936  20.699  0.00  0.00     0.055 A 
ATOM      6  N   UNL d   1     -38.848  14.016  19.855  0.00  0.00    -0.227 NA
ATOM      7  C   UNL d   1     -39.102  14.025  18.449  0.00  0.00     0.054 A 
ATOM      8  C   UNL d   1     -40.083  15.556  20.796  0.00  0.00     0.104 A 
ATOM      9  C   UNL d   1     -38.696  13.706  19.114  0.00  0.00     0.086 A 
ATOM     10  C   UNL d   1     -38.843  13.613  17.796  0.00  0.00     0.005 A 
ATOM     11  C   UNL d   1     -40.226  15.858  21.545  0.00  0.00     0.023 C 
ATOM     12  C   UNL d   1     -38.196  13.107  18.854  0.00  0.00     0.019 A 
ATOM     13  C   UNL d   1     -38.291  13.051  18.027  0.00  0.00     0.002 A 
ENDROOT
BRANCH   5  14
ATOM     14  C   UNL d   1     -39.142  14.629  21.356  0.00  0.00     0.004 A 
ATOM     15  C   UNL d   1     -39.466  13.998  21.777  0.00  0.00     0.000 A 
ATOM     16  C   UNL d   1     -39.077  13.690  22.430  0.00  0.00     0.000 A 
ATOM     17  C   UNL d   1     -38.353  14.015  22.668  0.00  0.00     0.000 A 
ATOM     18  C   UNL d   1     -38.026  14.637  22.258  0.00  0.00     0.000 A 
ATOM     19  C   UNL d   1     -38.425  14.947  21.595  0.00  0.00     0.000 A 
ENDBRANCH   5  14
BRANCH   3  20
ATOM     20  N   UNL d   1     -40.043  14.946  17.860  0.00  0.00    -0.225 NA
BRANCH  20  21
ATOM     21  C   UNL d   1     -40.659  14.893  17.285  0.00  0.00     0.101 C 
BRANCH  21  22
ATOM     22  C   UNL d   1     -40.908  15.578  16.861  0.00  0.00     0.019 C 
ATOM     23  C   UNL d   1     -40.401  15.922  16.275  0.00  0.00     0.002 C 
ATOM     24  C   UNL d   1     -41.670  15.920  17.024  0.00  0.00     0.002 C 
ENDBRANCH  21  22
ENDBRANCH  20  21
ENDBRANCH   3  20
TORSDOF 4
ENDMDL
MODEL 6
REMARK VINA RESULT:      -5.2      7.529      9.358
REMARK  4 active torsions:
REMARK  status: ('A' for Active; 'I' for Inactive)
REMARK    1  A    between atoms: N_10  and  C_3 
REMARK    2  A    between atoms: C_11  and  C_5 
REMARK    3  A    between atoms: C_13  and  N_10 
REMARK    4  A    between atoms: C_19  and  C_13 
ROOT
ATOM      1  N   UNL d   1     -39.743  14.354  20.037  0.00  0.00    -0.195 N 
ATOM      2  C   UNL d   1     -39.682  14.313  20.876  0.00  0.00     0.167 A 
ATOM      3  C   UNL d   1     -40.353  14.799  19.691  0.00  0.00     0.167 A 
ATOM      4  N   UNL d   1     -38.598  13.514  19.913  0.00  0.00    -0.163 NA
ATOM      5  C   UNL d   1     -39.088  13.878  21.215  0.00  0.00     0.055 A 
ATOM      6  N   UNL d   1     -40.233  14.718  21.339  0.00  0.00    -0.227 NA
ATOM      7  C   UNL d   1     -40.889  15.194  20.161  0.00  0.00     0.054 A 
ATOM      8  C   UNL d   1     -38.538  13.474  20.739  0.00  0.00     0.104 A 
ATOM      9  C   UNL d   1     -40.834  15.157  21.001  0.00  0.00     0.086 A 
ATOM     10  C   UNL d   1     -41.530  15.663  19.988  0.00  0.00     0.005 A 
ATOM     11  C   UNL d   1     -37.940  13.036  21.090  0.00  0.00     0.023 C 
ATOM     12  C   UNL d   1     -41.444  15.605  21.323  0.00  0.00     0.019 A 
ATOM     13  C   UNL d   1     -41.879  15.922  20.685  0.00  0.00     0.002 A 
ENDROOT
BRANCH   5  14
ATOM     14  C   UNL d   1     -39.028  13.838  22.037  0.00  0.00     0.004 A 
ATOM     15  C   UNL d   1     -38.576  14.392  22.448  0.00  0.00     0.000 A 
ATOM     16  C   UNL d   1     -38.515  14.355  23.265  0.00  0.00     0.000 A 
ATOM     17  C   UNL d   1     -38.909  13.757  23.681  0.00  0.00     0.000 A 
ATOM     18  C   UNL d   1     -39.358  13.206  23.282  0.00  0.00     0.000 A 
ATOM     19  C   UNL d   1     -39.418  13.247  22.453  0.00  0.00     0.000 A 
ENDBRANCH   5  14
BRANCH   3  20
ATOM     20  N   UNL d   1     -40.417  14.843  18.844  0.00  0.00    -0.225 NA
BRANCH  20  21
ATOM     21  C   UNL d   1     -40.486  14.462  18.094  0.00  0.00     0.101 C 
BRANCH  21  22
ATOM     22  C   UNL d   1     -40.377  14.899  17.381  0.00  0.00     0.019 C 
ATOM     23  C   UNL d   1     -41.045  15.248  16.991  0.00  0.00     0.002 C 
ATOM     24  C   UNL d   1     -39.595  14.986  17.056  0.00  0.00     0.002 C 
ENDBRANCH  21  22
ENDBRANCH  20  21
ENDBRANCH   3  20
TORSDOF 4
ENDMDL
MODEL 7
REMARK VINA RESULT:      -4.9      8.357     10.509
REMARK  4 active torsions:
REMARK  status: ('A' for Active; 'I' for Inactive)
REMARK    1  A    between atoms: N_10  and  C_3 
REMARK    2  A    between atoms: C_11  and  C_5 
REMARK    3  A    between atoms: C_13  and  N_10 
REMARK    4  A    between atoms: C_19  and  C_13 
ROOT
ATOM      1  N   UNL d   1     -39.145  14.210  17.431  0.00  0.00    -0.195 N 
ATOM      2  C   UNL d   1     -39.342  14.081  18.240  0.00  0.00     0.167 A 
ATOM      3  C   UNL d   1     -38.704  13.639  17.019  0.00  0.00     0.167 A 
ATOM      4  N   UNL d   1     -39.826  15.461  17.465  0.00  0.00    -0.163 NA
ATOM      5  C   UNL d   1     -39.772  14.638  18.643  0.00  0.00     0.055 A 
ATOM      6  N   UNL d   1     -39.091  13.386  18.608  0.00  0.00    -0.227 NA
ATOM      7  C   UNL d   1     -38.464  12.958  17.397  0.00  0.00     0.054 A 
ATOM      8  C   UNL d   1     -40.020  15.334  18.261  0.00  0.00     0.104 A 
ATOM      9  C   UNL d   1     -38.656  12.822  18.205  0.00  0.00     0.086 A 
ATOM     10  C   UNL d   1     -38.036  12.313  17.146  0.00  0.00     0.005 A 
ATOM     11  C   UNL d   1     -40.455  15.893  18.677  0.00  0.00     0.023 C 
ATOM     12  C   UNL d   1     -38.342  12.096  18.432  0.00  0.00     0.019 A 
ATOM     13  C   UNL d   1     -37.954  11.779  17.765  0.00  0.00     0.002 A 
ENDROOT
BRANCH   5  14
ATOM     14  C   UNL d   1     -39.965  14.511  19.435  0.00  0.00     0.004 A 
ATOM     15  C   UNL d   1     -40.715  14.236  19.640  0.00  0.00     0.000 A 
ATOM     16  C   UNL d   1     -40.910  14.109  20.427  0.00  0.00     0.000 A 
ATOM     17  C   UNL d   1     -40.350  14.258  21.019  0.00  0.00     0.000 A 
ATOM     18  C   UNL d   1     -39.608  14.530  20.824  0.00  0.00     0.000 A 
ATOM     19  C   UNL d   1     -39.413  14.658  20.024  0.00  0.00     0.000 A 
ENDBRANCH   5  14
BRANCH   3  20
ATOM     20  N   UNL d   1     -38.503  13.766  16.203  0.00  0.00    -0.225 NA
BRANCH  20  21
ATOM     21  C   UNL d   1     -38.703  13.720  15.385  0.00  0.00     0.101 C 
BRANCH  21  22
ATOM     22  C   UNL d   1     -38.252  14.141  14.809  0.00  0.00     0.019 C 
ATOM     23  C   UNL d   1     -38.052  14.955  14.940  0.00  0.00     0.002 C 
ATOM     24  C   UNL d   1     -38.001  13.745  14.099  0.00  0.00     0.002 C 
ENDBRANCH  21  22
ENDBRANCH  20  21
ENDBRANCH   3  20
TORSDOF 4
ENDMDL
