MODEL 1
REMARK VINA RESULT:      -1.3      0.000      0.000
REMARK  4 active torsions:
REMARK  status: ('A' for Active; 'I' for Inactive)
REMARK    1  A    between atoms: N_2  and  C_1 
REMARK       I    between atoms: C_6  and  N_2 
REMARK    2  A    between atoms: C_21  and  N_3 
REMARK    3  A    between atoms: C_8  and  C_6 
REMARK       I    between atoms: C_17  and  N_18 
REMARK    4  A    between atoms: N_18  and  C_19 
ROOT
ATOM      1  C   UNL d   1      58.986   0.625  31.693  0.00  0.00    -0.031 C 
ATOM      2  C   UNL d   1      59.499   0.681  32.337  0.00  0.00    -0.008 C 
ATOM      3  C   UNL d   1      58.473   0.570  31.050  0.00  0.00     0.133 C 
ENDROOT
BRANCH   3   4
ATOM      4  N   UNL d   1      58.152  -0.160  30.830  0.00  0.00    -0.278 N 
ATOM      5  C   UNL d   1      57.467  -0.501  31.128  0.00  0.00     0.183 A 
ATOM      6  S   UNL d   1      57.359  -1.227  30.752  0.00  0.00    -0.048 SA
ATOM      7  C   UNL d   1      57.983  -1.335  30.217  0.00  0.00     0.050 A 
ATOM      8  C   UNL d   1      58.165  -1.948  29.696  0.00  0.00     0.027 A 
ATOM      9  C   UNL d   1      58.476  -0.673  30.266  0.00  0.00     0.073 A 
ATOM     10  C   UNL d   1      58.839  -1.899  29.223  0.00  0.00     0.085 A 
ATOM     11  C   UNL d   1      59.331  -1.237  29.271  0.00  0.00     0.021 A 
ATOM     12  C   UNL d   1      59.150  -0.624  29.793  0.00  0.00     0.020 A 
BRANCH   5  13
ATOM     13  N   UNL d   1      56.976  -0.168  31.704  0.00  0.00    -0.183 NA
ATOM     14  C   UNL d   1      56.517  -0.660  32.181  0.00  0.00     0.287 C 
ATOM     15  O   UNL d   1      56.550  -1.478  32.079  0.00  0.00    -0.265 OA
BRANCH  14  16
ATOM     16  C   UNL d   1      56.023  -0.335  32.759  0.00  0.00     0.088 A 
ATOM     17  S   UNL d   1      56.170  -0.313  33.588  0.00  0.00    -0.075 SA
ATOM     18  C   UNL d   1      55.534   0.062  33.951  0.00  0.00     0.064 A 
ATOM     19 BR   UNL d   1      55.436   0.209  34.770  0.00  0.00    -0.042 Br
ATOM     20  C   UNL d   1      54.993   0.274  33.363  0.00  0.00     0.014 A 
ATOM     21  C   UNL d   1      55.295   0.031  32.637  0.00  0.00     0.012 A 
ENDBRANCH  14  16
ENDBRANCH   5  13
BRANCH  10  22
ATOM     22  N   UNL d   1      59.026  -2.520  28.692  0.00  0.00    -0.208 NA
ATOM     23  C   UNL d   1      59.284  -3.239  28.983  0.00  0.00     0.279 C 
ATOM     24  O   UNL d   1      59.468  -3.848  28.459  0.00  0.00    -0.265 OA
ATOM     25  C   UNL d   1      59.365  -3.365  29.797  0.00  0.00     0.068 C 
ENDBRANCH  10  22
ENDBRANCH   3   4
TORSDOF 4
ENDMDL
MODEL 2
REMARK VINA RESULT:      -0.9      1.410      2.039
REMARK  4 active torsions:
REMARK  status: ('A' for Active; 'I' for Inactive)
REMARK    1  A    between atoms: N_2  and  C_1 
REMARK       I    between atoms: C_6  and  N_2 
REMARK    2  A    between atoms: C_21  and  N_3 
REMARK    3  A    between atoms: C_8  and  C_6 
REMARK       I    between atoms: C_17  and  N_18 
REMARK    4  A    between atoms: N_18  and  C_19 
ROOT
ATOM      1  C   UNL d   1      60.189  -0.008  30.168  0.00  0.00    -0.031 C 
ATOM      2  C   UNL d   1      60.496   0.330  30.854  0.00  0.00    -0.008 C 
ATOM      3  C   UNL d   1      59.882  -0.346  29.481  0.00  0.00     0.133 C 
ENDROOT
BRANCH   3   4
ATOM      4  N   UNL d   1      59.505  -1.083  29.508  0.00  0.00    -0.278 N 
ATOM      5  C   UNL d   1      58.771  -1.241  29.842  0.00  0.00     0.183 A 
ATOM      6  S   UNL d   1      58.615  -2.045  29.743  0.00  0.00    -0.048 SA
ATOM      7  C   UNL d   1      59.258  -2.385  29.345  0.00  0.00     0.050 A 
ATOM      8  C   UNL d   1      59.410  -3.158  29.099  0.00  0.00     0.027 A 
ATOM      9  C   UNL d   1      59.810  -1.787  29.200  0.00  0.00     0.073 A 
ATOM     10  C   UNL d   1      60.115  -3.333  28.707  0.00  0.00     0.085 A 
ATOM     11  C   UNL d   1      60.667  -2.735  28.561  0.00  0.00     0.021 A 
ATOM     12  C   UNL d   1      60.515  -1.963  28.808  0.00  0.00     0.020 A 
BRANCH   5  13
ATOM     13  N   UNL d   1      58.280  -0.687  30.210  0.00  0.00    -0.183 NA
ATOM     14  C   UNL d   1      57.743  -0.938  30.784  0.00  0.00     0.287 C 
ATOM     15  O   UNL d   1      57.700  -1.736  30.986  0.00  0.00    -0.265 OA
BRANCH  14  16
ATOM     16  C   UNL d   1      57.249  -0.389  31.157  0.00  0.00     0.088 A 
ATOM     17  S   UNL d   1      56.965  -0.428  31.949  0.00  0.00    -0.075 SA
ATOM     18  C   UNL d   1      56.493   0.232  32.084  0.00  0.00     0.064 A 
ATOM     19 BR   UNL d   1      56.092   0.428  32.793  0.00  0.00    -0.042 Br
ATOM     20  C   UNL d   1      56.477   0.682  31.390  0.00  0.00     0.014 A 
ATOM     21  C   UNL d   1      56.940   0.299  30.827  0.00  0.00     0.012 A 
ENDBRANCH  14  16
ENDBRANCH   5  13
BRANCH  10  22
ATOM     22  N   UNL d   1      60.272  -4.116  28.455  0.00  0.00    -0.208 NA
ATOM     23  C   UNL d   1      60.761  -4.596  28.901  0.00  0.00     0.279 C 
ATOM     24  O   UNL d   1      60.914  -5.367  28.651  0.00  0.00    -0.265 OA
ATOM     25  C   UNL d   1      61.105  -4.320  29.601  0.00  0.00     0.068 C 
ENDBRANCH  10  22
ENDBRANCH   3   4
TORSDOF 4
ENDMDL
MODEL 3
REMARK VINA RESULT:       1.4      2.030      2.908
REMARK  4 active torsions:
REMARK  status: ('A' for Active; 'I' for Inactive)
REMARK    1  A    between atoms: N_2  and  C_1 
REMARK       I    between atoms: C_6  and  N_2 
REMARK    2  A    between atoms: C_21  and  N_3 
REMARK    3  A    between atoms: C_8  and  C_6 
REMARK       I    between atoms: C_17  and  N_18 
REMARK    4  A    between atoms: N_18  and  C_19 
ROOT
ATOM      1  C   UNL d   1      55.795  -1.724  32.806  0.00  0.00    -0.031 C 
ATOM      2  C   UNL d   1      55.040  -2.043  32.899  0.00  0.00    -0.008 C 
ATOM      3  C   UNL d   1      56.550  -1.406  32.713  0.00  0.00     0.133 C 
ENDROOT
BRANCH   3   4
ATOM      4  N   UNL d   1      56.651  -0.653  32.384  0.00  0.00    -0.278 N 
ATOM      5  C   UNL d   1      56.405   0.059  32.714  0.00  0.00     0.183 A 
ATOM      6  S   UNL d   1      56.620   0.666  32.198  0.00  0.00    -0.048 SA
ATOM      7  C   UNL d   1      57.001   0.325  31.545  0.00  0.00     0.050 A 
ATOM      8  C   UNL d   1      57.331   0.654  30.864  0.00  0.00     0.027 A 
ATOM      9  C   UNL d   1      57.020  -0.493  31.661  0.00  0.00     0.073 A 
ATOM     10  C   UNL d   1      57.679   0.165  30.299  0.00  0.00     0.085 A 
ATOM     11  C   UNL d   1      57.699  -0.654  30.415  0.00  0.00     0.021 A 
ATOM     12  C   UNL d   1      57.369  -0.982  31.096  0.00  0.00     0.020 A 
BRANCH   5  13
ATOM     13  N   UNL d   1      56.013   0.144  33.437  0.00  0.00    -0.183 NA
ATOM     14  C   UNL d   1      56.423   0.435  34.090  0.00  0.00     0.287 C 
ATOM     15  O   UNL d   1      57.219   0.639  34.018  0.00  0.00    -0.265 OA
BRANCH  14  16
ATOM     16  C   UNL d   1      56.037   0.523  34.816  0.00  0.00     0.088 A 
ATOM     17  S   UNL d   1      55.204   0.538  34.942  0.00  0.00    -0.075 SA
ATOM     18  C   UNL d   1      55.069   0.635  35.748  0.00  0.00     0.064 A 
ATOM     19 BR   UNL d   1      54.326   0.681  36.132  0.00  0.00    -0.042 Br
ATOM     20  C   UNL d   1      55.802   0.682  36.127  0.00  0.00     0.014 A 
ATOM     21  C   UNL d   1      56.390   0.613  35.555  0.00  0.00     0.012 A 
ENDBRANCH  14  16
ENDBRANCH   5  13
BRANCH  10  22
ATOM     22  N   UNL d   1      58.015   0.496  29.606  0.00  0.00    -0.208 NA
ATOM     23  C   UNL d   1      58.797   0.344  29.421  0.00  0.00     0.279 C 
ATOM     24  O   UNL d   1      59.125   0.672  28.739  0.00  0.00    -0.265 OA
ATOM     25  C   UNL d   1      59.265  -0.133  29.908  0.00  0.00     0.068 C 
ENDBRANCH  10  22
ENDBRANCH   3   4
TORSDOF 4
ENDMDL
