MODEL 1
REMARK VINA RESULT:      -6.8      0.000      0.000
REMARK  6 active torsions:
REMARK  status: ('A' for Active; 'I' for Inactive)
REMARK    1  A    between atoms: C_3  and  S_1 
REMARK    2  A    between atoms: N_5  and  S_1 
REMARK    3  A    between atoms: S_2  and  N_6 
REMARK    4  A    between atoms: C_4  and  S_2 
REMARK    5  A    between atoms: O_25  and  C_15 
REMARK    6  A    between atoms: O_26  and  C_16 
ROOT
ATOM      1  N   UNL d   1     -47.899  13.576  22.830  0.00  0.00    -0.226 N 
ATOM      2  N   UNL d   1     -46.357  13.092  22.516  0.00  0.00    -0.226 N 
ATOM      3  C   UNL d   1     -47.757  13.065  22.198  0.00  0.00     0.111 A 
ATOM      4  C   UNL d   1     -46.512  13.604  23.147  0.00  0.00     0.111 A 
ATOM      5  C   UNL d   1     -46.979  12.822  22.041  0.00  0.00     0.111 A 
ATOM      6  C   UNL d   1     -47.279  13.846  23.305  0.00  0.00     0.111 A 
ENDROOT
BRANCH   1   7
ATOM      7  S   UNL d   1     -48.683  13.820  22.988  0.00  0.00     0.273 S 
ATOM      8  O   UNL d   1     -49.080  14.289  22.434  0.00  0.00    -0.200 OA
ATOM      9  O   UNL d   1     -49.055  13.596  23.684  0.00  0.00    -0.200 OA
BRANCH   7  10
ATOM     10  C   UNL d   1     -49.458  14.060  23.147  0.00  0.00     0.126 A 
ATOM     11  C   UNL d   1     -50.053  13.500  23.223  0.00  0.00     0.106 A 
ATOM     12  C   UNL d   1     -50.826  13.747  23.382  0.00  0.00     0.025 A 
ATOM     13  C   UNL d   1     -50.996  14.552  23.463  0.00  0.00     0.002 A 
ATOM     14  C   UNL d   1     -50.388  15.111  23.385  0.00  0.00     0.001 A 
ATOM     15  C   UNL d   1     -49.622  14.871  23.227  0.00  0.00     0.015 A 
ATOM     16  C   UNL d   1     -50.562  15.922  23.467  0.00  0.00     0.000 C 
BRANCH  11  17
ATOM     17  O   UNL d   1     -49.885  12.700  23.142  0.00  0.00    -0.327 OA
ATOM     18  C   UNL d   1     -50.496  12.146  23.187  0.00  0.00     0.181 C 
ENDBRANCH  11  17
ENDBRANCH   7  10
ENDBRANCH   1   7
BRANCH   2  19
ATOM     19  S   UNL d   1     -45.584  12.849  22.357  0.00  0.00     0.273 S 
ATOM     20  O   UNL d   1     -45.065  12.695  22.982  0.00  0.00    -0.200 OA
ATOM     21  O   UNL d   1     -45.326  12.758  21.579  0.00  0.00    -0.200 OA
BRANCH  19  22
ATOM     22  C   UNL d   1     -44.804  12.604  22.230  0.00  0.00     0.126 A 
ATOM     23  C   UNL d   1     -44.513  11.945  22.628  0.00  0.00     0.106 A 
ATOM     24  C   UNL d   1     -43.741  11.702  22.503  0.00  0.00     0.025 A 
ATOM     25  C   UNL d   1     -43.257  12.117  21.979  0.00  0.00     0.002 A 
ATOM     26  C   UNL d   1     -43.552  12.777  21.582  0.00  0.00     0.001 A 
ATOM     27  C   UNL d   1     -44.333  13.016  21.714  0.00  0.00     0.015 A 
ATOM     28  C   UNL d   1     -43.079  13.196  21.061  0.00  0.00     0.000 C 
BRANCH  23  29
ATOM     29  O   UNL d   1     -44.996  11.529  23.151  0.00  0.00    -0.327 OA
ATOM     30  C   UNL d   1     -44.734  10.819  23.478  0.00  0.00     0.181 C 
ENDBRANCH  23  29
ENDBRANCH  19  22
ENDBRANCH   2  19
TORSDOF 6
ENDMDL
MODEL 2
REMARK VINA RESULT:      -6.3      0.227      5.503
REMARK  6 active torsions:
REMARK  status: ('A' for Active; 'I' for Inactive)
REMARK    1  A    between atoms: C_3  and  S_1 
REMARK    2  A    between atoms: N_5  and  S_1 
REMARK    3  A    between atoms: S_2  and  N_6 
REMARK    4  A    between atoms: C_4  and  S_2 
REMARK    5  A    between atoms: O_25  and  C_15 
REMARK    6  A    between atoms: O_26  and  C_16 
ROOT
ATOM      1  N   UNL d   1     -46.409  13.101  22.544  0.00  0.00    -0.226 N 
ATOM      2  N   UNL d   1     -47.951  13.604  22.827  0.00  0.00    -0.226 N 
ATOM      3  C   UNL d   1     -46.572  13.541  23.223  0.00  0.00     0.111 A 
ATOM      4  C   UNL d   1     -47.775  13.163  22.149  0.00  0.00     0.111 A 
ATOM      5  C   UNL d   1     -47.351  13.793  23.364  0.00  0.00     0.111 A 
ATOM      6  C   UNL d   1     -47.008  12.912  22.007  0.00  0.00     0.111 A 
ENDROOT
BRANCH   1   7
ATOM      7  S   UNL d   1     -45.625  12.848  22.402  0.00  0.00     0.273 S 
ATOM      8  O   UNL d   1     -45.349  12.801  21.624  0.00  0.00    -0.200 OA
ATOM      9  O   UNL d   1     -45.135  12.647  23.028  0.00  0.00    -0.200 OA
BRANCH   7  10
ATOM     10  C   UNL d   1     -44.849  12.596  22.266  0.00  0.00     0.126 A 
ATOM     11  C   UNL d   1     -44.564  11.925  22.641  0.00  0.00     0.106 A 
ATOM     12  C   UNL d   1     -43.787  11.680  22.500  0.00  0.00     0.025 A 
ATOM     13  C   UNL d   1     -43.303  12.109  21.984  0.00  0.00     0.002 A 
ATOM     14  C   UNL d   1     -43.600  12.786  21.609  0.00  0.00     0.001 A 
ATOM     15  C   UNL d   1     -44.368  13.032  21.746  0.00  0.00     0.015 A 
ATOM     16  C   UNL d   1     -43.111  13.216  21.090  0.00  0.00     0.000 C 
BRANCH  11  17
ATOM     17  O   UNL d   1     -45.043  11.499  23.153  0.00  0.00    -0.327 OA
ATOM     18  C   UNL d   1     -44.789  10.767  23.440  0.00  0.00     0.181 C 
ENDBRANCH  11  17
ENDBRANCH   7  10
ENDBRANCH   1   7
BRANCH   2  19
ATOM     19  S   UNL d   1     -48.725  13.857  22.971  0.00  0.00     0.273 S 
ATOM     20  O   UNL d   1     -49.337  13.604  22.476  0.00  0.00    -0.200 OA
ATOM     21  O   UNL d   1     -48.889  14.358  23.604  0.00  0.00    -0.200 OA
BRANCH  19  22
ATOM     22  C   UNL d   1     -49.509  14.092  23.088  0.00  0.00     0.126 A 
ATOM     23  C   UNL d   1     -50.090  13.525  23.224  0.00  0.00     0.106 A 
ATOM     24  C   UNL d   1     -50.866  13.759  23.340  0.00  0.00     0.025 A 
ATOM     25  C   UNL d   1     -51.064  14.559  23.321  0.00  0.00     0.002 A 
ATOM     26  C   UNL d   1     -50.479  15.124  23.185  0.00  0.00     0.001 A 
ATOM     27  C   UNL d   1     -49.697  14.881  23.068  0.00  0.00     0.015 A 
ATOM     28  C   UNL d   1     -50.666  15.921  23.165  0.00  0.00     0.000 C 
BRANCH  23  29
ATOM     29  O   UNL d   1     -49.892  12.725  23.242  0.00  0.00    -0.327 OA
ATOM     30  C   UNL d   1     -50.469  12.162  23.417  0.00  0.00     0.181 C 
ENDBRANCH  23  29
ENDBRANCH  19  22
ENDBRANCH   2  19
TORSDOF 6
ENDMDL
MODEL 3
REMARK VINA RESULT:      -5.9      0.702      1.467
REMARK  6 active torsions:
REMARK  status: ('A' for Active; 'I' for Inactive)
REMARK    1  A    between atoms: C_3  and  S_1 
REMARK    2  A    between atoms: N_5  and  S_1 
REMARK    3  A    between atoms: S_2  and  N_6 
REMARK    4  A    between atoms: C_4  and  S_2 
REMARK    5  A    between atoms: O_25  and  C_15 
REMARK    6  A    between atoms: O_26  and  C_16 
ROOT
ATOM      1  N   UNL d   1     -47.819  13.179  22.957  0.00  0.00    -0.226 N 
ATOM      2  N   UNL d   1     -46.381  12.378  22.950  0.00  0.00    -0.226 N 
ATOM      3  C   UNL d   1     -47.415  13.081  22.244  0.00  0.00     0.111 A 
ATOM      4  C   UNL d   1     -46.795  12.482  23.659  0.00  0.00     0.111 A 
ATOM      5  C   UNL d   1     -46.690  12.677  22.243  0.00  0.00     0.111 A 
ATOM      6  C   UNL d   1     -47.511  12.881  23.664  0.00  0.00     0.111 A 
ENDROOT
BRANCH   1   7
ATOM      7  S   UNL d   1     -48.549  13.587  22.958  0.00  0.00     0.273 S 
ATOM      8  O   UNL d   1     -48.680  14.184  22.401  0.00  0.00    -0.200 OA
ATOM      9  O   UNL d   1     -49.129  13.396  23.505  0.00  0.00    -0.200 OA
BRANCH   7  10
ATOM     10  C   UNL d   1     -49.272  13.988  22.962  0.00  0.00     0.126 A 
ATOM     11  C   UNL d   1     -49.941  13.629  22.652  0.00  0.00     0.106 A 
ATOM     12  C   UNL d   1     -50.661  14.036  22.660  0.00  0.00     0.025 A 
ATOM     13  C   UNL d   1     -50.704  14.799  22.976  0.00  0.00     0.002 A 
ATOM     14  C   UNL d   1     -50.022  15.154  23.287  0.00  0.00     0.001 A 
ATOM     15  C   UNL d   1     -49.308  14.754  23.282  0.00  0.00     0.015 A 
ATOM     16  C   UNL d   1     -50.067  15.922  23.606  0.00  0.00     0.000 C 
BRANCH  11  17
ATOM     17  O   UNL d   1     -49.900  12.872  22.338  0.00  0.00    -0.327 OA
ATOM     18  C   UNL d   1     -50.593  12.482  22.112  0.00  0.00     0.181 C 
ENDBRANCH  11  17
ENDBRANCH   7  10
ENDBRANCH   1   7
BRANCH   2  19
ATOM     19  S   UNL d   1     -45.659  11.976  22.945  0.00  0.00     0.273 S 
ATOM     20  O   UNL d   1     -44.951  12.403  22.942  0.00  0.00    -0.200 OA
ATOM     21  O   UNL d   1     -45.640  11.151  22.942  0.00  0.00    -0.200 OA
BRANCH  19  22
ATOM     22  C   UNL d   1     -44.921  11.602  22.940  0.00  0.00     0.126 A 
ATOM     23  C   UNL d   1     -44.287  11.956  22.553  0.00  0.00     0.106 A 
ATOM     24  C   UNL d   1     -43.556  11.586  22.548  0.00  0.00     0.025 A 
ATOM     25  C   UNL d   1     -43.457  10.862  22.929  0.00  0.00     0.002 A 
ATOM     26  C   UNL d   1     -44.095  10.510  23.316  0.00  0.00     0.001 A 
ATOM     27  C   UNL d   1     -44.830  10.889  23.317  0.00  0.00     0.015 A 
ATOM     28  C   UNL d   1     -44.007   9.791  23.697  0.00  0.00     0.000 C 
BRANCH  23  29
ATOM     29  O   UNL d   1     -44.385  12.681  22.172  0.00  0.00    -0.327 OA
ATOM     30  C   UNL d   1     -43.822  12.940  21.628  0.00  0.00     0.181 C 
ENDBRANCH  23  29
ENDBRANCH  19  22
ENDBRANCH   2  19
TORSDOF 6
ENDMDL
MODEL 4
REMARK VINA RESULT:      -5.7      0.625      5.599
REMARK  6 active torsions:
REMARK  status: ('A' for Active; 'I' for Inactive)
REMARK    1  A    between atoms: C_3  and  S_1 
REMARK    2  A    between atoms: N_5  and  S_1 
REMARK    3  A    between atoms: S_2  and  N_6 
REMARK    4  A    between atoms: C_4  and  S_2 
REMARK    5  A    between atoms: O_25  and  C_15 
REMARK    6  A    between atoms: O_26  and  C_16 
ROOT
ATOM      1  N   UNL d   1     -46.061  12.865  22.483  0.00  0.00    -0.226 N 
ATOM      2  N   UNL d   1     -47.648  13.172  22.796  0.00  0.00    -0.226 N 
ATOM      3  C   UNL d   1     -46.628  12.686  21.910  0.00  0.00     0.111 A 
ATOM      4  C   UNL d   1     -47.071  13.347  23.363  0.00  0.00     0.111 A 
ATOM      5  C   UNL d   1     -47.428  12.841  22.070  0.00  0.00     0.111 A 
ATOM      6  C   UNL d   1     -46.281  13.195  23.208  0.00  0.00     0.111 A 
ENDROOT
BRANCH   1   7
ATOM      7  S   UNL d   1     -45.257  12.708  22.322  0.00  0.00     0.273 S 
ATOM      8  O   UNL d   1     -44.833  13.224  21.833  0.00  0.00    -0.200 OA
ATOM      9  O   UNL d   1     -44.890  12.049  22.644  0.00  0.00    -0.200 OA
BRANCH   7  10
ATOM     10  C   UNL d   1     -44.460  12.550  22.164  0.00  0.00     0.126 A 
ATOM     11  C   UNL d   1     -44.087  11.920  22.532  0.00  0.00     0.106 A 
ATOM     12  C   UNL d   1     -43.290  11.768  22.369  0.00  0.00     0.025 A 
ATOM     13  C   UNL d   1     -42.875  12.248  21.839  0.00  0.00     0.002 A 
ATOM     14  C   UNL d   1     -43.261  12.883  21.471  0.00  0.00     0.001 A 
ATOM     15  C   UNL d   1     -44.049  13.037  21.630  0.00  0.00     0.015 A 
ATOM     16  C   UNL d   1     -42.842  13.366  20.938  0.00  0.00     0.000 C 
BRANCH  11  17
ATOM     17  O   UNL d   1     -44.497  11.442  23.059  0.00  0.00    -0.327 OA
ATOM     18  C   UNL d   1     -44.149  10.749  23.342  0.00  0.00     0.181 C 
ENDBRANCH  11  17
ENDBRANCH   7  10
ENDBRANCH   1   7
BRANCH   2  19
ATOM     19  S   UNL d   1     -48.445  13.325  22.952  0.00  0.00     0.273 S 
ATOM     20  O   UNL d   1     -48.918  13.673  22.369  0.00  0.00    -0.200 OA
ATOM     21  O   UNL d   1     -48.772  13.134  23.684  0.00  0.00    -0.200 OA
BRANCH  19  22
ATOM     22  C   UNL d   1     -49.246  13.491  23.077  0.00  0.00     0.126 A 
ATOM     23  C   UNL d   1     -49.521  14.262  22.997  0.00  0.00     0.106 A 
ATOM     24  C   UNL d   1     -50.314  14.427  23.121  0.00  0.00     0.025 A 
ATOM     25  C   UNL d   1     -50.834  13.820  23.326  0.00  0.00     0.002 A 
ATOM     26  C   UNL d   1     -50.555  13.048  23.406  0.00  0.00     0.001 A 
ATOM     27  C   UNL d   1     -49.753  12.890  23.279  0.00  0.00     0.015 A 
ATOM     28  C   UNL d   1     -51.063  12.440  23.609  0.00  0.00     0.000 C 
BRANCH  23  29
ATOM     29  O   UNL d   1     -49.001  14.869  22.792  0.00  0.00    -0.327 OA
ATOM     30  C   UNL d   1     -49.273  15.646  22.744  0.00  0.00     0.181 C 
ENDBRANCH  23  29
ENDBRANCH  19  22
ENDBRANCH   2  19
TORSDOF 6
ENDMDL
