MODEL 1
REMARK VINA RESULT:      -6.8      0.000      0.000
REMARK  7 active torsions:
REMARK  status: ('A' for Active; 'I' for Inactive)
REMARK    1  A    between atoms: N_9  and  C_2 
REMARK    2  A    between atoms: C_8  and  C_14 
REMARK    3  A    between atoms: C_15  and  N_9 
REMARK    4  A    between atoms: C_14  and  C_16 
REMARK    5  A    between atoms: C_17  and  C_15 
REMARK    6  A    between atoms: C_16  and  C_18 
REMARK    7  A    between atoms: C_18  and  C_17 
ROOT
ATOM      1  N   UNL d   1     -48.521  14.132  22.942  0.00  0.00    -0.198 NA
ATOM      2  C   UNL d   1     -48.427  13.330  23.121  0.00  0.00     0.166 A 
ATOM      3  C   UNL d   1     -49.274  14.469  22.942  0.00  0.00     0.222 A 
ATOM      4  C   UNL d   1     -49.086  12.867  23.298  0.00  0.00     0.054 A 
ATOM      5  N   UNL d   1     -49.933  14.003  23.121  0.00  0.00    -0.217 NA
ATOM      6  C   UNL d   1     -49.839  13.203  23.298  0.00  0.00     0.087 A 
ATOM      7  S   UNL d   1     -49.376  15.268  22.766  0.00  0.00    -0.037 SA
ATOM      8  C   UNL d   1     -48.989  12.071  23.475  0.00  0.00     0.005 A 
ATOM      9  C   UNL d   1     -50.495  12.744  23.475  0.00  0.00     0.019 A 
ATOM     10  C   UNL d   1     -49.650  11.604  23.654  0.00  0.00     0.000 A 
ATOM     11  C   UNL d   1     -50.403  11.940  23.654  0.00  0.00     0.002 A 
ENDROOT
BRANCH   2  12
ATOM     12  N   UNL d   1     -47.675  12.994  23.121  0.00  0.00    -0.225 NA
BRANCH  12  13
ATOM     13  C   UNL d   1     -47.057  13.385  22.741  0.00  0.00     0.101 C 
BRANCH  13  14
ATOM     14  C   UNL d   1     -46.286  13.108  22.832  0.00  0.00     0.021 C 
BRANCH  14  15
ATOM     15  C   UNL d   1     -45.715  13.283  22.259  0.00  0.00     0.002 C 
BRANCH  15  16
ATOM     16  C   UNL d   1     -45.080  12.775  22.146  0.00  0.00     0.006 C 
BRANCH  16  17
ATOM     17  C   UNL d   1     -44.358  13.073  21.878  0.00  0.00     0.070 C 
BRANCH  17  18
ATOM     18  C   UNL d   1     -43.756  12.554  21.659  0.00  0.00     0.211 C 
ATOM     19  O   UNL d   1     -43.406  12.615  20.915  0.00  0.00    -0.644 OA
ATOM     20  O   UNL d   1     -43.503  11.968  22.190  0.00  0.00    -0.644 OA
ENDBRANCH  17  18
ENDBRANCH  16  17
ENDBRANCH  15  16
ENDBRANCH  14  15
ENDBRANCH  13  14
ENDBRANCH  12  13
ENDBRANCH   2  12
TORSDOF 7
ENDMDL
MODEL 2
REMARK VINA RESULT:      -6.7      1.035      1.842
REMARK  7 active torsions:
REMARK  status: ('A' for Active; 'I' for Inactive)
REMARK    1  A    between atoms: N_9  and  C_2 
REMARK    2  A    between atoms: C_8  and  C_14 
REMARK    3  A    between atoms: C_15  and  N_9 
REMARK    4  A    between atoms: C_14  and  C_16 
REMARK    5  A    between atoms: C_17  and  C_15 
REMARK    6  A    between atoms: C_16  and  C_18 
REMARK    7  A    between atoms: C_18  and  C_17 
ROOT
ATOM      1  N   UNL d   1     -48.589  12.919  23.233  0.00  0.00    -0.198 NA
ATOM      2  C   UNL d   1     -48.423  13.712  23.066  0.00  0.00     0.166 A 
ATOM      3  C   UNL d   1     -49.361  12.690  23.413  0.00  0.00     0.222 A 
ATOM      4  C   UNL d   1     -49.027  14.273  23.080  0.00  0.00     0.054 A 
ATOM      5  N   UNL d   1     -49.966  13.253  23.426  0.00  0.00    -0.217 NA
ATOM      6  C   UNL d   1     -49.799  14.043  23.259  0.00  0.00     0.087 A 
ATOM      7  S   UNL d   1     -49.536  11.900  23.580  0.00  0.00    -0.037 SA
ATOM      8  C   UNL d   1     -48.858  15.058  22.914  0.00  0.00     0.005 A 
ATOM      9  C   UNL d   1     -50.402  14.599  23.273  0.00  0.00     0.019 A 
ATOM     10  C   UNL d   1     -49.465  15.623  22.927  0.00  0.00     0.000 A 
ATOM     11  C   UNL d   1     -50.236  15.394  23.106  0.00  0.00     0.002 A 
ENDROOT
BRANCH   2  12
ATOM     12  N   UNL d   1     -47.653  13.941  22.887  0.00  0.00    -0.225 NA
BRANCH  12  13
ATOM     13  C   UNL d   1     -47.079  13.365  22.757  0.00  0.00     0.101 C 
BRANCH  13  14
ATOM     14  C   UNL d   1     -46.287  13.588  22.695  0.00  0.00     0.021 C 
BRANCH  14  15
ATOM     15  C   UNL d   1     -45.816  13.272  22.091  0.00  0.00     0.002 C 
BRANCH  15  16
ATOM     16  C   UNL d   1     -45.035  13.073  22.245  0.00  0.00     0.006 C 
BRANCH  16  17
ATOM     17  C   UNL d   1     -44.546  12.826  21.627  0.00  0.00     0.070 C 
BRANCH  17  18
ATOM     18  C   UNL d   1     -43.802  12.509  21.794  0.00  0.00     0.211 C 
ATOM     19  O   UNL d   1     -43.727  11.883  22.324  0.00  0.00    -0.644 OA
ATOM     20  O   UNL d   1     -43.128  12.825  21.425  0.00  0.00    -0.644 OA
ENDBRANCH  17  18
ENDBRANCH  16  17
ENDBRANCH  15  16
ENDBRANCH  14  15
ENDBRANCH  13  14
ENDBRANCH  12  13
ENDBRANCH   2  12
TORSDOF 7
ENDMDL
MODEL 3
REMARK VINA RESULT:      -4.8      9.116      9.714
REMARK  7 active torsions:
REMARK  status: ('A' for Active; 'I' for Inactive)
REMARK    1  A    between atoms: N_9  and  C_2 
REMARK    2  A    between atoms: C_8  and  C_14 
REMARK    3  A    between atoms: C_15  and  N_9 
REMARK    4  A    between atoms: C_14  and  C_16 
REMARK    5  A    between atoms: C_17  and  C_15 
REMARK    6  A    between atoms: C_16  and  C_18 
REMARK    7  A    between atoms: C_18  and  C_17 
ROOT
ATOM      1  N   UNL d   1     -39.006  13.864  18.136  0.00  0.00    -0.198 NA
ATOM      2  C   UNL d   1     -39.576  14.361  18.471  0.00  0.00     0.166 A 
ATOM      3  C   UNL d   1     -38.914  13.836  17.317  0.00  0.00     0.222 A 
ATOM      4  C   UNL d   1     -40.052  14.828  17.987  0.00  0.00     0.054 A 
ATOM      5  N   UNL d   1     -39.392  14.306  16.833  0.00  0.00    -0.217 NA
ATOM      6  C   UNL d   1     -39.960  14.801  17.167  0.00  0.00     0.087 A 
ATOM      7  S   UNL d   1     -38.348  13.343  16.975  0.00  0.00    -0.037 SA
ATOM      8  C   UNL d   1     -40.617  15.320  18.323  0.00  0.00     0.005 A 
ATOM      9  C   UNL d   1     -40.433  15.265  16.684  0.00  0.00     0.019 A 
ATOM     10  C   UNL d   1     -41.096  15.791  17.837  0.00  0.00     0.000 A 
ATOM     11  C   UNL d   1     -41.005  15.763  17.018  0.00  0.00     0.002 A 
ENDROOT
BRANCH   2  12
ATOM     12  N   UNL d   1     -39.668  14.388  19.289  0.00  0.00    -0.225 NA
BRANCH  12  13
ATOM     13  C   UNL d   1     -39.079  14.076  19.773  0.00  0.00     0.101 C 
BRANCH  13  14
ATOM     14  C   UNL d   1     -39.198  14.047  20.589  0.00  0.00     0.021 C 
BRANCH  14  15
ATOM     15  C   UNL d   1     -38.587  13.793  21.086  0.00  0.00     0.002 C 
BRANCH  15  16
ATOM     16  C   UNL d   1     -38.744  13.623  21.873  0.00  0.00     0.006 C 
BRANCH  16  17
ATOM     17  C   UNL d   1     -38.120  13.557  22.411  0.00  0.00     0.070 C 
BRANCH  17  18
ATOM     18  C   UNL d   1     -38.263  13.269  23.171  0.00  0.00     0.211 C 
ATOM     19  O   UNL d   1     -37.941  12.549  23.409  0.00  0.00    -0.644 OA
ATOM     20  O   UNL d   1     -38.734  13.707  23.696  0.00  0.00    -0.644 OA
ENDBRANCH  17  18
ENDBRANCH  16  17
ENDBRANCH  15  16
ENDBRANCH  14  15
ENDBRANCH  13  14
ENDBRANCH  12  13
ENDBRANCH   2  12
TORSDOF 7
ENDMDL
MODEL 4
REMARK VINA RESULT:      -4.7      3.306      5.017
REMARK  7 active torsions:
REMARK  status: ('A' for Active; 'I' for Inactive)
REMARK    1  A    between atoms: N_9  and  C_2 
REMARK    2  A    between atoms: C_8  and  C_14 
REMARK    3  A    between atoms: C_15  and  N_9 
REMARK    4  A    between atoms: C_14  and  C_16 
REMARK    5  A    between atoms: C_17  and  C_15 
REMARK    6  A    between atoms: C_16  and  C_18 
REMARK    7  A    between atoms: C_18  and  C_17 
ROOT
ATOM      1  N   UNL d   1     -44.876  12.899  22.187  0.00  0.00    -0.198 NA
ATOM      2  C   UNL d   1     -45.319  12.400  22.675  0.00  0.00     0.166 A 
ATOM      3  C   UNL d   1     -44.110  12.686  21.967  0.00  0.00     0.222 A 
ATOM      4  C   UNL d   1     -44.995  11.690  22.942  0.00  0.00     0.054 A 
ATOM      5  N   UNL d   1     -43.787  11.974  22.236  0.00  0.00    -0.217 NA
ATOM      6  C   UNL d   1     -44.229  11.477  22.722  0.00  0.00     0.087 A 
ATOM      7  S   UNL d   1     -43.661  13.179  21.480  0.00  0.00    -0.037 SA
ATOM      8  C   UNL d   1     -45.438  11.197  23.427  0.00  0.00     0.005 A 
ATOM      9  C   UNL d   1     -43.906  10.771  22.987  0.00  0.00     0.019 A 
ATOM     10  C   UNL d   1     -45.114  10.483  23.696  0.00  0.00     0.000 A 
ATOM     11  C   UNL d   1     -44.348  10.270  23.476  0.00  0.00     0.002 A 
ENDROOT
BRANCH   2  12
ATOM     12  N   UNL d   1     -46.083  12.612  22.895  0.00  0.00    -0.225 NA
BRANCH  12  13
ATOM     13  C   UNL d   1     -46.410  13.309  22.602  0.00  0.00     0.101 C 
BRANCH  13  14
ATOM     14  C   UNL d   1     -47.152  13.552  22.867  0.00  0.00     0.021 C 
BRANCH  14  15
ATOM     15  C   UNL d   1     -47.541  14.176  22.488  0.00  0.00     0.002 C 
BRANCH  15  16
ATOM     16  C   UNL d   1     -48.252  14.457  22.787  0.00  0.00     0.006 C 
BRANCH  16  17
ATOM     17  C   UNL d   1     -48.624  15.101  22.426  0.00  0.00     0.070 C 
BRANCH  17  18
ATOM     18  C   UNL d   1     -49.362  15.351  22.695  0.00  0.00     0.211 C 
ATOM     19  O   UNL d   1     -49.421  15.814  23.375  0.00  0.00    -0.644 OA
ATOM     20  O   UNL d   1     -50.048  15.135  22.279  0.00  0.00    -0.644 OA
ENDBRANCH  17  18
ENDBRANCH  16  17
ENDBRANCH  15  16
ENDBRANCH  14  15
ENDBRANCH  13  14
ENDBRANCH  12  13
ENDBRANCH   2  12
TORSDOF 7
ENDMDL
MODEL 5
REMARK VINA RESULT:      -4.6      1.614      1.837
REMARK  7 active torsions:
REMARK  status: ('A' for Active; 'I' for Inactive)
REMARK    1  A    between atoms: N_9  and  C_2 
REMARK    2  A    between atoms: C_8  and  C_14 
REMARK    3  A    between atoms: C_15  and  N_9 
REMARK    4  A    between atoms: C_14  and  C_16 
REMARK    5  A    between atoms: C_17  and  C_15 
REMARK    6  A    between atoms: C_16  and  C_18 
REMARK    7  A    between atoms: C_18  and  C_17 
ROOT
ATOM      1  N   UNL d   1     -49.178  14.816  23.287  0.00  0.00    -0.198 NA
ATOM      2  C   UNL d   1     -49.047  14.113  22.873  0.00  0.00     0.166 A 
ATOM      3  C   UNL d   1     -49.911  15.193  23.238  0.00  0.00     0.222 A 
ATOM      4  C   UNL d   1     -49.647  13.788  22.410  0.00  0.00     0.054 A 
ATOM      5  N   UNL d   1     -50.511  14.866  22.773  0.00  0.00    -0.217 NA
ATOM      6  C   UNL d   1     -50.380  14.165  22.360  0.00  0.00     0.087 A 
ATOM      7  S   UNL d   1     -50.049  15.895  23.649  0.00  0.00    -0.037 SA
ATOM      8  C   UNL d   1     -49.513  13.090  21.999  0.00  0.00     0.005 A 
ATOM      9  C   UNL d   1     -50.978  13.844  21.900  0.00  0.00     0.019 A 
ATOM     10  C   UNL d   1     -50.115  12.762  21.533  0.00  0.00     0.000 A 
ATOM     11  C   UNL d   1     -50.848  13.139  21.484  0.00  0.00     0.002 A 
ENDROOT
BRANCH   2  12
ATOM     12  N   UNL d   1     -48.316  13.737  22.922  0.00  0.00    -0.225 NA
BRANCH  12  13
ATOM     13  C   UNL d   1     -47.627  14.187  22.897  0.00  0.00     0.101 C 
BRANCH  13  14
ATOM     14  C   UNL d   1     -46.938  13.894  23.244  0.00  0.00     0.021 C 
BRANCH  14  15
ATOM     15  C   UNL d   1     -46.488  13.322  22.849  0.00  0.00     0.002 C 
BRANCH  15  16
ATOM     16  C   UNL d   1     -46.273  12.632  23.238  0.00  0.00     0.006 C 
BRANCH  16  17
ATOM     17  C   UNL d   1     -45.657  12.169  22.940  0.00  0.00     0.070 C 
BRANCH  17  18
ATOM     18  C   UNL d   1     -45.513  11.423  23.262  0.00  0.00     0.211 C 
ATOM     19  O   UNL d   1     -44.822  11.282  23.689  0.00  0.00    -0.644 OA
ATOM     20  O   UNL d   1     -46.066  10.814  23.153  0.00  0.00    -0.644 OA
ENDBRANCH  17  18
ENDBRANCH  16  17
ENDBRANCH  15  16
ENDBRANCH  14  15
ENDBRANCH  13  14
ENDBRANCH  12  13
ENDBRANCH   2  12
TORSDOF 7
ENDMDL
MODEL 6
REMARK VINA RESULT:      -4.3      6.059      8.974
REMARK  7 active torsions:
REMARK  status: ('A' for Active; 'I' for Inactive)
REMARK    1  A    between atoms: N_9  and  C_2 
REMARK    2  A    between atoms: C_8  and  C_14 
REMARK    3  A    between atoms: C_15  and  N_9 
REMARK    4  A    between atoms: C_14  and  C_16 
REMARK    5  A    between atoms: C_17  and  C_15 
REMARK    6  A    between atoms: C_16  and  C_18 
REMARK    7  A    between atoms: C_18  and  C_17 
ROOT
ATOM      1  N   UNL d   1     -39.414  15.299  19.772  0.00  0.00    -0.198 NA
ATOM      2  C   UNL d   1     -40.074  15.201  19.283  0.00  0.00     0.166 A 
ATOM      3  C   UNL d   1     -38.702  15.567  19.454  0.00  0.00     0.222 A 
ATOM      4  C   UNL d   1     -40.020  15.373  18.478  0.00  0.00     0.054 A 
ATOM      5  N   UNL d   1     -38.650  15.739  18.646  0.00  0.00    -0.217 NA
ATOM      6  C   UNL d   1     -39.308  15.642  18.159  0.00  0.00     0.087 A 
ATOM      7  S   UNL d   1     -38.039  15.667  19.935  0.00  0.00    -0.037 SA
ATOM      8  C   UNL d   1     -40.677  15.275  17.996  0.00  0.00     0.005 A 
ATOM      9  C   UNL d   1     -39.252  15.813  17.359  0.00  0.00     0.019 A 
ATOM     10  C   UNL d   1     -40.625  15.447  17.186  0.00  0.00     0.000 A 
ATOM     11  C   UNL d   1     -39.913  15.716  16.868  0.00  0.00     0.002 A 
ENDROOT
BRANCH   2  12
ATOM     12  N   UNL d   1     -40.784  14.933  19.600  0.00  0.00    -0.225 NA
BRANCH  12  13
ATOM     13  C   UNL d   1     -40.775  14.478  20.286  0.00  0.00     0.101 C 
BRANCH  13  14
ATOM     14  C   UNL d   1     -41.479  14.346  20.695  0.00  0.00     0.021 C 
BRANCH  14  15
ATOM     15  C   UNL d   1     -41.730  13.571  20.846  0.00  0.00     0.002 C 
BRANCH  15  16
ATOM     16  C   UNL d   1     -42.366  13.438  21.347  0.00  0.00     0.006 C 
BRANCH  16  17
ATOM     17  C   UNL d   1     -42.977  12.935  21.109  0.00  0.00     0.070 C 
BRANCH  17  18
ATOM     18  C   UNL d   1     -43.483  12.610  21.673  0.00  0.00     0.211 C 
ATOM     19  O   UNL d   1     -44.213  12.961  21.826  0.00  0.00    -0.644 OA
ATOM     20  O   UNL d   1     -43.255  11.928  22.088  0.00  0.00    -0.644 OA
ENDBRANCH  17  18
ENDBRANCH  16  17
ENDBRANCH  15  16
ENDBRANCH  14  15
ENDBRANCH  13  14
ENDBRANCH  12  13
ENDBRANCH   2  12
TORSDOF 7
ENDMDL
MODEL 7
REMARK VINA RESULT:      -4.1      8.539      9.761
REMARK  7 active torsions:
REMARK  status: ('A' for Active; 'I' for Inactive)
REMARK    1  A    between atoms: N_9  and  C_2 
REMARK    2  A    between atoms: C_8  and  C_14 
REMARK    3  A    between atoms: C_15  and  N_9 
REMARK    4  A    between atoms: C_14  and  C_16 
REMARK    5  A    between atoms: C_17  and  C_15 
REMARK    6  A    between atoms: C_16  and  C_18 
REMARK    7  A    between atoms: C_18  and  C_17 
ROOT
ATOM      1  N   UNL d   1     -39.805  14.759  20.055  0.00  0.00    -0.198 NA
ATOM      2  C   UNL d   1     -39.145  14.275  20.174  0.00  0.00     0.166 A 
ATOM      3  C   UNL d   1     -40.275  14.980  20.695  0.00  0.00     0.222 A 
ATOM      4  C   UNL d   1     -38.958  14.013  20.934  0.00  0.00     0.054 A 
ATOM      5  N   UNL d   1     -40.086  14.717  21.456  0.00  0.00    -0.217 NA
ATOM      6  C   UNL d   1     -39.428  14.234  21.575  0.00  0.00     0.087 A 
ATOM      7  S   UNL d   1     -40.935  15.464  20.584  0.00  0.00    -0.037 SA
ATOM      8  C   UNL d   1     -38.303  13.532  21.048  0.00  0.00     0.005 A 
ATOM      9  C   UNL d   1     -39.243  13.974  22.330  0.00  0.00     0.019 A 
ATOM     10  C   UNL d   1     -38.113  13.268  21.811  0.00  0.00     0.000 A 
ATOM     11  C   UNL d   1     -38.583  13.489  22.452  0.00  0.00     0.002 A 
ENDROOT
BRANCH   2  12
ATOM     12  N   UNL d   1     -38.676  14.054  19.535  0.00  0.00    -0.225 NA
BRANCH  12  13
ATOM     13  C   UNL d   1     -38.989  14.084  18.774  0.00  0.00     0.101 C 
BRANCH  13  14
ATOM     14  C   UNL d   1     -38.513  13.881  18.131  0.00  0.00     0.021 C 
BRANCH  14  15
ATOM     15  C   UNL d   1     -38.832  13.877  17.367  0.00  0.00     0.002 C 
BRANCH  15  16
ATOM     16  C   UNL d   1     -38.374  14.123  16.732  0.00  0.00     0.006 C 
BRANCH  16  17
ATOM     17  C   UNL d   1     -38.306  13.642  16.064  0.00  0.00     0.070 C 
BRANCH  17  18
ATOM     18  C   UNL d   1     -38.124  13.978  15.334  0.00  0.00     0.211 C 
ATOM     19  O   UNL d   1     -37.940  14.779  15.280  0.00  0.00    -0.644 OA
ATOM     20  O   UNL d   1     -38.127  13.506  14.650  0.00  0.00    -0.644 OA
ENDBRANCH  17  18
ENDBRANCH  16  17
ENDBRANCH  15  16
ENDBRANCH  14  15
ENDBRANCH  13  14
ENDBRANCH  12  13
ENDBRANCH   2  12
TORSDOF 7
ENDMDL
