MODEL 1
REMARK VINA RESULT:      51.4      0.000      0.000
REMARK  3 active torsions:
REMARK  status: ('A' for Active; 'I' for Inactive)
REMARK       I    between atoms: C_6  and  N_1 
REMARK    1  A    between atoms: C_7  and  C_3 
REMARK    2  A    between atoms: C_8  and  C_4 
REMARK    3  A    between atoms: C_20  and  C_18 
ROOT
ATOM      1  N   UNL d   1     -49.597  25.931  33.584  0.00  0.00    -0.193 N 
ATOM      2  N   UNL d   1     -50.000  25.231  33.472  0.00  0.00    -0.163 NA
ATOM      3  C   UNL d   1     -50.145  26.525  33.750  0.00  0.00     0.110 A 
ATOM      4  C   UNL d   1     -50.802  25.393  33.568  0.00  0.00     0.103 A 
ATOM      5  C   UNL d   1     -50.883  26.181  33.737  0.00  0.00     0.042 A 
ATOM      6  C   UNL d   1     -48.753  26.036  33.540  0.00  0.00     0.281 C 
ATOM      7  O   UNL d   1     -48.428  26.760  33.664  0.00  0.00    -0.265 OA
ATOM      8  C   UNL d   1     -48.281  25.381  33.367  0.00  0.00     0.068 C 
ENDROOT
BRANCH   4   9
ATOM      9  C   UNL d   1     -51.413  24.845  33.503  0.00  0.00     0.019 A 
ATOM     10  C   UNL d   1     -51.245  24.038  33.447  0.00  0.00     0.002 A 
ATOM     11  C   UNL d   1     -51.856  23.490  33.381  0.00  0.00     0.000 A 
ATOM     12  C   UNL d   1     -52.644  23.748  33.372  0.00  0.00     0.000 A 
ATOM     13  C   UNL d   1     -52.813  24.552  33.428  0.00  0.00     0.000 A 
ATOM     14  C   UNL d   1     -52.201  25.103  33.494  0.00  0.00     0.002 A 
BRANCH  12  15
ATOM     15  C   UNL d   1     -53.256  23.198  33.307  0.00  0.00     0.000 C 
ATOM     16  C   UNL d   1     -53.895  23.224  33.828  0.00  0.00     0.000 C 
ENDBRANCH  12  15
ENDBRANCH   4   9
BRANCH   3  17
ATOM     17  C   UNL d   1     -49.964  27.321  33.900  0.00  0.00     0.118 A 
ATOM     18  O   UNL d   1     -50.267  27.967  33.495  0.00  0.00    -0.304 OA
ATOM     19  C   UNL d   1     -49.943  28.668  33.819  0.00  0.00     0.123 A 
ATOM     20  C   UNL d   1     -49.435  28.444  34.432  0.00  0.00     0.029 A 
ATOM     21  C   UNL d   1     -49.458  27.603  34.470  0.00  0.00     0.028 A 
ENDBRANCH   3  17
TORSDOF 3
ENDMDL
MODEL 2
REMARK VINA RESULT:      54.4      1.618      4.552
REMARK  3 active torsions:
REMARK  status: ('A' for Active; 'I' for Inactive)
REMARK       I    between atoms: C_6  and  N_1 
REMARK    1  A    between atoms: C_7  and  C_3 
REMARK    2  A    between atoms: C_8  and  C_4 
REMARK    3  A    between atoms: C_20  and  C_18 
ROOT
ATOM      1  N   UNL d   1     -51.739  25.902  33.555  0.00  0.00    -0.193 N 
ATOM      2  N   UNL d   1     -51.407  26.639  33.666  0.00  0.00    -0.163 NA
ATOM      3  C   UNL d   1     -51.141  25.335  33.612  0.00  0.00     0.110 A 
ATOM      4  C   UNL d   1     -50.600  26.527  33.792  0.00  0.00     0.103 A 
ATOM      5  C   UNL d   1     -50.446  25.733  33.758  0.00  0.00     0.042 A 
ATOM      6  C   UNL d   1     -52.561  25.741  33.405  0.00  0.00     0.281 C 
ATOM      7  O   UNL d   1     -52.813  24.984  33.306  0.00  0.00    -0.265 OA
ATOM      8  C   UNL d   1     -53.089  26.374  33.365  0.00  0.00     0.068 C 
ENDROOT
BRANCH   4   9
ATOM      9  C   UNL d   1     -50.050  27.124  33.929  0.00  0.00     0.019 A 
ATOM     10  C   UNL d   1     -49.803  27.614  33.312  0.00  0.00     0.002 A 
ATOM     11  C   UNL d   1     -49.253  28.211  33.449  0.00  0.00     0.000 A 
ATOM     12  C   UNL d   1     -48.944  28.321  34.211  0.00  0.00     0.000 A 
ATOM     13  C   UNL d   1     -49.189  27.833  34.828  0.00  0.00     0.000 A 
ATOM     14  C   UNL d   1     -49.741  27.234  34.691  0.00  0.00     0.002 A 
BRANCH  12  15
ATOM     15  C   UNL d   1     -48.392  28.919  34.348  0.00  0.00     0.000 C 
ATOM     16  C   UNL d   1     -47.969  28.940  35.056  0.00  0.00     0.000 C 
ENDBRANCH  12  15
ENDBRANCH   4   9
BRANCH   3  17
ATOM     17  C   UNL d   1     -51.245  24.516  33.533  0.00  0.00     0.118 A 
ATOM     18  O   UNL d   1     -50.668  23.945  33.657  0.00  0.00    -0.304 OA
ATOM     19  C   UNL d   1     -51.000  23.188  33.519  0.00  0.00     0.123 A 
ATOM     20  C   UNL d   1     -51.792  23.302  33.306  0.00  0.00     0.029 A 
ATOM     21  C   UNL d   1     -51.929  24.133  33.320  0.00  0.00     0.028 A 
ENDBRANCH   3  17
TORSDOF 3
ENDMDL
