MODEL 1
REMARK VINA RESULT:      10.4      0.000      0.000
REMARK  1 active torsions:
REMARK  status: ('A' for Active; 'I' for Inactive)
REMARK    1  A    between atoms: C_4  and  C_1 
ROOT
ATOM      1  C   UNL d   1      24.243  12.503  -2.542  0.00  0.00     0.036 A 
ATOM      2  C   UNL d   1      24.595  13.143  -2.935  0.00  0.00     0.061 A 
ATOM      3  C   UNL d   1      24.070  11.825  -2.971  0.00  0.00     0.004 A 
ATOM      4  C   UNL d   1      24.768  13.103  -3.728  0.00  0.00     0.023 A 
ATOM      5  C   UNL d   1      24.589  12.414  -4.151  0.00  0.00     0.059 A 
ATOM      6 CL   UNL d   1      24.768  13.821  -2.505  0.00  0.00    -0.082 Cl
ATOM      7  C   UNL d   1      24.244  11.779  -3.780  0.00  0.00     0.011 A 
ATOM      8 CL   UNL d   1      24.766  12.381  -4.951  0.00  0.00    -0.082 Cl
ENDROOT
BRANCH   1   9
ATOM      9  C   UNL d   1      24.064  12.535  -1.737  0.00  0.00     0.136 A 
ATOM     10  S   UNL d   1      23.386  12.855  -1.393  0.00  0.00    -0.024 SA
ATOM     11  C   UNL d   1      23.439  12.769  -0.574  0.00  0.00     0.236 A 
ATOM     12  N   UNL d   1      22.883  13.010  -0.014  0.00  0.00    -0.118 N 
ATOM     13  N   UNL d   1      24.167  12.386  -0.398  0.00  0.00    -0.119 NA
ATOM     14  N   UNL d   1      24.551  12.242  -1.114  0.00  0.00    -0.139 NA
ENDBRANCH   1   9
TORSDOF 1
ENDMDL
MODEL 2
REMARK VINA RESULT:      11.0     10.272     10.618
REMARK  1 active torsions:
REMARK  status: ('A' for Active; 'I' for Inactive)
REMARK    1  A    between atoms: C_4  and  C_1 
ROOT
ATOM      1  C   UNL d   1      13.561  12.342  -2.914  0.00  0.00     0.036 A 
ATOM      2  C   UNL d   1      13.715  13.075  -3.271  0.00  0.00     0.061 A 
ATOM      3  C   UNL d   1      13.140  11.780  -3.336  0.00  0.00     0.004 A 
ATOM      4  C   UNL d   1      13.454  13.236  -4.024  0.00  0.00     0.023 A 
ATOM      5  C   UNL d   1      13.029  12.659  -4.441  0.00  0.00     0.059 A 
ATOM      6 CL   UNL d   1      14.137  13.638  -2.849  0.00  0.00    -0.082 Cl
ATOM      7  C   UNL d   1      12.872  11.938  -4.104  0.00  0.00     0.011 A 
ATOM      8 CL   UNL d   1      12.769  12.828  -5.201  0.00  0.00    -0.082 Cl
ENDROOT
BRANCH   1   9
ATOM      9  C   UNL d   1      13.822  12.172  -2.150  0.00  0.00     0.136 A 
ATOM     10  S   UNL d   1      13.355  12.080  -1.476  0.00  0.00    -0.024 SA
ATOM     11  C   UNL d   1      13.846  11.914  -0.834  0.00  0.00     0.236 A 
ATOM     12  N   UNL d   1      13.613  11.781  -0.054  0.00  0.00    -0.118 N 
ATOM     13  N   UNL d   1      14.641  11.901  -1.109  0.00  0.00    -0.119 NA
ATOM     14  N   UNL d   1      14.626  12.059  -1.919  0.00  0.00    -0.139 NA
ENDBRANCH   1   9
TORSDOF 1
ENDMDL
MODEL 3
REMARK VINA RESULT:      12.6      2.146      3.216
REMARK  1 active torsions:
REMARK  status: ('A' for Active; 'I' for Inactive)
REMARK    1  A    between atoms: C_4  and  C_1 
ROOT
ATOM      1  C   UNL d   1      24.203  12.405  -2.560  0.00  0.00     0.036 A 
ATOM      2  C   UNL d   1      23.495  12.716  -2.261  0.00  0.00     0.061 A 
ATOM      3  C   UNL d   1      24.711  12.018  -2.046  0.00  0.00     0.004 A 
ATOM      4  C   UNL d   1      23.306  12.642  -1.474  0.00  0.00     0.023 A 
ATOM      5  C   UNL d   1      23.827  12.249  -0.963  0.00  0.00     0.059 A 
ATOM      6 CL   UNL d   1      22.986  13.104  -2.775  0.00  0.00    -0.082 Cl
ATOM      7  C   UNL d   1      24.523  11.938  -1.243  0.00  0.00     0.011 A 
ATOM      8 CL   UNL d   1      23.629  12.177  -0.171  0.00  0.00    -0.082 Cl
ENDROOT
BRANCH   1   9
ATOM      9  C   UNL d   1      24.402  12.476  -3.358  0.00  0.00     0.136 A 
ATOM     10  S   UNL d   1      24.438  11.869  -3.916  0.00  0.00    -0.024 SA
ATOM     11  C   UNL d   1      24.660  12.190  -4.643  0.00  0.00     0.236 A 
ATOM     12  N   UNL d   1      24.763  11.783  -5.353  0.00  0.00    -0.118 N 
ATOM     13  N   UNL d   1      24.766  13.019  -4.541  0.00  0.00    -0.119 NA
ATOM     14  N   UNL d   1      24.607  13.194  -3.751  0.00  0.00    -0.139 NA
ENDBRANCH   1   9
TORSDOF 1
ENDMDL
