MODEL 1
REMARK VINA RESULT:      22.9      0.000      0.000
REMARK  2 active torsions:
REMARK  status: ('A' for Active; 'I' for Inactive)
REMARK    1  A    between atoms: C_7  and  C_1 
REMARK    2  A    between atoms: O_15  and  C_11 
ROOT
ATOM      1  C   UNL d   1      58.599  49.663  50.858  0.00  0.00     0.103 A 
ATOM      2  C   UNL d   1      58.007  49.641  51.433  0.00  0.00     0.067 A 
ATOM      3  O   UNL d   1      58.396  49.676  50.080  0.00  0.00    -0.307 OA
ATOM      4  C   UNL d   1      57.213  49.630  51.229  0.00  0.00     0.200 A 
ATOM      5  C   UNL d   1      57.014  49.643  50.410  0.00  0.00     0.062 A 
ATOM      6  C   UNL d   1      57.605  49.666  49.836  0.00  0.00     0.103 A 
ATOM      7  O   UNL d   1      56.639  49.608  51.823  0.00  0.00    -0.286 OA
ATOM      8  C   UNL d   1      56.215  49.633  50.203  0.00  0.00     0.005 A 
ATOM      9  C   UNL d   1      57.398  49.678  49.054  0.00  0.00     0.025 A 
ATOM     10  C   UNL d   1      56.035  49.646  49.403  0.00  0.00     0.000 A 
ATOM     11  C   UNL d   1      56.627  49.668  48.829  0.00  0.00     0.002 A 
ENDROOT
BRANCH   1  12
ATOM     12  C   UNL d   1      59.375  49.673  51.088  0.00  0.00     0.023 A 
ATOM     13  C   UNL d   1      59.581  49.692  51.893  0.00  0.00     0.004 A 
ATOM     14  C   UNL d   1      60.363  49.702  52.147  0.00  0.00     0.024 A 
ATOM     15  C   UNL d   1      60.965  49.693  51.553  0.00  0.00     0.094 A 
ATOM     16  C   UNL d   1      60.759  49.674  50.748  0.00  0.00     0.024 A 
ATOM     17  C   UNL d   1      59.988  49.665  50.513  0.00  0.00     0.004 A 
BRANCH  15  18
ATOM     18  O   UNL d   1      61.793  49.703  51.797  0.00  0.00    -0.328 OA
ATOM     19  C   UNL d   1      61.963  49.701  52.615  0.00  0.00     0.181 C 
ENDBRANCH  15  18
ENDBRANCH   1  12
TORSDOF 2
ENDMDL
