MODEL 1
REMARK VINA RESULT:       4.5      0.000      0.000
REMARK  9 active torsions:
REMARK  status: ('A' for Active; 'I' for Inactive)
REMARK    1  A    between atoms: C_7  and  C_1 
REMARK    2  A    between atoms: N_6  and  C_2 
REMARK    3  A    between atoms: C_9  and  C_3 
REMARK       I    between atoms: C_8  and  N_6 
REMARK    4  A    between atoms: O_22  and  C_7 
REMARK    5  A    between atoms: C_11  and  C_8 
REMARK    6  A    between atoms: N_10  and  C_15 
REMARK    7  A    between atoms: C_15  and  C_11 
REMARK    8  A    between atoms: C_21  and  C_12 
REMARK    9  A    between atoms: C_29  and  O_22 
ROOT
ATOM      1  C   UNL d   1     -41.544-122.537 -51.797  0.00  0.00     0.088 A 
ATOM      2  C   UNL d   1     -41.302-122.683 -52.593  0.00  0.00     0.119 A 
ATOM      3  C   UNL d   1     -41.505-123.245 -51.405  0.00  0.00     0.014 A 
ATOM      4  S   UNL d   1     -41.123-123.439 -52.689  0.00  0.00    -0.067 SA
ATOM      5  C   UNL d   1     -41.246-123.817 -51.937  0.00  0.00     0.037 A 
ENDROOT
BRANCH   3   6
ATOM      6  C   UNL d   1     -41.703-123.288 -50.631  0.00  0.00     0.001 A 
ATOM      7  C   UNL d   1     -42.412-123.574 -50.385  0.00  0.00     0.000 A 
ATOM      8  C   UNL d   1     -42.607-123.613 -49.566  0.00  0.00     0.000 A 
ATOM      9  C   UNL d   1     -42.099-123.372 -49.036  0.00  0.00     0.000 A 
ATOM     10  C   UNL d   1     -41.362-123.072 -49.245  0.00  0.00     0.000 A 
ATOM     11  C   UNL d   1     -41.128-123.016 -50.059  0.00  0.00     0.000 A 
BRANCH   9  12
ATOM     12  C   UNL d   1     -42.302-123.415 -48.244  0.00  0.00     0.000 A 
ATOM     13  C   UNL d   1     -43.097-123.455 -48.036  0.00  0.00     0.000 A 
ATOM     14  C   UNL d   1     -43.304-123.499 -47.240  0.00  0.00     0.000 A 
ATOM     15  C   UNL d   1     -42.731-123.503 -46.677  0.00  0.00     0.000 A 
ATOM     16  C   UNL d   1     -41.926-123.463 -46.883  0.00  0.00     0.000 A 
ATOM     17  C   UNL d   1     -41.722-123.419 -47.684  0.00  0.00     0.000 A 
ENDBRANCH   9  12
ENDBRANCH   3   6
BRANCH   1  18
ATOM     18  C   UNL d   1     -41.789-121.779 -51.457  0.00  0.00     0.302 C 
ATOM     19  O   UNL d   1     -42.578-121.684 -51.190  0.00  0.00    -0.259 OA
BRANCH  18  20
ATOM     20  O   UNL d   1     -41.241-121.162 -51.402  0.00  0.00    -0.271 OA
BRANCH  20  21
ATOM     21  C   UNL d   1     -41.493-120.394 -51.109  0.00  0.00     0.126 C 
ATOM     22  C   UNL d   1     -41.126-119.733 -51.387  0.00  0.00     0.029 C 
ENDBRANCH  20  21
ENDBRANCH  18  20
ENDBRANCH   1  18
BRANCH   2  23
ATOM     23  N   UNL d   1     -41.242-122.121 -53.246  0.00  0.00    -0.201 NA
ATOM     24  C   UNL d   1     -41.450-122.364 -54.003  0.00  0.00     0.281 C 
ATOM     25  O   UNL d   1     -41.726-123.166 -54.146  0.00  0.00    -0.265 OA
BRANCH  24  26
ATOM     26  C   UNL d   1     -41.402-121.844 -54.652  0.00  0.00     0.082 C 
BRANCH  26  27
ATOM     27  C   UNL d   1     -42.084-121.436 -54.920  0.00  0.00     0.085 C 
BRANCH  27  28
ATOM     28  N   UNL d   1     -42.452-121.637 -55.628  0.00  0.00    -0.299 N 
ATOM     29  C   UNL d   1     -42.883-122.368 -55.693  0.00  0.00     0.107 A 
ATOM     30  C   UNL d   1     -43.251-122.564 -56.405  0.00  0.00     0.142 A 
ATOM     31  O   UNL d   1     -43.193-122.050 -57.041  0.00  0.00    -0.300 OA
ATOM     32  C   UNL d   1     -42.768-121.303 -57.021  0.00  0.00     0.142 A 
ATOM     33  C   UNL d   1     -42.404-121.113 -56.305  0.00  0.00     0.107 A 
ENDBRANCH  27  28
ENDBRANCH  26  27
ENDBRANCH  24  26
ENDBRANCH   2  23
TORSDOF 9
ENDMDL
