MODEL 1
REMARK VINA RESULT:      -8.9      0.000      0.000
REMARK  4 active torsions:
REMARK  status: ('A' for Active; 'I' for Inactive)
REMARK       I    between atoms: C_2  and  N_1 
REMARK    1  A    between atoms: C_6  and  C_2 
REMARK       I    between atoms: C_4  and  N_7 
REMARK    2  A    between atoms: C_5  and  C_4 
REMARK       I    between atoms: N_10  and  C_5 
REMARK    3  A    between atoms: N_7  and  C_13 
REMARK    4  A    between atoms: C_19  and  N_10 
ROOT
ATOM      1  N   UNL d   1     -49.040  13.732  22.933  0.00  0.00    -0.273 N 
ATOM      2  C   UNL d   1     -49.248  12.955  23.161  0.00  0.00     0.265 C 
ATOM      3  C   UNL d   1     -48.253  13.951  22.867  0.00  0.00     0.068 A 
ATOM      4  C   UNL d   1     -47.656  13.403  23.025  0.00  0.00     0.037 A 
ATOM      5  C   UNL d   1     -48.055  14.717  22.642  0.00  0.00     0.016 A 
ATOM      6  C   UNL d   1     -46.864  13.623  22.958  0.00  0.00     0.086 A 
ATOM      7  O   UNL d   1     -48.654  12.410  23.319  0.00  0.00    -0.267 OA
ATOM      8  C   UNL d   1     -47.263  14.938  22.575  0.00  0.00     0.003 A 
ATOM      9  C   UNL d   1     -49.635  14.277  22.776  0.00  0.00     0.083 A 
ATOM     10  C   UNL d   1     -46.668  14.392  22.732  0.00  0.00     0.019 A 
ATOM     11  C   UNL d   1     -49.439  15.046  22.551  0.00  0.00     0.019 A 
ATOM     12  C   UNL d   1     -48.651  15.266  22.484  0.00  0.00     0.003 A 
ENDROOT
BRANCH   6  13
ATOM     13  N   UNL d   1     -46.267  13.071  23.117  0.00  0.00    -0.204 NA
ATOM     14  C   UNL d   1     -45.785  12.800  22.505  0.00  0.00     0.337 C 
ATOM     15  O   UNL d   1     -45.896  13.080  21.736  0.00  0.00    -0.260 OA
BRANCH  14  16
ATOM     16  C   UNL d   1     -45.191  12.252  22.659  0.00  0.00     0.337 C 
ATOM     17  N   UNL d   1     -45.347  11.595  23.132  0.00  0.00    -0.204 NA
ATOM     18  O   UNL d   1     -44.438  12.361  22.337  0.00  0.00    -0.260 OA
BRANCH  17  19
ATOM     19  C   UNL d   1     -44.750  11.046  23.285  0.00  0.00     0.085 A 
ATOM     20  C   UNL d   1     -43.967  11.259  23.183  0.00  0.00     0.019 A 
ATOM     21  C   UNL d   1     -43.361  10.708  23.336  0.00  0.00     0.002 A 
ATOM     22  C   UNL d   1     -43.556   9.948  23.590  0.00  0.00     0.000 A 
ATOM     23  C   UNL d   1     -44.356   9.738  23.691  0.00  0.00     0.002 A 
ATOM     24  C   UNL d   1     -44.944  10.286  23.539  0.00  0.00     0.019 A 
ENDBRANCH  17  19
ENDBRANCH  14  16
ENDBRANCH   6  13
BRANCH   2  25
ATOM     25  C   UNL d   1     -50.041  12.738  23.227  0.00  0.00     0.057 A 
ATOM     26  C   UNL d   1     -50.833  12.518  23.296  0.00  0.00     0.005 A 
ATOM     27  C   UNL d   1     -50.250  12.086  23.688  0.00  0.00     0.005 A 
ENDBRANCH   2  25
TORSDOF 4
ENDMDL
MODEL 2
REMARK VINA RESULT:      -8.7      1.437      2.413
REMARK  4 active torsions:
REMARK  status: ('A' for Active; 'I' for Inactive)
REMARK       I    between atoms: C_2  and  N_1 
REMARK    1  A    between atoms: C_6  and  C_2 
REMARK       I    between atoms: C_4  and  N_7 
REMARK    2  A    between atoms: C_5  and  C_4 
REMARK       I    between atoms: N_10  and  C_5 
REMARK    3  A    between atoms: N_7  and  C_13 
REMARK    4  A    between atoms: C_19  and  N_10 
ROOT
ATOM      1  N   UNL d   1     -49.732  13.579  23.375  0.00  0.00    -0.273 N 
ATOM      2  C   UNL d   1     -49.525  14.385  23.296  0.00  0.00     0.265 C 
ATOM      3  C   UNL d   1     -49.186  12.990  23.214  0.00  0.00     0.068 A 
ATOM      4  C   UNL d   1     -48.422  13.189  22.970  0.00  0.00     0.037 A 
ATOM      5  C   UNL d   1     -49.396  12.199  23.294  0.00  0.00     0.016 A 
ATOM      6  C   UNL d   1     -47.873  12.596  22.808  0.00  0.00     0.086 A 
ATOM      7  O   UNL d   1     -48.765  14.583  23.053  0.00  0.00    -0.267 OA
ATOM      8  C   UNL d   1     -48.846  11.605  23.131  0.00  0.00     0.003 A 
ATOM      9  C   UNL d   1     -50.493  13.382  23.617  0.00  0.00     0.083 A 
ATOM     10  C   UNL d   1     -48.086  11.803  22.889  0.00  0.00     0.019 A 
ATOM     11  C   UNL d   1     -50.706  12.589  23.698  0.00  0.00     0.019 A 
ATOM     12  C   UNL d   1     -50.159  11.999  23.537  0.00  0.00     0.003 A 
ENDROOT
BRANCH   6  13
ATOM     13  N   UNL d   1     -47.107  12.799  22.564  0.00  0.00    -0.204 NA
ATOM     14  C   UNL d   1     -46.457  12.557  23.010  0.00  0.00     0.337 C 
ATOM     15  O   UNL d   1     -46.569  12.114  23.698  0.00  0.00    -0.260 OA
BRANCH  14  16
ATOM     16  C   UNL d   1     -45.695  12.757  22.772  0.00  0.00     0.337 C 
ATOM     17  N   UNL d   1     -45.258  12.237  22.304  0.00  0.00    -0.204 NA
ATOM     18  O   UNL d   1     -45.369  13.479  23.003  0.00  0.00    -0.260 OA
BRANCH  17  19
ATOM     19  C   UNL d   1     -44.494  12.439  22.066  0.00  0.00     0.085 A 
ATOM     20  C   UNL d   1     -44.383  13.050  21.535  0.00  0.00     0.019 A 
ATOM     21  C   UNL d   1     -43.614  13.258  21.292  0.00  0.00     0.002 A 
ATOM     22  C   UNL d   1     -42.966  12.844  21.591  0.00  0.00     0.000 A 
ATOM     23  C   UNL d   1     -43.087  12.222  22.133  0.00  0.00     0.002 A 
ATOM     24  C   UNL d   1     -43.846  12.025  22.365  0.00  0.00     0.019 A 
ENDBRANCH  17  19
ENDBRANCH  14  16
ENDBRANCH   6  13
BRANCH   2  25
ATOM     25  C   UNL d   1     -50.078  14.976  23.459  0.00  0.00     0.057 A 
ATOM     26  C   UNL d   1     -50.628  15.569  23.620  0.00  0.00     0.005 A 
ATOM     27  C   UNL d   1     -49.904  15.762  23.276  0.00  0.00     0.005 A 
ENDBRANCH   2  25
TORSDOF 4
ENDMDL
MODEL 3
REMARK VINA RESULT:      -7.9      1.205      5.060
REMARK  4 active torsions:
REMARK  status: ('A' for Active; 'I' for Inactive)
REMARK       I    between atoms: C_2  and  N_1 
REMARK    1  A    between atoms: C_6  and  C_2 
REMARK       I    between atoms: C_4  and  N_7 
REMARK    2  A    between atoms: C_5  and  C_4 
REMARK       I    between atoms: N_10  and  C_5 
REMARK    3  A    between atoms: N_7  and  C_13 
REMARK    4  A    between atoms: C_19  and  N_10 
ROOT
ATOM      1  N   UNL d   1     -44.186  11.722  22.660  0.00  0.00    -0.273 N 
ATOM      2  C   UNL d   1     -44.386  11.093  23.173  0.00  0.00     0.265 C 
ATOM      3  C   UNL d   1     -44.728  12.314  22.495  0.00  0.00     0.068 A 
ATOM      4  C   UNL d   1     -45.479  12.294  22.835  0.00  0.00     0.037 A 
ATOM      5  C   UNL d   1     -44.524  12.930  21.989  0.00  0.00     0.016 A 
ATOM      6  C   UNL d   1     -46.025  12.890  22.668  0.00  0.00     0.086 A 
ATOM      7  O   UNL d   1     -45.134  11.073  23.512  0.00  0.00    -0.267 OA
ATOM      8  C   UNL d   1     -45.069  13.527  21.823  0.00  0.00     0.003 A 
ATOM      9  C   UNL d   1     -43.436  11.741  22.322  0.00  0.00     0.083 A 
ATOM     10  C   UNL d   1     -45.818  13.507  22.161  0.00  0.00     0.019 A 
ATOM     11  C   UNL d   1     -43.230  12.358  21.815  0.00  0.00     0.019 A 
ATOM     12  C   UNL d   1     -43.772  12.951  21.649  0.00  0.00     0.003 A 
ENDROOT
BRANCH   6  13
ATOM     13  N   UNL d   1     -46.778  12.867  23.012  0.00  0.00    -0.204 NA
ATOM     14  C   UNL d   1     -47.448  12.857  22.530  0.00  0.00     0.337 C 
ATOM     15  O   UNL d   1     -47.366  12.869  21.709  0.00  0.00    -0.260 OA
BRANCH  14  16
ATOM     16  C   UNL d   1     -48.198  12.833  22.866  0.00  0.00     0.337 C 
ATOM     17  N   UNL d   1     -48.809  12.426  22.490  0.00  0.00    -0.204 NA
ATOM     18  O   UNL d   1     -48.340  13.220  23.582  0.00  0.00    -0.260 OA
BRANCH  17  19
ATOM     19  C   UNL d   1     -49.561  12.404  22.829  0.00  0.00     0.085 A 
ATOM     20  C   UNL d   1     -50.108  12.981  22.640  0.00  0.00     0.019 A 
ATOM     21  C   UNL d   1     -50.868  12.963  22.981  0.00  0.00     0.002 A 
ATOM     22  C   UNL d   1     -51.064  12.361  23.509  0.00  0.00     0.000 A 
ATOM     23  C   UNL d   1     -50.501  11.776  23.697  0.00  0.00     0.002 A 
ATOM     24  C   UNL d   1     -49.757  11.802  23.357  0.00  0.00     0.019 A 
ENDBRANCH  17  19
ENDBRANCH  14  16
ENDBRANCH   6  13
BRANCH   2  25
ATOM     25  C   UNL d   1     -43.838  10.498  23.338  0.00  0.00     0.057 A 
ATOM     26  C   UNL d   1     -43.293   9.902  23.504  0.00  0.00     0.005 A 
ATOM     27  C   UNL d   1     -44.088   9.799  23.698  0.00  0.00     0.005 A 
ENDBRANCH   2  25
TORSDOF 4
ENDMDL
MODEL 4
REMARK VINA RESULT:      -7.5      1.250      5.463
REMARK  4 active torsions:
REMARK  status: ('A' for Active; 'I' for Inactive)
REMARK       I    between atoms: C_2  and  N_1 
REMARK    1  A    between atoms: C_6  and  C_2 
REMARK       I    between atoms: C_4  and  N_7 
REMARK    2  A    between atoms: C_5  and  C_4 
REMARK       I    between atoms: N_10  and  C_5 
REMARK    3  A    between atoms: N_7  and  C_13 
REMARK    4  A    between atoms: C_19  and  N_10 
ROOT
ATOM      1  N   UNL d   1     -44.753  12.021  22.573  0.00  0.00    -0.273 N 
ATOM      2  C   UNL d   1     -44.549  12.708  22.143  0.00  0.00     0.265 C 
ATOM      3  C   UNL d   1     -45.491  11.951  22.924  0.00  0.00     0.068 A 
ATOM      4  C   UNL d   1     -46.041  12.563  22.854  0.00  0.00     0.037 A 
ATOM      5  C   UNL d   1     -45.686  11.272  23.345  0.00  0.00     0.016 A 
ATOM      6  C   UNL d   1     -46.784  12.492  23.207  0.00  0.00     0.086 A 
ATOM      7  O   UNL d   1     -45.097  13.316  22.075  0.00  0.00    -0.267 OA
ATOM      8  C   UNL d   1     -46.428  11.202  23.698  0.00  0.00     0.003 A 
ATOM      9  C   UNL d   1     -44.205  11.412  22.641  0.00  0.00     0.083 A 
ATOM     10  C   UNL d   1     -46.976  11.810  23.629  0.00  0.00     0.019 A 
ATOM     11  C   UNL d   1     -44.398  10.730  23.064  0.00  0.00     0.019 A 
ATOM     12  C   UNL d   1     -45.136  10.660  23.415  0.00  0.00     0.003 A 
ENDROOT
BRANCH   6  13
ATOM     13  N   UNL d   1     -47.334  13.108  23.135  0.00  0.00    -0.204 NA
ATOM     14  C   UNL d   1     -48.063  12.967  22.776  0.00  0.00     0.337 C 
ATOM     15  O   UNL d   1     -48.243  12.214  22.489  0.00  0.00    -0.260 OA
BRANCH  14  16
ATOM     16  C   UNL d   1     -48.612  13.575  22.703  0.00  0.00     0.337 C 
ATOM     17  N   UNL d   1     -49.120  13.752  23.328  0.00  0.00    -0.204 NA
ATOM     18  O   UNL d   1     -48.653  14.009  22.002  0.00  0.00    -0.260 OA
BRANCH  17  19
ATOM     19  C   UNL d   1     -49.670  14.362  23.252  0.00  0.00     0.085 A 
ATOM     20  C   UNL d   1     -49.435  15.137  23.364  0.00  0.00     0.019 A 
ATOM     21  C   UNL d   1     -49.987  15.756  23.288  0.00  0.00     0.002 A 
ATOM     22  C   UNL d   1     -50.771  15.583  23.100  0.00  0.00     0.000 A 
ATOM     23  C   UNL d   1     -51.003  14.791  22.988  0.00  0.00     0.002 A 
ATOM     24  C   UNL d   1     -50.455  14.189  23.064  0.00  0.00     0.019 A 
ENDBRANCH  17  19
ENDBRANCH  14  16
ENDBRANCH   6  13
BRANCH   2  25
ATOM     25  C   UNL d   1     -43.806  12.774  21.792  0.00  0.00     0.057 A 
ATOM     26  C   UNL d   1     -43.064  12.845  21.439  0.00  0.00     0.005 A 
ATOM     27  C   UNL d   1     -43.642  13.416  21.299  0.00  0.00     0.005 A 
ENDBRANCH   2  25
TORSDOF 4
ENDMDL
MODEL 5
REMARK VINA RESULT:      -7.0      2.617      3.729
REMARK  4 active torsions:
REMARK  status: ('A' for Active; 'I' for Inactive)
REMARK       I    between atoms: C_2  and  N_1 
REMARK    1  A    between atoms: C_6  and  C_2 
REMARK       I    between atoms: C_4  and  N_7 
REMARK    2  A    between atoms: C_5  and  C_4 
REMARK       I    between atoms: N_10  and  C_5 
REMARK    3  A    between atoms: N_7  and  C_13 
REMARK    4  A    between atoms: C_19  and  N_10 
ROOT
ATOM      1  N   UNL d   1     -46.939  13.191  22.958  0.00  0.00    -0.273 N 
ATOM      2  C   UNL d   1     -47.057  13.958  22.647  0.00  0.00     0.265 C 
ATOM      3  C   UNL d   1     -46.230  12.797  22.840  0.00  0.00     0.068 A 
ATOM      4  C   UNL d   1     -45.623  13.157  22.411  0.00  0.00     0.037 A 
ATOM      5  C   UNL d   1     -46.121  12.042  23.148  0.00  0.00     0.016 A 
ATOM      6  C   UNL d   1     -44.910  12.760  22.292  0.00  0.00     0.086 A 
ATOM      7  O   UNL d   1     -46.452  14.316  22.220  0.00  0.00    -0.267 OA
ATOM      8  C   UNL d   1     -45.408  11.645  23.030  0.00  0.00     0.003 A 
ATOM      9  C   UNL d   1     -47.544  12.834  23.385  0.00  0.00     0.083 A 
ATOM     10  C   UNL d   1     -44.803  12.003  22.603  0.00  0.00     0.019 A 
ATOM     11  C   UNL d   1     -47.437  12.077  23.695  0.00  0.00     0.019 A 
ATOM     12  C   UNL d   1     -46.728  11.682  23.578  0.00  0.00     0.003 A 
ENDROOT
BRANCH   6  13
ATOM     13  N   UNL d   1     -44.303  13.124  21.861  0.00  0.00    -0.204 NA
ATOM     14  C   UNL d   1     -43.595  12.721  21.730  0.00  0.00     0.337 C 
ATOM     15  O   UNL d   1     -43.493  11.958  22.028  0.00  0.00    -0.260 OA
BRANCH  14  16
ATOM     16  C   UNL d   1     -42.990  13.078  21.303  0.00  0.00     0.337 C 
ATOM     17  N   UNL d   1     -42.480  13.611  21.672  0.00  0.00    -0.204 NA
ATOM     18  O   UNL d   1     -42.893  12.901  20.502  0.00  0.00    -0.260 OA
BRANCH  17  19
ATOM     19  C   UNL d   1     -41.874  13.968  21.241  0.00  0.00     0.085 A 
ATOM     20  C   UNL d   1     -41.972  14.726  20.954  0.00  0.00     0.019 A 
ATOM     21  C   UNL d   1     -41.363  15.090  20.518  0.00  0.00     0.002 A 
ATOM     22  C   UNL d   1     -40.660  14.681  20.379  0.00  0.00     0.000 A 
ATOM     23  C   UNL d   1     -40.567  13.907  20.676  0.00  0.00     0.002 A 
ATOM     24  C   UNL d   1     -41.171  13.558  21.102  0.00  0.00     0.019 A 
ENDBRANCH  17  19
ENDBRANCH  14  16
ENDBRANCH   6  13
BRANCH   2  25
ATOM     25  C   UNL d   1     -47.772  14.352  22.768  0.00  0.00     0.057 A 
ATOM     26  C   UNL d   1     -48.485  14.749  22.886  0.00  0.00     0.005 A 
ATOM     27  C   UNL d   1     -47.911  15.073  22.390  0.00  0.00     0.005 A 
ENDBRANCH   2  25
TORSDOF 4
ENDMDL
