MODEL 1
REMARK VINA RESULT:      14.7      0.000      0.000
REMARK  4 active torsions:
REMARK  status: ('A' for Active; 'I' for Inactive)
REMARK    1  A    between atoms: C_3  and  N_1 
REMARK       I    between atoms: C_4  and  N_1 
REMARK    2  A    between atoms: C_9  and  C_4 
REMARK    3  A    between atoms: C_5  and  C_10 
REMARK    4  A    between atoms: C_10  and  C_9 
ROOT
ATOM      1  N   UNL d   1      59.270  49.696  49.690  0.00  0.00    -0.189 NA
ATOM      2  C   UNL d   1      59.980  49.689  50.138  0.00  0.00     0.281 C 
ATOM      3  O   UNL d   1      60.699  49.695  49.760  0.00  0.00    -0.265 OA
ENDROOT
BRANCH   1   4
ATOM      4  C   UNL d   1      58.537  49.690  50.100  0.00  0.00     0.166 A 
ATOM      5  N   UNL d   1      57.822  49.708  49.683  0.00  0.00    -0.225 NA
ATOM      6  C   UNL d   1      57.104  49.703  50.060  0.00  0.00     0.107 A 
ATOM      7  C   UNL d   1      57.071  49.679  50.862  0.00  0.00     0.054 A 
ATOM      8  C   UNL d   1      57.764  49.659  51.329  0.00  0.00     0.011 A 
ATOM      9 BR   UNL d   1      56.291  49.675  51.221  0.00  0.00    -0.048 Br
ATOM     10  C   UNL d   1      58.485  49.664  50.957  0.00  0.00     0.039 A 
ENDBRANCH   1   4
BRANCH   2  11
ATOM     11  C   UNL d   1      59.960  49.677  50.986  0.00  0.00     0.069 C 
BRANCH  11  12
ATOM     12  C   UNL d   1      60.662  49.671  51.390  0.00  0.00     0.075 C 
BRANCH  12  13
ATOM     13  C   UNL d   1      60.658  49.681  52.216  0.00  0.00     0.211 C 
ATOM     14  O   UNL d   1      61.384  49.667  52.634  0.00  0.00    -0.644 OA
ATOM     15  O   UNL d   1      59.963  49.705  52.612  0.00  0.00    -0.644 OA
ENDBRANCH  12  13
ENDBRANCH  11  12
ENDBRANCH   2  11
TORSDOF 4
ENDMDL
