MODEL 1
REMARK VINA RESULT:       1.6      0.000      0.000
REMARK  6 active torsions:
REMARK  status: ('A' for Active; 'I' for Inactive)
REMARK    1  A    between atoms: C_5  and  C_1 
REMARK    2  A    between atoms: N_6  and  C_5 
REMARK    3  A    between atoms: C_9  and  C_5 
REMARK    4  A    between atoms: C_8  and  C_11 
REMARK    5  A    between atoms: O_18  and  C_8 
REMARK    6  A    between atoms: C_23  and  O_18 
ROOT
ATOM      1  C   UNL d   1      32.093  17.467 -23.614  0.00  0.00     0.083 C 
ENDROOT
BRANCH   1   2
ATOM      2  C   UNL d   1      32.505  18.187 -23.710  0.00  0.00     0.037 A 
ATOM      3  C   UNL d   1      32.910  18.425 -24.389  0.00  0.00     0.083 A 
ATOM      4  N   UNL d   1      33.238  19.153 -24.273  0.00  0.00    -0.245 NA
ATOM      5  C   UNL d   1      32.968  17.968 -25.097  0.00  0.00     0.021 C 
ATOM      6  C   UNL d   1      33.051  19.392 -23.523  0.00  0.00     0.081 A 
ATOM      7  C   UNL d   1      32.598  18.796 -23.175  0.00  0.00     0.021 A 
ATOM      8  C   UNL d   1      33.227  20.074 -23.096  0.00  0.00     0.019 A 
ATOM      9  C   UNL d   1      32.324  18.885 -22.403  0.00  0.00     0.002 A 
ATOM     10  C   UNL d   1      32.501  19.569 -21.975  0.00  0.00     0.000 A 
ATOM     11  C   UNL d   1      32.953  20.165 -22.323  0.00  0.00     0.002 A 
ENDBRANCH   1   2
BRANCH   1  12
ATOM     12  N   UNL d   1      31.295  17.402 -23.863  0.00  0.00    -0.302 N 
ATOM     13  C   UNL d   1      31.126  17.307 -24.653  0.00  0.00     0.080 A 
ATOM     14  C   UNL d   1      30.342  17.243 -24.896  0.00  0.00     0.024 A 
ATOM     15  C   UNL d   1      29.740  17.278 -24.327  0.00  0.00     0.067 A 
ATOM     16  C   UNL d   1      29.912  17.373 -23.536  0.00  0.00     0.024 A 
ATOM     17  C   UNL d   1      30.697  17.437 -23.293  0.00  0.00     0.080 A 
BRANCH  15  18
ATOM     18  C   UNL d   1      28.938  17.214 -24.561  0.00  0.00     0.300 C 
ATOM     19  O   UNL d   1      28.479  17.897 -24.671  0.00  0.00    -0.259 OA
BRANCH  18  20
ATOM     20  O   UNL d   1      28.620  16.472 -24.678  0.00  0.00    -0.271 OA
BRANCH  20  21
ATOM     21  C   UNL d   1      27.897  16.280 -24.336  0.00  0.00     0.126 C 
ATOM     22  C   UNL d   1      27.486  15.632 -24.606  0.00  0.00     0.029 C 
ENDBRANCH  20  21
ENDBRANCH  18  20
ENDBRANCH  15  18
ENDBRANCH   1  12
BRANCH   1  23
ATOM     23  C   UNL d   1      32.482  16.808 -23.268  0.00  0.00     0.098 A 
ATOM     24  N   UNL d   1      32.514  16.729 -22.457  0.00  0.00    -0.243 NA
ATOM     25  C   UNL d   1      32.891  16.091 -22.117  0.00  0.00     0.099 A 
ATOM     26  C   UNL d   1      33.240  15.524 -22.595  0.00  0.00     0.021 A 
ATOM     27  C   UNL d   1      33.215  15.591 -23.411  0.00  0.00     0.003 A 
ATOM     28  C   UNL d   1      32.837  16.232 -23.768  0.00  0.00     0.021 A 
ENDBRANCH   1  23
TORSDOF 6
ENDMDL
MODEL 2
REMARK VINA RESULT:       2.2      1.918      4.002
REMARK  6 active torsions:
REMARK  status: ('A' for Active; 'I' for Inactive)
REMARK    1  A    between atoms: C_5  and  C_1 
REMARK    2  A    between atoms: N_6  and  C_5 
REMARK    3  A    between atoms: C_9  and  C_5 
REMARK    4  A    between atoms: C_8  and  C_11 
REMARK    5  A    between atoms: O_18  and  C_8 
REMARK    6  A    between atoms: C_23  and  O_18 
ROOT
ATOM      1  C   UNL d   1      32.013  17.618 -23.676  0.00  0.00     0.083 C 
ENDROOT
BRANCH   1   2
ATOM      2  C   UNL d   1      31.320  17.677 -24.137  0.00  0.00     0.037 A 
ATOM      3  C   UNL d   1      31.215  18.168 -24.792  0.00  0.00     0.083 A 
ATOM      4  N   UNL d   1      30.472  18.072 -25.092  0.00  0.00    -0.245 NA
ATOM      5  C   UNL d   1      31.804  18.691 -25.097  0.00  0.00     0.021 C 
ATOM      6  C   UNL d   1      30.091  17.522 -24.638  0.00  0.00     0.081 A 
ATOM      7  C   UNL d   1      30.614  17.278 -24.048  0.00  0.00     0.021 A 
ATOM      8  C   UNL d   1      29.333  17.200 -24.673  0.00  0.00     0.019 A 
ATOM      9  C   UNL d   1      30.376  16.713 -23.496  0.00  0.00     0.002 A 
ATOM     10  C   UNL d   1      29.617  16.391 -23.531  0.00  0.00     0.000 A 
ATOM     11  C   UNL d   1      29.094  16.635 -24.121  0.00  0.00     0.002 A 
ENDBRANCH   1   2
BRANCH   1  12
ATOM     12  N   UNL d   1      32.294  18.284 -23.250  0.00  0.00    -0.302 N 
ATOM     13  C   UNL d   1      32.642  18.900 -23.650  0.00  0.00     0.080 A 
ATOM     14  C   UNL d   1      32.917  19.553 -23.230  0.00  0.00     0.024 A 
ATOM     15  C   UNL d   1      32.832  19.567 -22.406  0.00  0.00     0.067 A 
ATOM     16  C   UNL d   1      32.482  18.947 -22.007  0.00  0.00     0.024 A 
ATOM     17  C   UNL d   1      32.207  18.294 -22.428  0.00  0.00     0.080 A 
BRANCH  15  18
ATOM     18  C   UNL d   1      33.107  20.225 -21.967  0.00  0.00     0.300 C 
ATOM     19  O   UNL d   1      33.241  20.157 -21.151  0.00  0.00    -0.259 OA
BRANCH  18  20
ATOM     20  O   UNL d   1      33.240  20.929 -22.356  0.00  0.00    -0.271 OA
BRANCH  20  21
ATOM     21  C   UNL d   1      33.125  21.642 -21.961  0.00  0.00     0.126 C 
ATOM     22  C   UNL d   1      33.224  22.342 -22.362  0.00  0.00     0.029 C 
ENDBRANCH  20  21
ENDBRANCH  18  20
ENDBRANCH  15  18
ENDBRANCH   1  12
BRANCH   1  23
ATOM     23  C   UNL d   1      32.429  16.890 -23.642  0.00  0.00     0.098 A 
ATOM     24  N   UNL d   1      32.568  16.528 -22.924  0.00  0.00    -0.243 NA
ATOM     25  C   UNL d   1      32.971  15.821 -22.887  0.00  0.00     0.099 A 
ATOM     26  C   UNL d   1      33.240  15.470 -23.578  0.00  0.00     0.021 A 
ATOM     27  C   UNL d   1      33.108  15.822 -24.306  0.00  0.00     0.003 A 
ATOM     28  C   UNL d   1      32.701  16.539 -24.357  0.00  0.00     0.021 A 
ENDBRANCH   1  23
TORSDOF 6
ENDMDL
MODEL 3
REMARK VINA RESULT:       4.6      0.847      2.503
REMARK  6 active torsions:
REMARK  status: ('A' for Active; 'I' for Inactive)
REMARK    1  A    between atoms: C_5  and  C_1 
REMARK    2  A    between atoms: N_6  and  C_5 
REMARK    3  A    between atoms: C_9  and  C_5 
REMARK    4  A    between atoms: C_8  and  C_11 
REMARK    5  A    between atoms: O_18  and  C_8 
REMARK    6  A    between atoms: C_23  and  O_18 
ROOT
ATOM      1  C   UNL d   1      31.960  17.359 -24.079  0.00  0.00     0.083 C 
ENDROOT
BRANCH   1   2
ATOM      2  C   UNL d   1      32.360  16.682 -23.799  0.00  0.00     0.037 A 
ATOM      3  C   UNL d   1      32.619  16.048 -24.261  0.00  0.00     0.083 A 
ATOM      4  N   UNL d   1      32.982  15.498 -23.795  0.00  0.00    -0.245 NA
ATOM      5  C   UNL d   1      32.515  15.991 -25.097  0.00  0.00     0.021 C 
ATOM      6  C   UNL d   1      32.962  15.768 -23.032  0.00  0.00     0.081 A 
ATOM      7  C   UNL d   1      32.579  16.498 -23.035  0.00  0.00     0.021 A 
ATOM      8  C   UNL d   1      33.241  15.453 -22.323  0.00  0.00     0.019 A 
ATOM      9  C   UNL d   1      32.475  16.911 -22.328  0.00  0.00     0.002 A 
ATOM     10  C   UNL d   1      32.755  16.595 -21.618  0.00  0.00     0.000 A 
ATOM     11  C   UNL d   1      33.138  15.865 -21.615  0.00  0.00     0.002 A 
ENDBRANCH   1   2
BRANCH   1  12
ATOM     12  N   UNL d   1      31.131  17.337 -24.202  0.00  0.00    -0.302 N 
ATOM     13  C   UNL d   1      30.633  17.653 -23.641  0.00  0.00     0.080 A 
ATOM     14  C   UNL d   1      29.818  17.631 -23.764  0.00  0.00     0.024 A 
ATOM     15  C   UNL d   1      29.525  17.287 -24.458  0.00  0.00     0.067 A 
ATOM     16  C   UNL d   1      30.026  16.972 -25.019  0.00  0.00     0.024 A 
ATOM     17  C   UNL d   1      30.841  16.994 -24.895  0.00  0.00     0.080 A 
BRANCH  15  18
ATOM     18  C   UNL d   1      28.698  17.259 -24.594  0.00  0.00     0.300 C 
ATOM     19  O   UNL d   1      28.293  17.938 -24.847  0.00  0.00    -0.259 OA
BRANCH  18  20
ATOM     20  O   UNL d   1      28.304  16.556 -24.475  0.00  0.00    -0.271 OA
BRANCH  20  21
ATOM     21  C   UNL d   1      27.756  16.493 -23.864  0.00  0.00     0.126 C 
ATOM     22  C   UNL d   1      27.204  15.898 -23.881  0.00  0.00     0.029 C 
ENDBRANCH  20  21
ENDBRANCH  18  20
ENDBRANCH  15  18
ENDBRANCH   1  12
BRANCH   1  23
ATOM     23  C   UNL d   1      32.392  18.061 -24.237  0.00  0.00     0.098 A 
ATOM     24  N   UNL d   1      32.800  18.144 -24.939  0.00  0.00    -0.243 NA
ATOM     25  C   UNL d   1      33.221  18.824 -25.096  0.00  0.00     0.099 A 
ATOM     26  C   UNL d   1      33.234  19.431 -24.544  0.00  0.00     0.021 A 
ATOM     27  C   UNL d   1      32.828  19.361 -23.835  0.00  0.00     0.003 A 
ATOM     28  C   UNL d   1      32.398  18.677 -23.663  0.00  0.00     0.021 A 
ENDBRANCH   1  23
TORSDOF 6
ENDMDL
