MODEL 1
REMARK VINA RESULT:      -4.6      0.000      0.000
REMARK  6 active torsions:
REMARK  status: ('A' for Active; 'I' for Inactive)
REMARK    1  A    between atoms: N_6  and  C_1 
REMARK    2  A    between atoms: C_3  and  N_6 
REMARK    3  A    between atoms: N_4  and  C_3 
REMARK       I    between atoms: C_9  and  N_4 
REMARK    4  A    between atoms: C_12  and  C_9 
REMARK    5  A    between atoms: C_10  and  C_13 
REMARK    6  A    between atoms: O_20  and  C_10 
ROOT
ATOM      1  N   UNL d   1     -41.314-122.028 -51.661  0.00  0.00    -0.179 NA
ATOM      2  C   UNL d   1     -41.414-121.659 -50.925  0.00  0.00     0.281 C 
ATOM      3  O   UNL d   1     -41.219-120.865 -50.832  0.00  0.00    -0.265 OA
ENDROOT
BRANCH   1   4
ATOM      4  C   UNL d   1     -41.510-122.823 -51.754  0.00  0.00     0.225 C 
ATOM      5  S   UNL d   1     -41.143-123.393 -51.288  0.00  0.00    -0.037 SA
BRANCH   4   6
ATOM      6  N   UNL d   1     -42.080-123.049 -52.320  0.00  0.00    -0.192 NA
BRANCH   6   7
ATOM      7  C   UNL d   1     -41.981-122.828 -53.114  0.00  0.00     0.196 A 
ATOM      8  N   UNL d   1     -42.380-122.216 -53.489  0.00  0.00    -0.221 NA
ATOM      9  C   UNL d   1     -42.116-122.187 -54.276  0.00  0.00     0.090 A 
ATOM     10  C   UNL d   1     -42.317-121.691 -54.911  0.00  0.00     0.020 A 
ATOM     11  C   UNL d   1     -41.557-122.784 -54.378  0.00  0.00     0.050 A 
ATOM     12  C   UNL d   1     -41.954-121.798 -55.645  0.00  0.00     0.002 A 
ATOM     13  C   UNL d   1     -41.391-122.400 -55.743  0.00  0.00     0.001 A 
ATOM     14  C   UNL d   1     -41.194-122.890 -55.111  0.00  0.00     0.008 A 
ATOM     15  S   UNL d   1     -41.477-123.180 -53.648  0.00  0.00    -0.047 SA
ENDBRANCH   6   7
ENDBRANCH   4   6
ENDBRANCH   1   4
BRANCH   2  16
ATOM     16  C   UNL d   1     -41.709-122.087 -50.286  0.00  0.00     0.058 A 
ATOM     17  C   UNL d   1     -41.214-122.597 -49.871  0.00  0.00     0.005 A 
ATOM     18  C   UNL d   1     -41.508-123.029 -49.225  0.00  0.00     0.005 A 
ATOM     19  C   UNL d   1     -42.297-122.947 -49.002  0.00  0.00     0.063 A 
ATOM     20  C   UNL d   1     -42.793-122.431 -49.424  0.00  0.00     0.005 A 
ATOM     21  C   UNL d   1     -42.499-122.004 -50.062  0.00  0.00     0.005 A 
BRANCH  19  22
ATOM     22  C   UNL d   1     -42.603-123.376 -48.356  0.00  0.00     0.296 C 
ATOM     23  O   UNL d   1     -43.349-123.726 -48.399  0.00  0.00    -0.259 OA
BRANCH  22  24
ATOM     24  O   UNL d   1     -42.153-123.447 -47.671  0.00  0.00    -0.296 OA
ATOM     25  C   UNL d   1     -42.494-123.753 -46.978  0.00  0.00     0.185 C 
ENDBRANCH  22  24
ENDBRANCH  19  22
ENDBRANCH   2  16
TORSDOF 6
ENDMDL
MODEL 2
REMARK VINA RESULT:      -3.9      1.790      5.224
REMARK  6 active torsions:
REMARK  status: ('A' for Active; 'I' for Inactive)
REMARK    1  A    between atoms: N_6  and  C_1 
REMARK    2  A    between atoms: C_3  and  N_6 
REMARK    3  A    between atoms: N_4  and  C_3 
REMARK       I    between atoms: C_9  and  N_4 
REMARK    4  A    between atoms: C_12  and  C_9 
REMARK    5  A    between atoms: C_10  and  C_13 
REMARK    6  A    between atoms: O_20  and  C_10 
ROOT
ATOM      1  N   UNL d   1     -41.402-121.837 -51.034  0.00  0.00    -0.179 NA
ATOM      2  C   UNL d   1     -41.400-121.365 -51.716  0.00  0.00     0.281 C 
ATOM      3  O   UNL d   1     -41.138-120.586 -51.677  0.00  0.00    -0.265 OA
ENDROOT
BRANCH   1   4
ATOM      4  C   UNL d   1     -41.664-122.617 -51.074  0.00  0.00     0.225 C 
ATOM      5  S   UNL d   1     -41.240-123.171 -51.510  0.00  0.00    -0.037 SA
BRANCH   4   6
ATOM      6  N   UNL d   1     -42.358-122.845 -50.673  0.00  0.00    -0.192 NA
BRANCH   6   7
ATOM      7  C   UNL d   1     -42.319-123.060 -49.872  0.00  0.00     0.196 A 
ATOM      8  N   UNL d   1     -42.958-123.088 -49.357  0.00  0.00    -0.221 NA
ATOM      9  C   UNL d   1     -42.673-123.329 -48.614  0.00  0.00     0.090 A 
ATOM     10  C   UNL d   1     -43.055-123.456 -47.887  0.00  0.00     0.020 A 
ATOM     11  C   UNL d   1     -41.860-123.448 -48.681  0.00  0.00     0.050 A 
ATOM     12  C   UNL d   1     -42.617-123.700 -47.232  0.00  0.00     0.002 A 
ATOM     13  C   UNL d   1     -41.798-123.817 -47.303  0.00  0.00     0.001 A 
ATOM     14  C   UNL d   1     -41.423-123.692 -48.025  0.00  0.00     0.008 A 
ATOM     15  S   UNL d   1     -41.646-123.278 -49.469  0.00  0.00    -0.047 SA
ENDBRANCH   6   7
ENDBRANCH   4   6
ENDBRANCH   1   4
BRANCH   2  16
ATOM     16  C   UNL d   1     -41.660-121.675 -52.434  0.00  0.00     0.058 A 
ATOM     17  C   UNL d   1     -42.458-121.633 -52.632  0.00  0.00     0.005 A 
ATOM     18  C   UNL d   1     -42.724-121.944 -53.355  0.00  0.00     0.005 A 
ATOM     19  C   UNL d   1     -42.187-122.295 -53.873  0.00  0.00     0.063 A 
ATOM     20  C   UNL d   1     -41.383-122.335 -53.668  0.00  0.00     0.005 A 
ATOM     21  C   UNL d   1     -41.123-122.026 -52.952  0.00  0.00     0.005 A 
BRANCH  19  22
ATOM     22  C   UNL d   1     -42.442-122.611 -54.601  0.00  0.00     0.296 C 
ATOM     23  O   UNL d   1     -42.444-123.426 -54.729  0.00  0.00    -0.259 OA
BRANCH  22  24
ATOM     24  O   UNL d   1     -42.694-122.099 -55.195  0.00  0.00    -0.296 OA
ATOM     25  C   UNL d   1     -42.507-122.258 -55.988  0.00  0.00     0.185 C 
ENDBRANCH  22  24
ENDBRANCH  19  22
ENDBRANCH   2  16
TORSDOF 6
ENDMDL
