MODEL 1
REMARK VINA RESULT:      37.0      0.000      0.000
REMARK  10 active torsions:
REMARK  status: ('A' for Active; 'I' for Inactive)
REMARK       I    between atoms: N_8  and  C_1 
REMARK    1  A    between atoms: C_11  and  C_1 
REMARK    2  A    between atoms: C_2  and  C_12 
REMARK       I    between atoms: N_7  and  C_2 
REMARK    3  A    between atoms: C_3  and  C_19 
REMARK    4  A    between atoms: C_4  and  C_20 
REMARK    5  A    between atoms: C_19  and  N_7 
REMARK    6  A    between atoms: C_20  and  N_8 
REMARK    7  A    between atoms: C_23  and  C_11 
REMARK    8  A    between atoms: C_12  and  C_22 
REMARK    9  A    between atoms: S_21  and  C_23 
REMARK   10  A    between atoms: C_22  and  S_21 
ROOT
ATOM      1  S   UNL d   1     -48.744  28.056  35.104  0.00  0.00    -0.086 SA
ENDROOT
BRANCH   1   2
ATOM      2  C   UNL d   1     -49.466  27.995  34.681  0.00  0.00     0.040 C 
BRANCH   2   3
ATOM      3  C   UNL d   1     -49.558  27.396  34.104  0.00  0.00     0.070 C 
BRANCH   3   4
ATOM      4  C   UNL d   1     -50.215  27.441  33.573  0.00  0.00     0.280 C 
ATOM      5  N   UNL d   1     -50.590  26.710  33.306  0.00  0.00    -0.204 NA
ATOM      6  O   UNL d   1     -50.501  28.183  33.306  0.00  0.00    -0.265 OA
BRANCH   5   7
ATOM      7  C   UNL d   1     -50.318  25.983  33.561  0.00  0.00     0.127 C 
BRANCH   7   8
ATOM      8  C   UNL d   1     -50.771  25.301  33.464  0.00  0.00     0.119 A 
ATOM      9  O   UNL d   1     -51.619  25.383  33.410  0.00  0.00    -0.304 OA
ATOM     10  C   UNL d   1     -51.911  24.606  33.315  0.00  0.00     0.123 A 
ATOM     11  C   UNL d   1     -51.309  24.067  33.308  0.00  0.00     0.029 A 
ATOM     12  C   UNL d   1     -50.594  24.509  33.401  0.00  0.00     0.028 A 
ENDBRANCH   7   8
ENDBRANCH   5   7
ENDBRANCH   3   4
ENDBRANCH   2   3
ENDBRANCH   1   2
BRANCH   1  13
ATOM     13  C   UNL d   1     -48.222  28.687  34.903  0.00  0.00     0.040 C 
BRANCH  13  14
ATOM     14  C   UNL d   1     -48.010  29.263  35.494  0.00  0.00     0.070 C 
BRANCH  14  15
ATOM     15  C   UNL d   1     -47.494  29.869  35.289  0.00  0.00     0.280 C 
ATOM     16  N   UNL d   1     -47.822  30.621  35.011  0.00  0.00    -0.204 NA
ATOM     17  O   UNL d   1     -46.663  29.786  35.340  0.00  0.00    -0.265 OA
BRANCH  16  18
ATOM     18  C   UNL d   1     -47.304  31.207  34.813  0.00  0.00     0.127 C 
BRANCH  18  19
ATOM     19  C   UNL d   1     -47.567  31.923  34.460  0.00  0.00     0.119 A 
ATOM     20  O   UNL d   1     -48.252  32.340  34.655  0.00  0.00    -0.304 OA
ATOM     21  C   UNL d   1     -48.278  33.031  34.142  0.00  0.00     0.123 A 
ATOM     22  C   UNL d   1     -47.625  32.986  33.683  0.00  0.00     0.029 A 
ATOM     23  C   UNL d   1     -47.200  32.339  33.863  0.00  0.00     0.028 A 
ENDBRANCH  18  19
ENDBRANCH  16  18
ENDBRANCH  14  15
ENDBRANCH  13  14
ENDBRANCH   1  13
TORSDOF 10
ENDMDL
MODEL 2
REMARK VINA RESULT:      38.1      0.834      6.517
REMARK  10 active torsions:
REMARK  status: ('A' for Active; 'I' for Inactive)
REMARK       I    between atoms: N_8  and  C_1 
REMARK    1  A    between atoms: C_11  and  C_1 
REMARK    2  A    between atoms: C_2  and  C_12 
REMARK       I    between atoms: N_7  and  C_2 
REMARK    3  A    between atoms: C_3  and  C_19 
REMARK    4  A    between atoms: C_4  and  C_20 
REMARK    5  A    between atoms: C_19  and  N_7 
REMARK    6  A    between atoms: C_20  and  N_8 
REMARK    7  A    between atoms: C_23  and  C_11 
REMARK    8  A    between atoms: C_12  and  C_22 
REMARK    9  A    between atoms: S_21  and  C_23 
REMARK   10  A    between atoms: C_22  and  S_21 
ROOT
ATOM      1  S   UNL d   1     -48.143  28.144  34.937  0.00  0.00    -0.086 SA
ENDROOT
BRANCH   1   2
ATOM      2  C   UNL d   1     -48.283  28.903  35.267  0.00  0.00     0.040 C 
BRANCH   2   3
ATOM      3  C   UNL d   1     -47.708  29.505  35.181  0.00  0.00     0.070 C 
BRANCH   3   4
ATOM      4  C   UNL d   1     -47.681  30.126  35.755  0.00  0.00     0.280 C 
ATOM      5  N   UNL d   1     -47.602  30.942  35.486  0.00  0.00    -0.204 NA
ATOM      6  O   UNL d   1     -47.729  29.955  36.575  0.00  0.00    -0.265 OA
BRANCH   5   7
ATOM      7  C   UNL d   1     -47.554  31.118  34.689  0.00  0.00     0.127 C 
BRANCH   7   8
ATOM      8  C   UNL d   1     -47.619  31.894  34.420  0.00  0.00     0.119 A 
ATOM      9  O   UNL d   1     -46.919  32.383  34.422  0.00  0.00    -0.304 OA
ATOM     10  C   UNL d   1     -47.164  33.123  34.122  0.00  0.00     0.123 A 
ATOM     11  C   UNL d   1     -47.952  33.118  33.942  0.00  0.00     0.029 A 
ATOM     12  C   UNL d   1     -48.233  32.343  34.130  0.00  0.00     0.028 A 
ENDBRANCH   7   8
ENDBRANCH   5   7
ENDBRANCH   3   4
ENDBRANCH   2   3
ENDBRANCH   1   2
BRANCH   1  13
ATOM     13  C   UNL d   1     -48.654  27.881  34.321  0.00  0.00     0.040 C 
BRANCH  13  14
ATOM     14  C   UNL d   1     -49.269  27.317  34.496  0.00  0.00     0.070 C 
BRANCH  14  15
ATOM     15  C   UNL d   1     -49.475  26.766  33.922  0.00  0.00     0.280 C 
ATOM     16  N   UNL d   1     -50.299  26.503  33.873  0.00  0.00    -0.204 NA
ATOM     17  O   UNL d   1     -48.919  26.451  33.383  0.00  0.00    -0.265 OA
BRANCH  16  18
ATOM     18  C   UNL d   1     -50.488  25.962  33.306  0.00  0.00     0.127 C 
BRANCH  18  19
ATOM     19  C   UNL d   1     -51.116  25.414  33.416  0.00  0.00     0.119 A 
ATOM     20  O   UNL d   1     -51.889  25.596  33.643  0.00  0.00    -0.304 OA
ATOM     21  C   UNL d   1     -52.320  24.851  33.679  0.00  0.00     0.123 A 
ATOM     22  C   UNL d   1     -51.794  24.284  33.476  0.00  0.00     0.029 A 
ATOM     23  C   UNL d   1     -51.083  24.605  33.320  0.00  0.00     0.028 A 
ENDBRANCH  18  19
ENDBRANCH  16  18
ENDBRANCH  14  15
ENDBRANCH  13  14
ENDBRANCH   1  13
TORSDOF 10
ENDMDL
MODEL 3
REMARK VINA RESULT:      38.3      1.166      6.829
REMARK  10 active torsions:
REMARK  status: ('A' for Active; 'I' for Inactive)
REMARK       I    between atoms: N_8  and  C_1 
REMARK    1  A    between atoms: C_11  and  C_1 
REMARK    2  A    between atoms: C_2  and  C_12 
REMARK       I    between atoms: N_7  and  C_2 
REMARK    3  A    between atoms: C_3  and  C_19 
REMARK    4  A    between atoms: C_4  and  C_20 
REMARK    5  A    between atoms: C_19  and  N_7 
REMARK    6  A    between atoms: C_20  and  N_8 
REMARK    7  A    between atoms: C_23  and  C_11 
REMARK    8  A    between atoms: C_12  and  C_22 
REMARK    9  A    between atoms: S_21  and  C_23 
REMARK   10  A    between atoms: C_22  and  S_21 
ROOT
ATOM      1  S   UNL d   1     -49.375  27.616  33.916  0.00  0.00    -0.086 SA
ENDROOT
BRANCH   1   2
ATOM      2  C   UNL d   1     -48.852  27.903  34.507  0.00  0.00     0.040 C 
BRANCH   2   3
ATOM      3  C   UNL d   1     -48.891  28.706  34.739  0.00  0.00     0.070 C 
BRANCH   3   4
ATOM      4  C   UNL d   1     -48.468  28.950  35.430  0.00  0.00     0.280 C 
ATOM      5  N   UNL d   1     -48.040  29.699  35.418  0.00  0.00    -0.204 NA
ATOM      6  O   UNL d   1     -48.461  28.472  36.120  0.00  0.00    -0.265 OA
BRANCH   5   7
ATOM      7  C   UNL d   1     -48.042  30.171  34.750  0.00  0.00     0.127 C 
BRANCH   7   8
ATOM      8  C   UNL d   1     -47.825  30.965  34.790  0.00  0.00     0.119 A 
ATOM      9  O   UNL d   1     -46.994  31.160  34.771  0.00  0.00    -0.304 OA
ATOM     10  C   UNL d   1     -46.960  31.993  34.820  0.00  0.00     0.123 A 
ATOM     11  C   UNL d   1     -47.701  32.313  34.866  0.00  0.00     0.029 A 
ATOM     12  C   UNL d   1     -48.242  31.663  34.847  0.00  0.00     0.028 A 
ENDBRANCH   7   8
ENDBRANCH   5   7
ENDBRANCH   3   4
ENDBRANCH   2   3
ENDBRANCH   1   2
BRANCH   1  13
ATOM     13  C   UNL d   1     -49.672  26.832  34.000  0.00  0.00     0.040 C 
BRANCH  13  14
ATOM     14  C   UNL d   1     -50.291  26.558  33.482  0.00  0.00     0.070 C 
BRANCH  14  15
ATOM     15  C   UNL d   1     -50.414  25.749  33.406  0.00  0.00     0.280 C 
ATOM     16  N   UNL d   1     -51.227  25.452  33.381  0.00  0.00    -0.204 NA
ATOM     17  O   UNL d   1     -49.783  25.202  33.352  0.00  0.00    -0.265 OA
BRANCH  16  18
ATOM     18  C   UNL d   1     -51.334  24.655  33.306  0.00  0.00     0.127 C 
BRANCH  18  19
ATOM     19  C   UNL d   1     -52.071  24.294  33.487  0.00  0.00     0.119 A 
ATOM     20  O   UNL d   1     -52.820  24.596  33.312  0.00  0.00    -0.304 OA
ATOM     21  C   UNL d   1     -53.394  24.027  33.609  0.00  0.00     0.123 A 
ATOM     22  C   UNL d   1     -52.966  23.435  33.934  0.00  0.00     0.029 A 
ATOM     23  C   UNL d   1     -52.188  23.583  33.868  0.00  0.00     0.028 A 
ENDBRANCH  18  19
ENDBRANCH  16  18
ENDBRANCH  14  15
ENDBRANCH  13  14
ENDBRANCH   1  13
TORSDOF 10
ENDMDL
