MODEL 1
REMARK VINA RESULT:      -6.3      0.000      0.000
REMARK  1 active torsions:
REMARK  status: ('A' for Active; 'I' for Inactive)
REMARK    1  A    between atoms: C_7  and  C_1 
ROOT
ATOM      1  C   UNL d   1      57.213  -0.068  31.278  0.00  0.00     0.122 A 
ATOM      2  C   UNL d   1      57.087  -0.894  31.339  0.00  0.00     0.285 A 
ATOM      3  C   UNL d   1      56.831   0.431  31.808  0.00  0.00     0.012 A 
ATOM      4  N   UNL d   1      56.589  -1.206  31.917  0.00  0.00    -0.208 NA
ATOM      5  C   UNL d   1      56.209  -0.690  32.447  0.00  0.00     0.085 A 
ATOM      6  C   UNL d   1      56.327   0.129  32.396  0.00  0.00     0.018 A 
ATOM      7  O   UNL d   1      57.468  -1.402  30.810  0.00  0.00    -0.265 OA
ATOM      8  C   UNL d   1      55.710  -0.997  33.027  0.00  0.00     0.019 A 
ATOM      9  C   UNL d   1      55.953   0.638  32.916  0.00  0.00     0.002 A 
ATOM     10  C   UNL d   1      55.454   0.327  33.497  0.00  0.00     0.000 A 
ATOM     11  C   UNL d   1      55.335  -0.483  33.550  0.00  0.00     0.002 A 
ENDROOT
BRANCH   1  12
ATOM     12  C   UNL d   1      57.707   0.236  30.704  0.00  0.00     0.216 C 
ATOM     13  O   UNL d   1      58.506   0.401  30.893  0.00  0.00    -0.644 OA
ATOM     14  O   UNL d   1      57.426   0.381  29.944  0.00  0.00    -0.644 OA
ENDBRANCH   1  12
TORSDOF 1
ENDMDL
MODEL 2
REMARK VINA RESULT:      -5.6      1.836      2.794
REMARK  1 active torsions:
REMARK  status: ('A' for Active; 'I' for Inactive)
REMARK    1  A    between atoms: C_7  and  C_1 
ROOT
ATOM      1  C   UNL d   1      55.983  -0.205  32.992  0.00  0.00     0.122 A 
ATOM      2  C   UNL d   1      56.066  -1.018  32.811  0.00  0.00     0.285 A 
ATOM      3  C   UNL d   1      56.359   0.347  32.512  0.00  0.00     0.012 A 
ATOM      4  N   UNL d   1      56.515  -1.267  32.167  0.00  0.00    -0.208 NA
ATOM      5  C   UNL d   1      56.890  -0.698  31.690  0.00  0.00     0.085 A 
ATOM      6  C   UNL d   1      56.815   0.110  31.859  0.00  0.00     0.018 A 
ATOM      7  O   UNL d   1      55.691  -1.579  33.289  0.00  0.00    -0.265 OA
ATOM      8  C   UNL d   1      57.340  -0.941  31.044  0.00  0.00     0.019 A 
ATOM      9  C   UNL d   1      57.182   0.671  31.392  0.00  0.00     0.002 A 
ATOM     10  C   UNL d   1      57.634   0.424  30.744  0.00  0.00     0.000 A 
ATOM     11  C   UNL d   1      57.711  -0.374  30.573  0.00  0.00     0.002 A 
ENDROOT
BRANCH   1  12
ATOM     12  C   UNL d   1      55.537   0.036  33.632  0.00  0.00     0.216 C 
ATOM     13  O   UNL d   1      55.921   0.257  34.342  0.00  0.00    -0.644 OA
ATOM     14  O   UNL d   1      54.716   0.062  33.584  0.00  0.00    -0.644 OA
ENDBRANCH   1  12
TORSDOF 1
ENDMDL
MODEL 3
REMARK VINA RESULT:      -5.0      1.019      1.558
REMARK  1 active torsions:
REMARK  status: ('A' for Active; 'I' for Inactive)
REMARK    1  A    between atoms: C_7  and  C_1 
ROOT
ATOM      1  C   UNL d   1      56.919   0.079  32.010  0.00  0.00     0.122 A 
ATOM      2  C   UNL d   1      57.479   0.433  32.521  0.00  0.00     0.285 A 
ATOM      3  C   UNL d   1      56.161  -0.067  32.294  0.00  0.00     0.012 A 
ATOM      4  N   UNL d   1      57.280   0.635  33.295  0.00  0.00    -0.208 NA
ATOM      5  C   UNL d   1      56.510   0.482  33.569  0.00  0.00     0.085 A 
ATOM      6  C   UNL d   1      55.947   0.131  33.072  0.00  0.00     0.018 A 
ATOM      7  O   UNL d   1      58.243   0.583  32.243  0.00  0.00    -0.265 OA
ATOM      8  C   UNL d   1      56.306   0.682  34.343  0.00  0.00     0.019 A 
ATOM      9  C   UNL d   1      55.189  -0.020  33.339  0.00  0.00     0.002 A 
ATOM     10  C   UNL d   1      54.987   0.182  34.116  0.00  0.00     0.000 A 
ATOM     11  C   UNL d   1      55.541   0.529  34.611  0.00  0.00     0.002 A 
ENDROOT
BRANCH   1  12
ATOM     12  C   UNL d   1      57.121  -0.119  31.244  0.00  0.00     0.216 C 
ATOM     13  O   UNL d   1      57.323  -0.910  31.063  0.00  0.00    -0.644 OA
ATOM     14  O   UNL d   1      57.126   0.452  30.652  0.00  0.00    -0.644 OA
ENDBRANCH   1  12
TORSDOF 1
ENDMDL
MODEL 4
REMARK VINA RESULT:      -3.4      8.473      9.167
REMARK  1 active torsions:
REMARK  status: ('A' for Active; 'I' for Inactive)
REMARK    1  A    between atoms: C_7  and  C_1 
ROOT
ATOM      1  C   UNL d   1      60.193  -6.604  35.874  0.00  0.00     0.122 A 
ATOM      2  C   UNL d   1      59.398  -6.830  35.742  0.00  0.00     0.285 A 
ATOM      3  C   UNL d   1      60.745  -7.187  36.053  0.00  0.00     0.012 A 
ATOM      4  N   UNL d   1      59.167  -7.619  35.789  0.00  0.00    -0.208 NA
ATOM      5  C   UNL d   1      59.735  -8.198  35.971  0.00  0.00     0.085 A 
ATOM      6  C   UNL d   1      60.526  -7.986  36.103  0.00  0.00     0.018 A 
ATOM      7  O   UNL d   1      58.837  -6.249  35.562  0.00  0.00    -0.265 OA
ATOM      8  C   UNL d   1      59.509  -8.989  36.019  0.00  0.00     0.019 A 
ATOM      9  C   UNL d   1      61.086  -8.554  36.282  0.00  0.00     0.002 A 
ATOM     10  C   UNL d   1      60.857  -9.347  36.330  0.00  0.00     0.000 A 
ATOM     11  C   UNL d   1      60.076  -9.561  36.200  0.00  0.00     0.002 A 
ENDROOT
BRANCH   1  12
ATOM     12  C   UNL d   1      60.417  -5.821  35.826  0.00  0.00     0.216 C 
ATOM     13  O   UNL d   1      60.987  -5.589  35.258  0.00  0.00    -0.644 OA
ATOM     14  O   UNL d   1      60.088  -5.259  36.330  0.00  0.00    -0.644 OA
ENDBRANCH   1  12
TORSDOF 1
ENDMDL
