MODEL 1
REMARK VINA RESULT:      -1.9      0.000      0.000
REMARK  7 active torsions:
REMARK  status: ('A' for Active; 'I' for Inactive)
REMARK    1  A    between atoms: C_2  and  C_1 
REMARK    2  A    between atoms: O_13  and  C_11 
REMARK    3  A    between atoms: C_18  and  O_13 
REMARK    4  A    between atoms: C_15  and  C_18 
REMARK       I    between atoms: N_21  and  C_15 
REMARK    5  A    between atoms: C_23  and  C_16 
REMARK    6  A    between atoms: C_26  and  N_21 
REMARK    7  A    between atoms: C_27  and  C_26 
ROOT
ATOM      1  C   UNL d   1     -41.784-122.531 -54.049  0.00  0.00     0.087 A 
ATOM      2  C   UNL d   1     -41.679-121.971 -53.452  0.00  0.00     0.201 A 
ATOM      3  C   UNL d   1     -41.539-122.228 -52.670  0.00  0.00     0.062 A 
ATOM      4  C   UNL d   1     -41.752-123.334 -53.879  0.00  0.00     0.128 A 
ATOM      5  C   UNL d   1     -41.506-123.031 -52.500  0.00  0.00     0.105 A 
ATOM      6  O   UNL d   1     -41.613-123.604 -53.105  0.00  0.00    -0.305 OA
ATOM      7  C   UNL d   1     -41.434-121.669 -52.074  0.00  0.00     0.007 A 
ATOM      8  C   UNL d   1     -41.263-122.730 -51.132  0.00  0.00     0.102 A 
ATOM      9  C   UNL d   1     -41.368-123.301 -51.727  0.00  0.00     0.050 A 
ATOM     10  C   UNL d   1     -41.295-121.928 -51.303  0.00  0.00     0.023 A 
ATOM     11  O   UNL d   1     -41.711-121.169 -53.623  0.00  0.00    -0.286 OA
ENDROOT
BRANCH   8  12
ATOM     12  O   UNL d   1     -41.124-122.999 -50.353  0.00  0.00    -0.302 OA
BRANCH  12  13
ATOM     13  C   UNL d   1     -41.712-123.388 -49.948  0.00  0.00     0.158 C 
ATOM     14  C   UNL d   1     -42.303-123.807 -50.348  0.00  0.00     0.032 C 
BRANCH  13  15
ATOM     15  C   UNL d   1     -41.727-123.370 -49.108  0.00  0.00     0.302 C 
ATOM     16  O   UNL d   1     -41.124-122.988 -48.703  0.00  0.00    -0.263 OA
ATOM     17  N   UNL d   1     -42.342-123.733 -48.724  0.00  0.00    -0.201 NA
BRANCH  17  18
ATOM     18  C   UNL d   1     -42.397-123.742 -47.957  0.00  0.00     0.148 C 
BRANCH  18  19
ATOM     19  C   UNL d   1     -43.258-123.703 -47.574  0.00  0.00     0.255 C 
ATOM     20  O   UNL d   1     -43.433-123.218 -46.933  0.00  0.00    -0.281 OA
ENDBRANCH  18  19
ENDBRANCH  17  18
ENDBRANCH  13  15
ENDBRANCH  12  13
ENDBRANCH   8  12
BRANCH  10  21
ATOM     21  C   UNL d   1     -41.196-121.443 -50.740  0.00  0.00     0.002 C 
ATOM     22  C   UNL d   1     -41.185-120.699 -50.870  0.00  0.00     0.000 C 
ENDBRANCH  10  21
BRANCH   1  23
ATOM     23  C   UNL d   1     -41.923-122.273 -54.825  0.00  0.00     0.116 A 
ATOM     24  N   UNL d   1     -41.491-121.825 -55.350  0.00  0.00    -0.238 NA
ATOM     25  C   UNL d   1     -41.921-121.750 -56.050  0.00  0.00     0.088 A 
ATOM     26  C   UNL d   1     -41.705-121.338 -56.753  0.00  0.00     0.021 C 
ATOM     27  C   UNL d   1     -42.597-122.138 -55.967  0.00  0.00     0.056 A 
ATOM     28  S   UNL d   1     -42.629-122.482 -55.198  0.00  0.00    -0.066 SA
ENDBRANCH   1  23
TORSDOF 7
ENDMDL
