MODEL 1
REMARK VINA RESULT:      53.1      0.000      0.000
REMARK  4 active torsions:
REMARK  status: ('A' for Active; 'I' for Inactive)
REMARK    1  A    between atoms: C_6  and  N_1 
REMARK    2  A    between atoms: C_12  and  C_6 
REMARK    3  A    between atoms: O_18  and  C_7 
REMARK    4  A    between atoms: O_19  and  C_10 
ROOT
ATOM      1  N   UNL d   1      59.240  49.702  50.903  0.00  0.00    -0.251 N 
ATOM      2  C   UNL d   1      59.154  49.699  51.734  0.00  0.00     0.378 A 
ATOM      3  C   UNL d   1      58.482  49.697  50.570  0.00  0.00     0.092 A 
ATOM      4  O   UNL d   1      58.344  49.692  51.910  0.00  0.00    -0.258 OA
ATOM      5  C   UNL d   1      57.930  49.691  51.191  0.00  0.00     0.121 A 
ATOM      6  O   UNL d   1      59.772  49.703  52.278  0.00  0.00    -0.237 OA
ATOM      7  C   UNL d   1      58.232  49.696  49.787  0.00  0.00     0.020 A 
ATOM      8  C   UNL d   1      57.121  49.685  51.012  0.00  0.00     0.026 A 
ATOM      9  C   UNL d   1      57.424  49.691  49.621  0.00  0.00     0.002 A 
ATOM     10  C   UNL d   1      56.871  49.685  50.231  0.00  0.00     0.002 A 
ATOM     11  C   UNL d   1      57.177  49.691  48.830  0.00  0.00     0.000 C 
ENDROOT
BRANCH   1  12
ATOM     12  C   UNL d   1      59.933  49.708  50.455  0.00  0.00     0.085 C 
BRANCH  12  13
ATOM     13  C   UNL d   1      60.400  49.029  50.413  0.00  0.00     0.020 A 
ATOM     14  C   UNL d   1      60.544  48.596  51.090  0.00  0.00     0.028 A 
ATOM     15  C   UNL d   1      61.007  47.920  51.060  0.00  0.00     0.116 A 
ATOM     16  C   UNL d   1      61.328  47.680  50.335  0.00  0.00     0.116 A 
ATOM     17  C   UNL d   1      61.183  48.117  49.655  0.00  0.00     0.026 A 
ATOM     18  C   UNL d   1      60.715  48.796  49.696  0.00  0.00     0.004 A 
BRANCH  15  19
ATOM     19  O   UNL d   1      61.152  47.484  51.735  0.00  0.00    -0.326 OA
ATOM     20  C   UNL d   1      60.776  46.762  51.607  0.00  0.00     0.181 C 
ENDBRANCH  15  19
BRANCH  16  21
ATOM     21  O   UNL d   1      61.794  47.003  50.299  0.00  0.00    -0.326 OA
ATOM     22  C   UNL d   1      61.942  46.650  49.576  0.00  0.00     0.181 C 
ENDBRANCH  16  21
ENDBRANCH  12  13
ENDBRANCH   1  12
TORSDOF 4
ENDMDL
