MODEL 1
REMARK VINA RESULT:      25.5      0.000      0.000
REMARK  4 active torsions:
REMARK  status: ('A' for Active; 'I' for Inactive)
REMARK    1  A    between atoms: C_8  and  C_1 
REMARK    2  A    between atoms: N_7  and  C_8 
REMARK    3  A    between atoms: C_18  and  N_9 
REMARK    4  A    between atoms: C_21  and  C_18 
ROOT
ATOM      1  C   UNL d   1      13.011  12.209  -3.402  0.00  0.00     0.059 A 
ATOM      2  C   UNL d   1      13.313  13.438  -4.054  0.00  0.00     0.121 A 
ATOM      3  C   UNL d   1      13.132  13.018  -3.357  0.00  0.00     0.214 A 
ATOM      4  C   UNL d   1      13.369  13.041  -4.776  0.00  0.00     0.032 A 
ATOM      5  C   UNL d   1      13.247  12.230  -4.815  0.00  0.00     0.059 A 
ATOM      6  C   UNL d   1      13.067  11.810  -4.126  0.00  0.00     0.016 A 
ATOM      7  N   UNL d   1      13.435  14.254  -4.014  0.00  0.00    -0.241 NA
ATOM      8 CL   UNL d   1      13.303  11.835  -5.532  0.00  0.00    -0.082 Cl
ATOM      9  O   UNL d   1      13.076  13.411  -2.643  0.00  0.00    -0.285 OA
ATOM     10  C   UNL d   1      13.550  13.472  -5.461  0.00  0.00     0.004 A 
ATOM     11  C   UNL d   1      13.615  14.675  -4.703  0.00  0.00     0.099 A 
ATOM     12  C   UNL d   1      13.672  14.274  -5.431  0.00  0.00     0.021 A 
ENDROOT
BRANCH   1  13
ATOM     13  C   UNL d   1      12.830  11.779  -2.713  0.00  0.00     0.084 C 
BRANCH  13  14
ATOM     14  N   UNL d   1      13.364  11.783  -2.079  0.00  0.00    -0.300 N 
ATOM     15  C   UNL d   1      13.079  11.783  -1.300  0.00  0.00     0.100 A 
ATOM     16  C   UNL d   1      13.608  11.786  -0.672  0.00  0.00     0.100 A 
ATOM     17  N   UNL d   1      14.420  11.791  -0.813  0.00  0.00    -0.297 N 
ATOM     18  C   UNL d   1      14.706  11.791  -1.592  0.00  0.00     0.100 A 
ATOM     19  C   UNL d   1      14.180  11.787  -2.217  0.00  0.00     0.100 A 
BRANCH  17  20
ATOM     20  C   UNL d   1      14.949  11.795  -0.186  0.00  0.00     0.126 C 
BRANCH  20  21
ATOM     21  C   UNL d   1      15.400  12.462  -0.025  0.00  0.00     0.253 C 
ATOM     22  O   UNL d   1      15.059  13.220  -0.088  0.00  0.00    -0.281 OA
ENDBRANCH  20  21
ENDBRANCH  17  20
ENDBRANCH  13  14
ENDBRANCH   1  13
TORSDOF 4
ENDMDL
MODEL 2
REMARK VINA RESULT:      27.0      2.175      4.051
REMARK  4 active torsions:
REMARK  status: ('A' for Active; 'I' for Inactive)
REMARK    1  A    between atoms: C_8  and  C_1 
REMARK    2  A    between atoms: N_7  and  C_8 
REMARK    3  A    between atoms: C_18  and  N_9 
REMARK    4  A    between atoms: C_21  and  C_18 
ROOT
ATOM      1  C   UNL d   1      14.619  12.717  -0.726  0.00  0.00     0.059 A 
ATOM      2  C   UNL d   1      14.622  14.116  -0.460  0.00  0.00     0.121 A 
ATOM      3  C   UNL d   1      14.211  13.427  -0.686  0.00  0.00     0.214 A 
ATOM      4  C   UNL d   1      15.427  14.081  -0.281  0.00  0.00     0.032 A 
ATOM      5  C   UNL d   1      15.831  13.367  -0.323  0.00  0.00     0.059 A 
ATOM      6  C   UNL d   1      15.428  12.681  -0.546  0.00  0.00     0.016 A 
ATOM      7  N   UNL d   1      14.214  14.834  -0.419  0.00  0.00    -0.241 NA
ATOM      8 CL   UNL d   1      16.632  13.332  -0.145  0.00  0.00    -0.082 Cl
ATOM      9  O   UNL d   1      13.414  13.462  -0.863  0.00  0.00    -0.285 OA
ATOM     10  C   UNL d   1      15.822  14.775  -0.058  0.00  0.00     0.004 A 
ATOM     11  C   UNL d   1      14.617  15.520  -0.196  0.00  0.00     0.099 A 
ATOM     12  C   UNL d   1      15.429  15.485  -0.015  0.00  0.00     0.021 A 
ENDROOT
BRANCH   1  13
ATOM     13  C   UNL d   1      14.220  12.022  -0.950  0.00  0.00     0.084 C 
BRANCH  13  14
ATOM     14  N   UNL d   1      13.908  11.961  -1.715  0.00  0.00    -0.300 N 
ATOM     15  C   UNL d   1      14.414  12.009  -2.371  0.00  0.00     0.100 A 
ATOM     16  C   UNL d   1      14.105  11.949  -3.129  0.00  0.00     0.100 A 
ATOM     17  N   UNL d   1      13.296  11.841  -3.242  0.00  0.00    -0.297 N 
ATOM     18  C   UNL d   1      12.789  11.792  -2.585  0.00  0.00     0.100 A 
ATOM     19  C   UNL d   1      13.096  11.853  -1.831  0.00  0.00     0.100 A 
BRANCH  17  20
ATOM     20  C   UNL d   1      12.987  11.780  -3.999  0.00  0.00     0.126 C 
BRANCH  20  21
ATOM     21  C   UNL d   1      13.178  12.337  -4.573  0.00  0.00     0.253 C 
ATOM     22  O   UNL d   1      13.473  12.089  -5.311  0.00  0.00    -0.281 OA
ENDBRANCH  20  21
ENDBRANCH  17  20
ENDBRANCH  13  14
ENDBRANCH   1  13
TORSDOF 4
ENDMDL
MODEL 3
REMARK VINA RESULT:      27.2      1.902      4.094
REMARK  4 active torsions:
REMARK  status: ('A' for Active; 'I' for Inactive)
REMARK    1  A    between atoms: C_8  and  C_1 
REMARK    2  A    between atoms: N_7  and  C_8 
REMARK    3  A    between atoms: C_18  and  N_9 
REMARK    4  A    between atoms: C_21  and  C_18 
ROOT
ATOM      1  C   UNL d   1      13.793  12.894  -1.999  0.00  0.00     0.059 A 
ATOM      2  C   UNL d   1      14.810  13.019  -1.011  0.00  0.00     0.121 A 
ATOM      3  C   UNL d   1      14.231  12.557  -1.394  0.00  0.00     0.214 A 
ATOM      4  C   UNL d   1      14.937  13.801  -1.240  0.00  0.00     0.032 A 
ATOM      5  C   UNL d   1      14.495  14.134  -1.847  0.00  0.00     0.059 A 
ATOM      6  C   UNL d   1      13.920  13.680  -2.230  0.00  0.00     0.016 A 
ATOM      7  N   UNL d   1      15.255  12.683  -0.400  0.00  0.00    -0.241 NA
ATOM      8 CL   UNL d   1      14.620  14.912  -2.076  0.00  0.00    -0.082 Cl
ATOM      9  O   UNL d   1      14.106  11.783  -1.167  0.00  0.00    -0.285 OA
ATOM     10  C   UNL d   1      15.517  14.248  -0.850  0.00  0.00     0.004 A 
ATOM     11  C   UNL d   1      15.831  13.137  -0.017  0.00  0.00     0.099 A 
ATOM     12  C   UNL d   1      15.958  13.927  -0.249  0.00  0.00     0.021 A 
ENDROOT
BRANCH   1  13
ATOM     13  C   UNL d   1      13.212  12.443  -2.389  0.00  0.00     0.084 C 
BRANCH  13  14
ATOM     14  N   UNL d   1      13.193  12.433  -3.217  0.00  0.00    -0.300 N 
ATOM     15  C   UNL d   1      13.540  11.802  -3.629  0.00  0.00     0.100 A 
ATOM     16  C   UNL d   1      13.522  11.792  -4.450  0.00  0.00     0.100 A 
ATOM     17  N   UNL d   1      13.161  12.405  -4.866  0.00  0.00    -0.297 N 
ATOM     18  C   UNL d   1      12.813  13.037  -4.454  0.00  0.00     0.100 A 
ATOM     19  C   UNL d   1      12.832  13.047  -3.637  0.00  0.00     0.100 A 
BRANCH  17  20
ATOM     20  C   UNL d   1      13.142  12.395  -5.686  0.00  0.00     0.126 C 
BRANCH  20  21
ATOM     21  C   UNL d   1      13.494  11.781  -6.103  0.00  0.00     0.253 C 
ATOM     22  O   UNL d   1      14.279  11.857  -6.373  0.00  0.00    -0.281 OA
ENDBRANCH  20  21
ENDBRANCH  17  20
ENDBRANCH  13  14
ENDBRANCH   1  13
TORSDOF 4
ENDMDL
