MODEL 1
REMARK VINA RESULT:      -6.9      0.000      0.000
REMARK  9 active torsions:
REMARK  status: ('A' for Active; 'I' for Inactive)
REMARK    1  A    between atoms: C_9  and  S_1 
REMARK    2  A    between atoms: N_12  and  S_1 
REMARK    3  A    between atoms: S_2  and  C_8 
REMARK    4  A    between atoms: N_13  and  S_2 
REMARK    5  A    between atoms: N_20  and  C_5 
REMARK    6  A    between atoms: C_23  and  N_12 
REMARK    7  A    between atoms: C_24  and  N_13 
REMARK    8  A    between atoms: C_31  and  C_23 
REMARK    9  A    between atoms: C_30  and  C_24 
ROOT
ATOM      1  C   UNL d   1      48.689  35.153  52.375  0.00  0.00     0.021 A 
ATOM      2  C   UNL d   1      49.908  34.788  52.781  0.00  0.00     0.021 A 
ATOM      3  C   UNL d   1      49.205  35.158  53.018  0.00  0.00     0.111 A 
ATOM      4  C   UNL d   1      49.820  34.557  51.993  0.00  0.00     0.002 A 
ATOM      5  C   UNL d   1      49.064  34.787  51.752  0.00  0.00     0.002 A 
ATOM      6  C   UNL d   1      51.219  34.255  52.801  0.00  0.00     0.104 A 
ATOM      7  C   UNL d   1      47.530  35.369  51.607  0.00  0.00     0.104 A 
ATOM      8  C   UNL d   1      50.608  34.639  53.191  0.00  0.00     0.015 A 
ATOM      9  C   UNL d   1      47.947  35.443  52.330  0.00  0.00     0.015 A 
ATOM     10  C   UNL d   1      48.656  34.712  51.036  0.00  0.00     0.001 A 
ATOM     11  C   UNL d   1      50.431  34.181  51.627  0.00  0.00     0.001 A 
ATOM     12  C   UNL d   1      47.905  35.003  50.983  0.00  0.00     0.013 A 
ATOM     13  C   UNL d   1      51.108  34.031  52.004  0.00  0.00     0.013 A 
ENDROOT
BRANCH   6  14
ATOM     14  S   UNL d   1      51.949  34.084  53.183  0.00  0.00     0.272 S 
ATOM     15  O   UNL d   1      51.604  33.408  53.550  0.00  0.00    -0.200 OA
ATOM     16  O   UNL d   1      52.311  34.753  52.827  0.00  0.00    -0.200 OA
BRANCH  14  17
ATOM     17  N   UNL d   1      52.665  33.893  53.574  0.00  0.00    -0.225 N 
ATOM     18  C   UNL d   1      53.003  34.430  54.131  0.00  0.00     0.111 C 
BRANCH  17  19
ATOM     19  C   UNL d   1      53.070  33.174  53.432  0.00  0.00     0.137 C 
BRANCH  19  20
ATOM     20  C   UNL d   1      53.800  33.015  53.774  0.00  0.00     0.254 C 
ATOM     21  O   UNL d   1      54.261  32.382  53.524  0.00  0.00    -0.281 OA
ENDBRANCH  19  20
ENDBRANCH  17  19
ENDBRANCH  14  17
ENDBRANCH   6  14
BRANCH   3  22
ATOM     22  N   UNL d   1      49.061  35.473  53.770  0.00  0.00    -0.096 NA
ATOM     23  O   UNL d   1      49.119  36.288  53.895  0.00  0.00    -0.061 OA
ENDBRANCH   3  22
BRANCH   7  24
ATOM     24  S   UNL d   1      46.745  35.659  51.507  0.00  0.00     0.272 S 
ATOM     25  O   UNL d   1      46.468  34.867  51.537  0.00  0.00    -0.200 OA
ATOM     26  O   UNL d   1      47.025  36.449  51.476  0.00  0.00    -0.200 OA
BRANCH  24  27
ATOM     27  N   UNL d   1      45.946  35.914  51.408  0.00  0.00    -0.225 N 
ATOM     28  C   UNL d   1      45.558  35.819  50.695  0.00  0.00     0.111 C 
BRANCH  27  29
ATOM     29  C   UNL d   1      45.561  36.268  52.064  0.00  0.00     0.137 C 
BRANCH  29  30
ATOM     30  C   UNL d   1      44.757  36.404  52.024  0.00  0.00     0.254 C 
ATOM     31  O   UNL d   1      44.345  36.708  52.683  0.00  0.00    -0.281 OA
ENDBRANCH  29  30
ENDBRANCH  27  29
ENDBRANCH  24  27
ENDBRANCH   7  24
TORSDOF 9
ENDMDL
MODEL 2
REMARK VINA RESULT:      -5.2      1.169      1.637
REMARK  9 active torsions:
REMARK  status: ('A' for Active; 'I' for Inactive)
REMARK    1  A    between atoms: C_9  and  S_1 
REMARK    2  A    between atoms: N_12  and  S_1 
REMARK    3  A    between atoms: S_2  and  C_8 
REMARK    4  A    between atoms: N_13  and  S_2 
REMARK    5  A    between atoms: N_20  and  C_5 
REMARK    6  A    between atoms: C_23  and  N_12 
REMARK    7  A    between atoms: C_24  and  N_13 
REMARK    8  A    between atoms: C_31  and  C_23 
REMARK    9  A    between atoms: C_30  and  C_24 
ROOT
ATOM      1  C   UNL d   1      49.877  34.710  52.632  0.00  0.00     0.021 A 
ATOM      2  C   UNL d   1      51.056  34.268  53.080  0.00  0.00     0.021 A 
ATOM      3  C   UNL d   1      50.390  34.722  53.278  0.00  0.00     0.111 A 
ATOM      4  C   UNL d   1      50.949  33.980  52.315  0.00  0.00     0.002 A 
ATOM      5  C   UNL d   1      50.218  34.258  52.046  0.00  0.00     0.002 A 
ATOM      6  C   UNL d   1      52.310  33.618  53.160  0.00  0.00     0.104 A 
ATOM      7  C   UNL d   1      48.746  34.967  51.835  0.00  0.00     0.104 A 
ATOM      8  C   UNL d   1      51.737  34.090  53.510  0.00  0.00     0.015 A 
ATOM      9  C   UNL d   1      49.167  35.063  52.554  0.00  0.00     0.015 A 
ATOM     10  C   UNL d   1      49.807  34.160  51.335  0.00  0.00     0.001 A 
ATOM     11  C   UNL d   1      51.522  33.518  51.988  0.00  0.00     0.001 A 
ATOM     12  C   UNL d   1      49.087  34.515  51.249  0.00  0.00     0.013 A 
ATOM     13  C   UNL d   1      52.181  33.338  52.385  0.00  0.00     0.013 A 
ENDROOT
BRANCH   6  14
ATOM     14  S   UNL d   1      53.020  33.413  53.564  0.00  0.00     0.272 S 
ATOM     15  O   UNL d   1      53.413  34.074  53.218  0.00  0.00    -0.200 OA
ATOM     16  O   UNL d   1      52.646  32.750  53.919  0.00  0.00    -0.200 OA
BRANCH  14  17
ATOM     17  N   UNL d   1      53.738  33.229  53.955  0.00  0.00    -0.225 N 
ATOM     18  C   UNL d   1      54.175  32.538  53.743  0.00  0.00     0.111 C 
BRANCH  17  19
ATOM     19  C   UNL d   1      54.048  33.714  54.563  0.00  0.00     0.137 C 
BRANCH  19  20
ATOM     20  C   UNL d   1      54.742  33.520  54.958  0.00  0.00     0.254 C 
ATOM     21  O   UNL d   1      55.111  34.054  55.461  0.00  0.00    -0.281 OA
ENDBRANCH  19  20
ENDBRANCH  17  19
ENDBRANCH  14  17
ENDBRANCH   6  14
BRANCH   3  22
ATOM     22  N   UNL d   1      50.274  35.113  53.999  0.00  0.00    -0.096 NA
ATOM     23  O   UNL d   1      50.655  35.831  54.145  0.00  0.00    -0.061 OA
ENDBRANCH   3  22
BRANCH   7  24
ATOM     24  S   UNL d   1      47.992  35.319  51.702  0.00  0.00     0.272 S 
ATOM     25  O   UNL d   1      47.912  35.419  52.531  0.00  0.00    -0.200 OA
ATOM     26  O   UNL d   1      48.076  35.218  50.873  0.00  0.00    -0.200 OA
BRANCH  24  27
ATOM     27  N   UNL d   1      47.233  35.677  51.605  0.00  0.00    -0.225 N 
ATOM     28  C   UNL d   1      47.091  36.441  51.859  0.00  0.00     0.111 C 
BRANCH  27  29
ATOM     29  C   UNL d   1      46.628  35.224  51.240  0.00  0.00     0.137 C 
BRANCH  29  30
ATOM     30  C   UNL d   1      45.879  35.542  51.180  0.00  0.00     0.254 C 
ATOM     31  O   UNL d   1      45.277  35.136  50.770  0.00  0.00    -0.281 OA
ENDBRANCH  29  30
ENDBRANCH  27  29
ENDBRANCH  24  27
ENDBRANCH   7  24
TORSDOF 9
ENDMDL
