MODEL 1
REMARK VINA RESULT:      55.6      0.000      0.000
REMARK  4 active torsions:
REMARK  status: ('A' for Active; 'I' for Inactive)
REMARK    1  A    between atoms: S_6  and  C_1 
REMARK    2  A    between atoms: C_9  and  N_2 
REMARK    3  A    between atoms: C_15  and  S_6 
REMARK    4  A    between atoms: C_14  and  C_9 
ROOT
ATOM      1  C   UNL d   1      14.005  14.298  -3.112  0.00  0.00     0.145 A 
ATOM      2  N   UNL d   1      13.383  13.173  -3.438  0.00  0.00    -0.270 N 
ATOM      3  C   UNL d   1      14.153  13.747  -2.512  0.00  0.00     0.130 A 
ATOM      4  C   UNL d   1      13.530  13.944  -3.684  0.00  0.00     0.183 A 
ATOM      5  C   UNL d   1      13.765  13.047  -2.715  0.00  0.00     0.168 A 
ATOM      6  N   UNL d   1      14.586  13.792  -1.813  0.00  0.00    -0.240 NA
ATOM      7  N   UNL d   1      13.811  12.391  -2.218  0.00  0.00    -0.225 NA
ATOM      8  C   UNL d   1      14.632  13.136  -1.316  0.00  0.00     0.099 A 
ATOM      9  C   UNL d   1      14.244  12.435  -1.519  0.00  0.00     0.101 A 
ATOM     10  N   UNL d   1      13.246  14.287  -4.379  0.00  0.00    -0.128 N 
ATOM     11  C   UNL d   1      15.065  13.181  -0.617  0.00  0.00     0.021 A 
ATOM     12  C   UNL d   1      14.290  11.779  -1.022  0.00  0.00     0.021 A 
ATOM     13  C   UNL d   1      14.724  11.824  -0.323  0.00  0.00     0.002 A 
ATOM     14  C   UNL d   1      15.111  12.525  -0.120  0.00  0.00     0.002 A 
ENDROOT
BRANCH   1  15
ATOM     15  S   UNL d   1      14.290  15.073  -3.128  0.00  0.00     0.214 S 
ATOM     16  O   UNL d   1      14.481  14.752  -3.861  0.00  0.00    -0.217 OA
ATOM     17  O   UNL d   1      14.098  15.394  -2.391  0.00  0.00    -0.217 OA
BRANCH  15  18
ATOM     18  C   UNL d   1      14.580  15.843  -3.158  0.00  0.00     0.088 A 
ATOM     19  C   UNL d   1      14.745  16.105  -3.926  0.00  0.00     0.011 A 
ATOM     20  C   UNL d   1      15.041  16.872  -4.043  0.00  0.00     0.001 A 
ATOM     21  C   UNL d   1      15.170  17.371  -3.397  0.00  0.00     0.000 A 
ATOM     22  C   UNL d   1      15.004  17.107  -2.633  0.00  0.00     0.001 A 
ATOM     23  C   UNL d   1      14.708  16.342  -2.512  0.00  0.00     0.011 A 
ENDBRANCH  15  18
ENDBRANCH   1  15
BRANCH   2  24
ATOM     24  C   UNL d   1      12.929  12.611  -3.841  0.00  0.00     0.108 C 
BRANCH  24  25
ATOM     25  C   UNL d   1      13.158  12.358  -4.587  0.00  0.00     0.118 A 
ATOM     26  O   UNL d   1      13.819  11.910  -4.758  0.00  0.00    -0.304 OA
ATOM     27  C   UNL d   1      13.840  11.780  -5.576  0.00  0.00     0.123 A 
ATOM     28  C   UNL d   1      13.187  12.151  -5.902  0.00  0.00     0.029 A 
ATOM     29  C   UNL d   1      12.769  12.507  -5.288  0.00  0.00     0.028 A 
ENDBRANCH  24  25
ENDBRANCH   2  24
TORSDOF 4
ENDMDL
