MODEL 1
REMARK VINA RESULT:      11.0      0.000      0.000
REMARK  3 active torsions:
REMARK  status: ('A' for Active; 'I' for Inactive)
REMARK    1  A    between atoms: C_2  and  N_1 
REMARK    2  A    between atoms: O_14  and  C_5 
REMARK    3  A    between atoms: O_15  and  C_12 
ROOT
ATOM      1  C   UNL d   1      45.539 -14.180  44.238  0.00  0.00     0.092 A 
ATOM      2  C   UNL d   1      44.930 -14.477  44.695  0.00  0.00     0.112 A 
ATOM      3  C   UNL d   1      44.936 -15.272  44.921  0.00  0.00     0.050 A 
ATOM      4  C   UNL d   1      46.160 -14.660  43.999  0.00  0.00     0.022 A 
ATOM      5  C   UNL d   1      45.559 -15.756  44.681  0.00  0.00     0.096 A 
ATOM      6  C   UNL d   1      46.171 -15.448  44.219  0.00  0.00     0.026 A 
ENDROOT
BRANCH   1   7
ATOM      7  N   UNL d   1      45.535 -13.382  44.011  0.00  0.00    -0.240 N 
ATOM      8  C   UNL d   1      45.985 -12.775  44.332  0.00  0.00     0.267 A 
ATOM      9  C   UNL d   1      45.805 -12.080  43.943  0.00  0.00     0.066 A 
ATOM     10  O   UNL d   1      46.532 -12.856  44.950  0.00  0.00    -0.267 OA
ATOM     11  C   UNL d   1      45.233 -12.249  43.366  0.00  0.00     0.066 A 
ATOM     12  C   UNL d   1      45.065 -13.055  43.408  0.00  0.00     0.267 A 
ATOM     13  O   UNL d   1      44.489 -13.488  42.901  0.00  0.00    -0.267 OA
ENDBRANCH   1   7
BRANCH   2  14
ATOM     14  O   UNL d   1      44.303 -13.991  44.937  0.00  0.00    -0.327 OA
ATOM     15  C   UNL d   1      43.527 -14.276  44.928  0.00  0.00     0.181 C 
ENDBRANCH   2  14
BRANCH   5  16
ATOM     16  O   UNL d   1      45.570 -16.558  44.906  0.00  0.00    -0.328 OA
ATOM     17  C   UNL d   1      45.900 -17.128  44.406  0.00  0.00     0.181 C 
ENDBRANCH   5  16
TORSDOF 3
ENDMDL
