MODEL 1
REMARK VINA RESULT:      18.1      0.000      0.000
REMARK  2 active torsions:
REMARK  status: ('A' for Active; 'I' for Inactive)
REMARK    1  A    between atoms: C_7  and  C_1 
REMARK    2  A    between atoms: C_8  and  C_7 
ROOT
ATOM      1  C   UNL d   1     -51.519  24.513  33.432  0.00  0.00     0.116 A 
ATOM      2  N   UNL d   1     -52.952  24.456  33.556  0.00  0.00    -0.152 NA
ATOM      3  N   UNL d   1     -52.149  23.260  33.684  0.00  0.00    -0.152 NA
ATOM      4  C   UNL d   1     -52.276  24.894  33.432  0.00  0.00     0.288 A 
ATOM      5  C   UNL d   1     -51.460  23.706  33.557  0.00  0.00     0.288 A 
ATOM      6  C   UNL d   1     -52.906  23.641  33.683  0.00  0.00     0.374 A 
ATOM      7  O   UNL d   1     -52.325  25.704  33.306  0.00  0.00    -0.265 OA
ATOM      8  O   UNL d   1     -50.735  23.341  33.558  0.00  0.00    -0.265 OA
ATOM      9  O   UNL d   1     -53.608  23.190  33.812  0.00  0.00    -0.242 OA
ENDROOT
BRANCH   1  10
ATOM     10  C   UNL d   1     -50.833  24.954  33.306  0.00  0.00     0.016 C 
BRANCH  10  11
ATOM     11  C   UNL d   1     -50.851  26.114  33.424  0.00  0.00     0.030 A 
ATOM     12  S   UNL d   1     -50.197  26.623  33.400  0.00  0.00    -0.080 SA
ATOM     13  C   UNL d   1     -50.476  27.398  33.509  0.00  0.00     0.064 A 
ATOM     14 BR   UNL d   1     -49.994  28.079  33.522  0.00  0.00    -0.042 Br
ATOM     15  C   UNL d   1     -51.281  27.376  33.598  0.00  0.00     0.014 A 
ATOM     16  C   UNL d   1     -51.523  26.570  33.546  0.00  0.00     0.007 A 
ENDBRANCH  10  11
ENDBRANCH   1  10
TORSDOF 2
ENDMDL
