MODEL 1
REMARK VINA RESULT:      -7.9      0.000      0.000
REMARK  3 active torsions:
REMARK  status: ('A' for Active; 'I' for Inactive)
REMARK    1  A    between atoms: C_10  and  N_2 
REMARK    2  A    between atoms: C_15  and  C_3 
REMARK    3  A    between atoms: C_6  and  C_4 
ROOT
ATOM      1  N   UNL d   1     -47.735  13.923  23.498  0.00  0.00    -0.165 NA
ATOM      2  N   UNL d   1     -49.045  14.106  22.967  0.00  0.00    -0.228 N 
ATOM      3  C   UNL d   1     -48.188  13.110  22.418  0.00  0.00     0.081 A 
ATOM      4  C   UNL d   1     -47.599  13.318  22.954  0.00  0.00     0.106 A 
ATOM      5  C   UNL d   1     -48.909  13.501  22.423  0.00  0.00     0.105 A 
ENDROOT
BRANCH   4   6
ATOM      6  C   UNL d   1     -46.871  12.926  22.952  0.00  0.00     0.022 A 
ATOM      7  C   UNL d   1     -46.799  12.196  23.325  0.00  0.00     0.028 A 
ATOM      8  C   UNL d   1     -46.071  11.803  23.323  0.00  0.00     0.123 A 
ATOM      9  O   UNL d   1     -45.999  11.071  23.698  0.00  0.00    -0.301 OA
ATOM     10  C   UNL d   1     -45.413  12.153  22.941  0.00  0.00     0.123 A 
ATOM     11  C   UNL d   1     -45.259  10.677  23.693  0.00  0.00     0.149 A 
ATOM     12  C   UNL d   1     -44.608  11.023  23.314  0.00  0.00     0.149 A 
ATOM     13  O   UNL d   1     -44.689  11.759  22.940  0.00  0.00    -0.301 OA
ATOM     14  C   UNL d   1     -45.499  12.882  22.572  0.00  0.00     0.027 A 
ATOM     15  C   UNL d   1     -46.221  13.272  22.574  0.00  0.00     0.004 A 
ENDBRANCH   4   6
BRANCH   3  16
ATOM     16  C   UNL d   1     -48.046  12.478  21.849  0.00  0.00     0.237 C 
ATOM     17  O   UNL d   1     -48.667  12.249  21.315  0.00  0.00    -0.283 OA
ENDBRANCH   3  16
BRANCH   2  18
ATOM     18  C   UNL d   1     -49.674  14.611  23.138  0.00  0.00     0.083 A 
ATOM     19  C   UNL d   1     -49.551  15.423  23.206  0.00  0.00     0.019 A 
ATOM     20  C   UNL d   1     -50.187  15.921  23.378  0.00  0.00     0.002 A 
ATOM     21  C   UNL d   1     -50.942  15.607  23.482  0.00  0.00     0.000 A 
ATOM     22  C   UNL d   1     -51.064  14.791  23.414  0.00  0.00     0.002 A 
ATOM     23  C   UNL d   1     -50.429  14.296  23.242  0.00  0.00     0.019 A 
ENDBRANCH   2  18
TORSDOF 3
ENDMDL
MODEL 2
REMARK VINA RESULT:      -6.7      1.662      4.969
REMARK  3 active torsions:
REMARK  status: ('A' for Active; 'I' for Inactive)
REMARK    1  A    between atoms: C_10  and  N_2 
REMARK    2  A    between atoms: C_15  and  C_3 
REMARK    3  A    between atoms: C_6  and  C_4 
ROOT
ATOM      1  N   UNL d   1     -47.508  11.775  23.104  0.00  0.00    -0.165 NA
ATOM      2  N   UNL d   1     -46.092  11.949  23.114  0.00  0.00    -0.228 N 
ATOM      3  C   UNL d   1     -46.945  13.072  22.920  0.00  0.00     0.081 A 
ATOM      4  C   UNL d   1     -47.606  12.584  22.977  0.00  0.00     0.106 A 
ATOM      5  C   UNL d   1     -46.191  12.758  22.987  0.00  0.00     0.105 A 
ENDROOT
BRANCH   4   6
ATOM      6  C   UNL d   1     -48.368  12.898  22.909  0.00  0.00     0.022 A 
ATOM      7  C   UNL d   1     -48.742  12.910  22.176  0.00  0.00     0.028 A 
ATOM      8  C   UNL d   1     -49.503  13.223  22.107  0.00  0.00     0.123 A 
ATOM      9  O   UNL d   1     -49.878  13.235  21.371  0.00  0.00    -0.301 OA
ATOM     10  C   UNL d   1     -49.889  13.527  22.786  0.00  0.00     0.123 A 
ATOM     11  C   UNL d   1     -50.651  13.554  21.308  0.00  0.00     0.149 A 
ATOM     12  C   UNL d   1     -51.032  13.855  21.980  0.00  0.00     0.149 A 
ATOM     13  O   UNL d   1     -50.649  13.839  22.715  0.00  0.00    -0.301 OA
ATOM     14  C   UNL d   1     -49.504  13.509  23.512  0.00  0.00     0.027 A 
ATOM     15  C   UNL d   1     -48.749  13.198  23.581  0.00  0.00     0.004 A 
ENDBRANCH   4   6
BRANCH   3  16
ATOM     16  C   UNL d   1     -47.048  13.918  22.788  0.00  0.00     0.237 C 
ATOM     17  O   UNL d   1     -46.364  14.407  22.658  0.00  0.00    -0.283 OA
ENDBRANCH   3  16
BRANCH   2  18
ATOM     18  C   UNL d   1     -45.448  11.443  23.208  0.00  0.00     0.083 A 
ATOM     19  C   UNL d   1     -44.705  11.658  22.924  0.00  0.00     0.019 A 
ATOM     20  C   UNL d   1     -44.065  11.146  23.022  0.00  0.00     0.002 A 
ATOM     21  C   UNL d   1     -44.168  10.423  23.403  0.00  0.00     0.000 A 
ATOM     22  C   UNL d   1     -44.915  10.208  23.688  0.00  0.00     0.002 A 
ATOM     23  C   UNL d   1     -45.552  10.721  23.589  0.00  0.00     0.019 A 
ENDBRANCH   2  18
TORSDOF 3
ENDMDL
MODEL 3
REMARK VINA RESULT:      -6.2      8.111      9.573
REMARK  3 active torsions:
REMARK  status: ('A' for Active; 'I' for Inactive)
REMARK    1  A    between atoms: C_10  and  N_2 
REMARK    2  A    between atoms: C_15  and  C_3 
REMARK    3  A    between atoms: C_6  and  C_4 
ROOT
ATOM      1  N   UNL d   1     -39.172  14.229  20.190  0.00  0.00    -0.165 NA
ATOM      2  N   UNL d   1     -39.417  14.537  21.561  0.00  0.00    -0.228 N 
ATOM      3  C   UNL d   1     -40.248  15.094  20.548  0.00  0.00     0.081 A 
ATOM      4  C   UNL d   1     -39.810  14.704  19.970  0.00  0.00     0.106 A 
ATOM      5  C   UNL d   1     -40.054  15.012  21.341  0.00  0.00     0.105 A 
ENDROOT
BRANCH   4   6
ATOM      6  C   UNL d   1     -40.003  14.785  19.170  0.00  0.00     0.022 A 
ATOM      7  C   UNL d   1     -39.549  15.273  18.687  0.00  0.00     0.028 A 
ATOM      8  C   UNL d   1     -39.741  15.354  17.887  0.00  0.00     0.123 A 
ATOM      9  O   UNL d   1     -39.286  15.844  17.403  0.00  0.00    -0.301 OA
ATOM     10  C   UNL d   1     -40.398  14.938  17.575  0.00  0.00     0.123 A 
ATOM     11  C   UNL d   1     -39.486  15.922  16.592  0.00  0.00     0.149 A 
ATOM     12  C   UNL d   1     -40.136  15.510  16.283  0.00  0.00     0.149 A 
ATOM     13  O   UNL d   1     -40.588  15.020  16.777  0.00  0.00    -0.301 OA
ATOM     14  C   UNL d   1     -40.843  14.454  18.069  0.00  0.00     0.027 A 
ATOM     15  C   UNL d   1     -40.652  14.373  18.862  0.00  0.00     0.004 A 
ENDBRANCH   4   6
BRANCH   3  16
ATOM     16  C   UNL d   1     -40.914  15.591  20.318  0.00  0.00     0.237 C 
ATOM     17  O   UNL d   1     -41.429  15.905  20.918  0.00  0.00    -0.283 OA
ENDBRANCH   3  16
BRANCH   2  18
ATOM     18  C   UNL d   1     -39.062  14.324  22.274  0.00  0.00     0.083 A 
ATOM     19  C   UNL d   1     -38.677  14.889  22.734  0.00  0.00     0.019 A 
ATOM     20  C   UNL d   1     -38.325  14.667  23.447  0.00  0.00     0.002 A 
ATOM     21  C   UNL d   1     -38.358  13.883  23.698  0.00  0.00     0.000 A 
ATOM     22  C   UNL d   1     -38.746  13.316  23.236  0.00  0.00     0.002 A 
ATOM     23  C   UNL d   1     -39.096  13.540  22.525  0.00  0.00     0.019 A 
ENDBRANCH   2  18
TORSDOF 3
ENDMDL
MODEL 4
REMARK VINA RESULT:      -6.1      1.530      4.932
REMARK  3 active torsions:
REMARK  status: ('A' for Active; 'I' for Inactive)
REMARK    1  A    between atoms: C_10  and  N_2 
REMARK    2  A    between atoms: C_15  and  C_3 
REMARK    3  A    between atoms: C_6  and  C_4 
ROOT
ATOM      1  N   UNL d   1     -46.864  13.715  22.054  0.00  0.00    -0.165 NA
ATOM      2  N   UNL d   1     -45.908  12.737  22.457  0.00  0.00    -0.228 N 
ATOM      3  C   UNL d   1     -47.248  12.658  22.931  0.00  0.00     0.081 A 
ATOM      4  C   UNL d   1     -47.441  13.336  22.505  0.00  0.00     0.106 A 
ATOM      5  C   UNL d   1     -46.485  12.358  22.908  0.00  0.00     0.105 A 
ENDROOT
BRANCH   4   6
ATOM      6  C   UNL d   1     -48.209  13.641  22.526  0.00  0.00     0.022 A 
ATOM      7  C   UNL d   1     -48.378  14.293  22.998  0.00  0.00     0.028 A 
ATOM      8  C   UNL d   1     -49.146  14.599  23.020  0.00  0.00     0.123 A 
ATOM      9  O   UNL d   1     -49.314  15.254  23.494  0.00  0.00    -0.301 OA
ATOM     10  C   UNL d   1     -49.747  14.241  22.560  0.00  0.00     0.123 A 
ATOM     11  C   UNL d   1     -50.095  15.559  23.512  0.00  0.00     0.149 A 
ATOM     12  C   UNL d   1     -50.690  15.205  23.056  0.00  0.00     0.149 A 
ATOM     13  O   UNL d   1     -50.512  14.547  22.583  0.00  0.00    -0.301 OA
ATOM     14  C   UNL d   1     -49.565  13.589  22.092  0.00  0.00     0.027 A 
ATOM     15  C   UNL d   1     -48.803  13.286  22.071  0.00  0.00     0.004 A 
ENDBRANCH   4   6
BRANCH   3  16
ATOM     16  C   UNL d   1     -47.852  12.262  23.402  0.00  0.00     0.237 C 
ATOM     17  O   UNL d   1     -47.705  11.476  23.694  0.00  0.00    -0.283 OA
ENDBRANCH   3  16
BRANCH   2  18
ATOM     18  C   UNL d   1     -45.108  12.609  22.299  0.00  0.00     0.083 A 
ATOM     19  C   UNL d   1     -44.701  11.999  22.675  0.00  0.00     0.019 A 
ATOM     20  C   UNL d   1     -43.901  11.879  22.511  0.00  0.00     0.002 A 
ATOM     21  C   UNL d   1     -43.511  12.367  21.974  0.00  0.00     0.000 A 
ATOM     22  C   UNL d   1     -43.921  12.979  21.597  0.00  0.00     0.002 A 
ATOM     23  C   UNL d   1     -44.719  13.097  21.762  0.00  0.00     0.019 A 
ENDBRANCH   2  18
TORSDOF 3
ENDMDL
MODEL 5
REMARK VINA RESULT:      -6.1      8.790     10.418
REMARK  3 active torsions:
REMARK  status: ('A' for Active; 'I' for Inactive)
REMARK    1  A    between atoms: C_10  and  N_2 
REMARK    2  A    between atoms: C_15  and  C_3 
REMARK    3  A    between atoms: C_6  and  C_4 
ROOT
ATOM      1  N   UNL d   1     -38.414  14.818  18.932  0.00  0.00    -0.165 NA
ATOM      2  N   UNL d   1     -39.412  14.809  19.951  0.00  0.00    -0.228 N 
ATOM      3  C   UNL d   1     -39.740  14.387  18.631  0.00  0.00     0.081 A 
ATOM      4  C   UNL d   1     -38.966  14.532  18.389  0.00  0.00     0.106 A 
ATOM      5  C   UNL d   1     -39.964  14.524  19.408  0.00  0.00     0.105 A 
ENDROOT
BRANCH   4   6
ATOM      6  C   UNL d   1     -38.737  14.395  17.607  0.00  0.00     0.022 A 
ATOM      7  C   UNL d   1     -38.629  15.030  17.095  0.00  0.00     0.028 A 
ATOM      8  C   UNL d   1     -38.399  14.895  16.313  0.00  0.00     0.123 A 
ATOM      9  O   UNL d   1     -38.291  15.532  15.799  0.00  0.00    -0.301 OA
ATOM     10  C   UNL d   1     -38.279  14.109  16.047  0.00  0.00     0.123 A 
ATOM     11  C   UNL d   1     -38.058  15.388  15.007  0.00  0.00     0.149 A 
ATOM     12  C   UNL d   1     -37.940  14.610  14.744  0.00  0.00     0.149 A 
ATOM     13  O   UNL d   1     -38.051  13.975  15.267  0.00  0.00    -0.301 OA
ATOM     14  C   UNL d   1     -38.391  13.484  16.569  0.00  0.00     0.027 A 
ATOM     15  C   UNL d   1     -38.618  13.619  17.345  0.00  0.00     0.004 A 
ENDBRANCH   4   6
BRANCH   3  16
ATOM     16  C   UNL d   1     -40.316  14.088  18.063  0.00  0.00     0.237 C 
ATOM     17  O   UNL d   1     -41.127  13.990  18.303  0.00  0.00    -0.283 OA
ENDBRANCH   3  16
BRANCH   2  18
ATOM     18  C   UNL d   1     -39.425  15.009  20.751  0.00  0.00     0.083 A 
ATOM     19  C   UNL d   1     -39.773  15.713  20.999  0.00  0.00     0.019 A 
ATOM     20  C   UNL d   1     -39.781  15.905  21.803  0.00  0.00     0.002 A 
ATOM     21  C   UNL d   1     -39.442  15.394  22.353  0.00  0.00     0.000 A 
ATOM     22  C   UNL d   1     -39.093  14.687  22.102  0.00  0.00     0.002 A 
ATOM     23  C   UNL d   1     -39.086  14.497  21.301  0.00  0.00     0.019 A 
ENDBRANCH   2  18
TORSDOF 3
ENDMDL
MODEL 6
REMARK VINA RESULT:      -5.9      1.464      2.035
REMARK  3 active torsions:
REMARK  status: ('A' for Active; 'I' for Inactive)
REMARK    1  A    between atoms: C_10  and  N_2 
REMARK    2  A    between atoms: C_15  and  C_3 
REMARK    3  A    between atoms: C_6  and  C_4 
ROOT
ATOM      1  N   UNL d   1     -47.728  12.696  22.068  0.00  0.00    -0.165 NA
ATOM      2  N   UNL d   1     -48.646  13.771  22.256  0.00  0.00    -0.228 N 
ATOM      3  C   UNL d   1     -47.275  13.937  22.607  0.00  0.00     0.081 A 
ATOM      4  C   UNL d   1     -47.117  13.165  22.366  0.00  0.00     0.106 A 
ATOM      5  C   UNL d   1     -48.035  14.240  22.553  0.00  0.00     0.105 A 
ENDROOT
BRANCH   4   6
ATOM      6  C   UNL d   1     -46.353  12.856  22.419  0.00  0.00     0.022 A 
ATOM      7  C   UNL d   1     -45.780  13.086  21.874  0.00  0.00     0.028 A 
ATOM      8  C   UNL d   1     -45.015  12.777  21.925  0.00  0.00     0.123 A 
ATOM      9  O   UNL d   1     -44.441  13.008  21.378  0.00  0.00    -0.301 OA
ATOM     10  C   UNL d   1     -44.829  12.233  22.534  0.00  0.00     0.123 A 
ATOM     11  C   UNL d   1     -43.667  12.691  21.436  0.00  0.00     0.149 A 
ATOM     12  C   UNL d   1     -43.482  12.153  22.039  0.00  0.00     0.149 A 
ATOM     13  O   UNL d   1     -44.065  11.927  22.585  0.00  0.00    -0.301 OA
ATOM     14  C   UNL d   1     -45.410  12.012  23.072  0.00  0.00     0.027 A 
ATOM     15  C   UNL d   1     -46.169  12.318  23.020  0.00  0.00     0.004 A 
ENDBRANCH   4   6
BRANCH   3  16
ATOM     16  C   UNL d   1     -46.638  14.427  22.918  0.00  0.00     0.237 C 
ATOM     17  O   UNL d   1     -46.732  15.272  22.938  0.00  0.00    -0.283 OA
ENDBRANCH   3  16
BRANCH   2  18
ATOM     18  C   UNL d   1     -49.452  13.874  22.121  0.00  0.00     0.083 A 
ATOM     19  C   UNL d   1     -49.888  13.291  21.735  0.00  0.00     0.019 A 
ATOM     20  C   UNL d   1     -50.696  13.402  21.603  0.00  0.00     0.002 A 
ATOM     21  C   UNL d   1     -51.064  14.094  21.857  0.00  0.00     0.000 A 
ATOM     22  C   UNL d   1     -50.626  14.679  22.245  0.00  0.00     0.002 A 
ATOM     23  C   UNL d   1     -49.820  14.566  22.375  0.00  0.00     0.019 A 
ENDBRANCH   2  18
TORSDOF 3
ENDMDL
