MODEL 1
REMARK VINA RESULT:      43.8      0.000      0.000
REMARK  4 active torsions:
REMARK  status: ('A' for Active; 'I' for Inactive)
REMARK    1  A    between atoms: C_4  and  S_1 
REMARK    2  A    between atoms: N_5  and  S_1 
REMARK    3  A    between atoms: C_3  and  C_12 
REMARK    4  A    between atoms: C_12  and  N_5 
ROOT
ATOM      1  S   UNL d   1     -51.167  26.019  33.564  0.00  0.00     0.285 S 
ATOM      2  O   UNL d   1     -50.490  25.613  33.802  0.00  0.00    -0.198 OA
ATOM      3  O   UNL d   1     -51.852  26.440  33.322  0.00  0.00    -0.198 OA
ENDROOT
BRANCH   1   4
ATOM      4  C   UNL d   1     -51.587  25.313  33.526  0.00  0.00     0.105 A 
ATOM      5  C   UNL d   1     -52.420  25.330  33.454  0.00  0.00     0.013 A 
ATOM      6  C   UNL d   1     -52.820  24.607  33.418  0.00  0.00     0.001 A 
ATOM      7  C   UNL d   1     -53.649  24.628  33.346  0.00  0.00     0.000 A 
ATOM      8  C   UNL d   1     -52.418  23.891  33.452  0.00  0.00     0.000 A 
ATOM      9  C   UNL d   1     -54.060  23.912  33.310  0.00  0.00     0.000 A 
ATOM     10  C   UNL d   1     -53.662  23.192  33.343  0.00  0.00     0.000 A 
ATOM     11  C   UNL d   1     -52.838  23.191  33.414  0.00  0.00     0.000 A 
ATOM     12  C   UNL d   1     -51.609  23.893  33.522  0.00  0.00     0.001 A 
ATOM     13  C   UNL d   1     -51.189  24.599  33.560  0.00  0.00     0.013 A 
ENDBRANCH   1   4
BRANCH   1  14
ATOM     14  N   UNL d   1     -50.749  26.740  33.599  0.00  0.00    -0.155 NA
BRANCH  14  15
ATOM     15  C   UNL d   1     -49.926  26.749  33.605  0.00  0.00     0.132 C 
BRANCH  15  16
ATOM     16  C   UNL d   1     -49.512  27.383  33.955  0.00  0.00     0.108 A 
ATOM     17  N   UNL d   1     -49.341  27.456  34.753  0.00  0.00    -0.237 NA
ATOM     18  C   UNL d   1     -48.921  28.170  34.864  0.00  0.00     0.111 A 
ATOM     19  C   UNL d   1     -48.637  28.466  35.588  0.00  0.00     0.028 C 
ATOM     20  S   UNL d   1     -48.843  28.524  34.123  0.00  0.00    -0.066 SA
ATOM     21  C   UNL d   1     -49.208  28.037  33.560  0.00  0.00     0.058 A 
ENDBRANCH  15  16
ENDBRANCH  14  15
ENDBRANCH   1  14
TORSDOF 4
ENDMDL
