MODEL 1
REMARK VINA RESULT:      -4.7      0.000      0.000
REMARK  3 active torsions:
REMARK  status: ('A' for Active; 'I' for Inactive)
REMARK    1  A    between atoms: C_11  and  C_4 
REMARK       I    between atoms: C_6  and  N_8 
REMARK    2  A    between atoms: C_9  and  C_6 
REMARK    3  A    between atoms: N_8  and  C_19 
ROOT
ATOM      1  C   UNL d   1      57.490  -0.018  30.750  0.00  0.00     0.021 A 
ATOM      2  C   UNL d   1      58.490  -0.556  29.868  0.00  0.00     0.085 A 
ATOM      3  C   UNL d   1      58.044  -0.605  30.560  0.00  0.00     0.021 A 
ATOM      4  C   UNL d   1      57.383   0.629  30.235  0.00  0.00     0.002 A 
ATOM      5  C   UNL d   1      57.827   0.682  29.542  0.00  0.00     0.002 A 
ATOM      6  C   UNL d   1      58.384   0.091  29.353  0.00  0.00     0.019 A 
ENDROOT
BRANCH   2   7
ATOM      7  N   UNL d   1      59.038  -1.144  29.688  0.00  0.00    -0.208 NA
ATOM      8  C   UNL d   1      58.861  -1.732  29.130  0.00  0.00     0.279 C 
ATOM      9  O   UNL d   1      58.118  -1.722  28.751  0.00  0.00    -0.265 OA
BRANCH   8  10
ATOM     10  C   UNL d   1      59.408  -2.321  28.949  0.00  0.00     0.060 A 
ATOM     11  C   UNL d   1      59.216  -3.111  29.063  0.00  0.00     0.031 A 
ATOM     12  C   UNL d   1      59.760  -3.686  28.882  0.00  0.00     0.119 A 
ATOM     13  O   UNL d   1      59.732  -4.519  28.936  0.00  0.00    -0.300 OA
ATOM     14  C   UNL d   1      60.502  -3.483  28.586  0.00  0.00     0.119 A 
ATOM     15  C   UNL d   1      60.458  -4.815  28.671  0.00  0.00     0.304 A 
ATOM     16  O   UNL d   1      60.933  -4.176  28.455  0.00  0.00    -0.300 OA
ATOM     17  C   UNL d   1      60.698  -2.692  28.470  0.00  0.00     0.026 A 
ATOM     18  C   UNL d   1      60.147  -2.104  28.653  0.00  0.00     0.007 A 
ENDBRANCH   8  10
ENDBRANCH   2   7
BRANCH   1  19
ATOM     19  C   UNL d   1      57.044  -0.066  31.442  0.00  0.00     0.118 A 
ATOM     20  N   UNL d   1      56.650  -0.732  31.723  0.00  0.00    -0.059 NA
ATOM     21  C   UNL d   1      56.276  -0.526  32.434  0.00  0.00     0.735 A 
ATOM     22  N   UNL d   1      56.441   0.268  32.587  0.00  0.00    -0.136 N 
ATOM     23  N   UNL d   1      55.808  -0.968  32.952  0.00  0.00    -0.059 NA
ATOM     24  C   UNL d   1      56.915   0.555  31.975  0.00  0.00     0.118 A 
ATOM     25  C   UNL d   1      56.131   0.622  33.271  0.00  0.00     0.100 A 
ATOM     26  C   UNL d   1      55.667   0.192  33.790  0.00  0.00     0.041 A 
ATOM     27  C   UNL d   1      55.504  -0.609  33.629  0.00  0.00     0.119 A 
ENDBRANCH   1  19
TORSDOF 3
ENDMDL
