MODEL 1
REMARK VINA RESULT:     157.1      0.000      0.000
REMARK  3 active torsions:
REMARK  status: ('A' for Active; 'I' for Inactive)
REMARK    1  A    between atoms: N_9  and  C_3 
REMARK    2  A    between atoms: C_14  and  C_5 
REMARK       I    between atoms: C_10  and  N_11 
REMARK    3  A    between atoms: C_13  and  C_10 
ROOT
ATOM      1  N   UNL d   1      61.374  44.998  50.777  0.00  0.00    -0.196 N 
ATOM      2  C   UNL d   1      61.348  44.187  50.656  0.00  0.00     0.167 A 
ATOM      3  C   UNL d   1      60.987  45.509  50.258  0.00  0.00     0.152 A 
ATOM      4  N   UNL d   1      61.820  45.140  51.450  0.00  0.00    -0.163 NA
ATOM      5  C   UNL d   1      61.777  43.825  51.253  0.00  0.00     0.055 A 
ATOM      6  C   UNL d   1      62.066  44.409  51.738  0.00  0.00     0.104 A 
ATOM      7  N   UNL d   1      60.934  43.875  50.013  0.00  0.00    -0.227 NA
ATOM      8  C   UNL d   1      60.568  45.199  49.608  0.00  0.00     0.057 A 
ATOM      9  C   UNL d   1      60.542  44.389  49.487  0.00  0.00     0.086 A 
ATOM     10  C   UNL d   1      62.531  44.279  52.412  0.00  0.00     0.023 C 
ATOM     11  C   UNL d   1      60.118  44.083  48.829  0.00  0.00     0.021 C 
ENDROOT
BRANCH   3  12
ATOM     12  N   UNL d   1      61.013  46.321  50.379  0.00  0.00    -0.286 N 
ATOM     13  C   UNL d   1      60.458  46.691  50.867  0.00  0.00     0.101 A 
ATOM     14  C   UNL d   1      60.487  47.502  50.986  0.00  0.00     0.102 A 
ATOM     15  N   UNL d   1      61.077  47.955  50.616  0.00  0.00    -0.267 N 
ATOM     16  C   UNL d   1      61.115  48.781  50.732  0.00  0.00     0.288 C 
ATOM     17  C   UNL d   1      61.626  47.589  50.134  0.00  0.00     0.102 A 
ATOM     18  O   UNL d   1      61.691  49.238  50.373  0.00  0.00    -0.264 OA
ATOM     19  C   UNL d   1      61.596  46.768  50.014  0.00  0.00     0.101 A 
BRANCH  16  20
ATOM     20  C   UNL d   1      60.552  49.147  51.224  0.00  0.00     0.156 A 
ATOM     21  O   UNL d   1      59.770  49.361  51.101  0.00  0.00    -0.300 OA
ATOM     22  C   UNL d   1      59.497  49.706  51.797  0.00  0.00     0.123 A 
ATOM     23  C   UNL d   1      60.091  49.707  52.341  0.00  0.00     0.029 A 
ATOM     24  C   UNL d   1      60.760  49.357  51.989  0.00  0.00     0.032 A 
ENDBRANCH  16  20
ENDBRANCH   3  12
BRANCH   5  25
ATOM     25  C   UNL d   1      61.942  43.033  51.416  0.00  0.00     0.004 A 
ATOM     26  C   UNL d   1      61.483  42.624  51.979  0.00  0.00     0.001 A 
ATOM     27  C   UNL d   1      61.648  41.833  52.142  0.00  0.00     0.011 A 
ATOM     28  C   UNL d   1      62.263  41.446  51.752  0.00  0.00     0.058 A 
ATOM     29  C   UNL d   1      62.721  41.852  51.191  0.00  0.00     0.011 A 
ATOM     30 CL   UNL d   1      62.424  40.653  51.920  0.00  0.00    -0.082 Cl
ATOM     31  C   UNL d   1      62.557  42.643  51.027  0.00  0.00     0.001 A 
ENDBRANCH   5  25
TORSDOF 3
ENDMDL
MODEL 2
REMARK VINA RESULT:     157.9      2.820      5.730
REMARK  3 active torsions:
REMARK  status: ('A' for Active; 'I' for Inactive)
REMARK    1  A    between atoms: N_9  and  C_3 
REMARK    2  A    between atoms: C_14  and  C_5 
REMARK       I    between atoms: C_10  and  N_11 
REMARK    3  A    between atoms: C_13  and  C_10 
ROOT
ATOM      1  N   UNL d   1      60.005  47.540  50.488  0.00  0.00    -0.196 N 
ATOM      2  C   UNL d   1      59.566  48.201  50.696  0.00  0.00     0.167 A 
ATOM      3  C   UNL d   1      60.826  47.591  50.417  0.00  0.00     0.152 A 
ATOM      4  N   UNL d   1      59.488  46.913  50.385  0.00  0.00    -0.163 NA
ATOM      5  C   UNL d   1      58.775  47.985  50.723  0.00  0.00     0.055 A 
ATOM      6  C   UNL d   1      58.729  47.196  50.532  0.00  0.00     0.104 A 
ATOM      7  N   UNL d   1      59.941  48.923  50.838  0.00  0.00    -0.227 NA
ATOM      8  C   UNL d   1      61.208  48.317  50.559  0.00  0.00     0.057 A 
ATOM      9  C   UNL d   1      60.769  48.978  50.767  0.00  0.00     0.086 A 
ATOM     10  C   UNL d   1      58.025  46.758  50.495  0.00  0.00     0.023 C 
ATOM     11  C   UNL d   1      61.162  49.706  50.908  0.00  0.00     0.021 C 
ENDROOT
BRANCH   3  12
ATOM     12  N   UNL d   1      61.265  46.930  50.209  0.00  0.00    -0.286 N 
ATOM     13  C   UNL d   1      61.184  46.221  50.627  0.00  0.00     0.101 A 
ATOM     14  C   UNL d   1      61.624  45.563  50.416  0.00  0.00     0.102 A 
ATOM     15  N   UNL d   1      62.156  45.605  49.778  0.00  0.00    -0.267 N 
ATOM     16  C   UNL d   1      62.607  44.940  49.556  0.00  0.00     0.288 C 
ATOM     17  C   UNL d   1      62.236  46.305  49.365  0.00  0.00     0.102 A 
ATOM     18  O   UNL d   1      63.134  44.970  48.931  0.00  0.00    -0.264 OA
ATOM     19  C   UNL d   1      61.790  46.972  49.579  0.00  0.00     0.101 A 
BRANCH  16  20
ATOM     20  C   UNL d   1      62.520  44.230  49.983  0.00  0.00     0.156 A 
ATOM     21  O   UNL d   1      61.986  43.997  50.559  0.00  0.00    -0.300 OA
ATOM     22  C   UNL d   1      62.178  43.227  50.775  0.00  0.00     0.123 A 
ATOM     23  C   UNL d   1      62.814  42.984  50.346  0.00  0.00     0.029 A 
ATOM     24  C   UNL d   1      63.038  43.609  49.843  0.00  0.00     0.032 A 
ENDBRANCH  16  20
ENDBRANCH   3  12
BRANCH   5  25
ATOM     25  C   UNL d   1      58.090  48.409  50.898  0.00  0.00     0.004 A 
ATOM     26  C   UNL d   1      58.150  49.189  51.185  0.00  0.00     0.001 A 
ATOM     27  C   UNL d   1      57.465  49.613  51.360  0.00  0.00     0.011 A 
ATOM     28  C   UNL d   1      56.723  49.270  51.252  0.00  0.00     0.058 A 
ATOM     29  C   UNL d   1      56.661  48.493  50.965  0.00  0.00     0.011 A 
ATOM     30 CL   UNL d   1      56.039  49.700  51.429  0.00  0.00    -0.082 Cl
ATOM     31  C   UNL d   1      57.345  48.068  50.791  0.00  0.00     0.001 A 
ENDBRANCH   5  25
TORSDOF 3
ENDMDL
