MODEL 1
REMARK VINA RESULT:      -3.9      0.000      0.000
REMARK  5 active torsions:
REMARK  status: ('A' for Active; 'I' for Inactive)
REMARK    1  A    between atoms: O_8  and  C_2 
REMARK    2  A    between atoms: C_9  and  C_5 
REMARK    3  A    between atoms: C_14  and  O_8 
REMARK    4  A    between atoms: N_11  and  C_9 
REMARK    5  A    between atoms: O_21  and  C_18 
ROOT
ATOM      1  C   UNL d   1      57.857   0.674  31.629  0.00  0.00     0.108 A 
ATOM      2  C   UNL d   1      58.736   0.672  30.215  0.00  0.00     0.161 A 
ATOM      3  C   UNL d   1      58.692   0.677  31.655  0.00  0.00     0.064 A 
ATOM      4  C   UNL d   1      59.122   0.676  30.956  0.00  0.00     0.222 A 
ATOM      5  C   UNL d   1      57.417   0.675  32.336  0.00  0.00     0.079 A 
ATOM      6  O   UNL d   1      57.457   0.670  30.900  0.00  0.00    -0.305 OA
ATOM      7  C   UNL d   1      57.896   0.669  30.189  0.00  0.00     0.126 A 
ATOM      8  C   UNL d   1      59.070   0.680  32.395  0.00  0.00     0.009 A 
ATOM      9  C   UNL d   1      57.805   0.679  33.064  0.00  0.00     0.199 A 
ATOM     10  O   UNL d   1      59.948   0.679  30.977  0.00  0.00    -0.284 OA
ATOM     11  C   UNL d   1      58.632   0.681  33.094  0.00  0.00     0.042 A 
ATOM     12  O   UNL d   1      57.366   0.679  33.763  0.00  0.00    -0.286 OA
ATOM     13  C   UNL d   1      57.509   0.665  29.460  0.00  0.00     0.029 C 
ENDROOT
BRANCH   2  14
ATOM     14  O   UNL d   1      59.170   0.671  29.516  0.00  0.00    -0.302 OA
BRANCH  14  15
ATOM     15  C   UNL d   1      59.548  -0.018  29.265  0.00  0.00     0.102 A 
ATOM     16  C   UNL d   1      59.100  -0.665  29.017  0.00  0.00     0.049 A 
ATOM     17  C   UNL d   1      59.478  -1.354  28.766  0.00  0.00     0.096 A 
ATOM     18  C   UNL d   1      60.303  -1.396  28.763  0.00  0.00     0.024 A 
ATOM     19  C   UNL d   1      60.752  -0.737  29.016  0.00  0.00     0.004 A 
ATOM     20  C   UNL d   1      60.370  -0.056  29.264  0.00  0.00     0.025 A 
BRANCH  17  21
ATOM     21  O   UNL d   1      59.030  -2.001  28.517  0.00  0.00    -0.328 OA
ATOM     22  C   UNL d   1      58.969  -2.668  29.000  0.00  0.00     0.181 C 
ENDBRANCH  17  21
ENDBRANCH  14  15
ENDBRANCH   2  14
BRANCH   5  23
ATOM     23  C   UNL d   1      56.600   0.672  32.306  0.00  0.00     0.086 C 
BRANCH  23  24
ATOM     24  N   UNL d   1      56.178   0.020  32.594  0.00  0.00    -0.299 N 
ATOM     25  C   UNL d   1      55.589   0.132  33.164  0.00  0.00     0.107 A 
ATOM     26  C   UNL d   1      55.169  -0.516  33.452  0.00  0.00     0.142 A 
ATOM     27  O   UNL d   1      55.336  -1.277  33.171  0.00  0.00    -0.300 OA
ATOM     28  C   UNL d   1      55.926  -1.386  32.602  0.00  0.00     0.142 A 
ATOM     29  C   UNL d   1      56.350  -0.734  32.311  0.00  0.00     0.107 A 
ENDBRANCH  23  24
ENDBRANCH   5  23
TORSDOF 5
ENDMDL
MODEL 2
REMARK VINA RESULT:      -1.4      1.460      4.489
REMARK  5 active torsions:
REMARK  status: ('A' for Active; 'I' for Inactive)
REMARK    1  A    between atoms: O_8  and  C_2 
REMARK    2  A    between atoms: C_9  and  C_5 
REMARK    3  A    between atoms: C_14  and  O_8 
REMARK    4  A    between atoms: N_11  and  C_9 
REMARK    5  A    between atoms: O_21  and  C_18 
ROOT
ATOM      1  C   UNL d   1      59.243  -0.626  29.566  0.00  0.00     0.108 A 
ATOM      2  C   UNL d   1      58.148   0.221  30.490  0.00  0.00     0.161 A 
ATOM      3  C   UNL d   1      59.506  -0.179  30.220  0.00  0.00     0.064 A 
ATOM      4  C   UNL d   1      58.964   0.238  30.674  0.00  0.00     0.222 A 
ATOM      5  C   UNL d   1      59.790  -1.050  29.103  0.00  0.00     0.079 A 
ATOM      6  O   UNL d   1      58.436  -0.654  29.369  0.00  0.00    -0.305 OA
ATOM      7  C   UNL d   1      57.884  -0.229  29.832  0.00  0.00     0.126 A 
ATOM      8  C   UNL d   1      60.318  -0.166  30.398  0.00  0.00     0.009 A 
ATOM      9  C   UNL d   1      60.594  -1.029  29.290  0.00  0.00     0.199 A 
ATOM     10  O   UNL d   1      59.219   0.682  31.322  0.00  0.00    -0.284 OA
ATOM     11  C   UNL d   1      60.858  -0.588  29.937  0.00  0.00     0.042 A 
ATOM     12  O   UNL d   1      61.133  -1.451  28.829  0.00  0.00    -0.286 OA
ATOM     13  C   UNL d   1      57.081  -0.249  29.646  0.00  0.00     0.029 C 
ENDROOT
BRANCH   2  14
ATOM     14  O   UNL d   1      57.607   0.640  30.947  0.00  0.00    -0.302 OA
BRANCH  14  15
ATOM     15  C   UNL d   1      57.368   0.344  31.680  0.00  0.00     0.102 A 
ATOM     16  C   UNL d   1      56.830  -0.281  31.713  0.00  0.00     0.049 A 
ATOM     17  C   UNL d   1      56.590  -0.577  32.445  0.00  0.00     0.096 A 
ATOM     18  C   UNL d   1      56.887  -0.248  33.142  0.00  0.00     0.024 A 
ATOM     19  C   UNL d   1      57.432   0.385  33.102  0.00  0.00     0.004 A 
ATOM     20  C   UNL d   1      57.666   0.674  32.371  0.00  0.00     0.025 A 
BRANCH  17  21
ATOM     21  O   UNL d   1      56.052  -1.202  32.479  0.00  0.00    -0.328 OA
ATOM     22  C   UNL d   1      55.563  -1.287  33.138  0.00  0.00     0.181 C 
ENDBRANCH  17  21
ENDBRANCH  14  15
ENDBRANCH   2  14
BRANCH   5  23
ATOM     23  C   UNL d   1      59.529  -1.487  28.463  0.00  0.00     0.086 C 
BRANCH  23  24
ATOM     24  N   UNL d   1      59.517  -2.315  28.505  0.00  0.00    -0.299 N 
ATOM     25  C   UNL d   1      60.228  -2.730  28.583  0.00  0.00     0.107 A 
ATOM     26  C   UNL d   1      60.218  -3.554  28.625  0.00  0.00     0.142 A 
ATOM     27  O   UNL d   1      59.498  -3.963  28.589  0.00  0.00    -0.300 OA
ATOM     28  C   UNL d   1      58.789  -3.543  28.510  0.00  0.00     0.142 A 
ATOM     29  C   UNL d   1      58.798  -2.714  28.468  0.00  0.00     0.107 A 
ENDBRANCH  23  24
ENDBRANCH   5  23
TORSDOF 5
ENDMDL
