MODEL 1
REMARK VINA RESULT:      -3.6      0.000      0.000
REMARK  6 active torsions:
REMARK  status: ('A' for Active; 'I' for Inactive)
REMARK    1  A    between atoms: N_4  and  C_1 
REMARK    2  A    between atoms: C_10  and  C_3 
REMARK       I    between atoms: C_9  and  N_4 
REMARK       I    between atoms: N_7  and  C_8 
REMARK    3  A    between atoms: C_8  and  C_15 
REMARK    4  A    between atoms: C_16  and  C_9 
REMARK    5  A    between atoms: S_14  and  C_16 
REMARK    6  A    between atoms: C_15  and  S_14 
ROOT
ATOM      1  N   UNL d   1     -41.404-122.174 -52.299  0.00  0.00    -0.182 NA
ATOM      2  C   UNL d   1     -41.235-122.726 -51.729  0.00  0.00     0.288 C 
ATOM      3  O   UNL d   1     -41.128-123.518 -51.933  0.00  0.00    -0.265 OA
ENDROOT
BRANCH   2   4
ATOM      4  C   UNL d   1     -41.170-122.493 -50.938  0.00  0.00     0.098 C 
BRANCH   4   5
ATOM      5  S   UNL d   1     -41.912-122.553 -50.491  0.00  0.00    -0.076 SA
BRANCH   5   6
ATOM      6  C   UNL d   1     -41.903-122.494 -49.625  0.00  0.00     0.097 C 
BRANCH   6   7
ATOM      7  C   UNL d   1     -42.554-122.831 -49.164  0.00  0.00     0.272 C 
ATOM      8  N   UNL d   1     -42.410-123.156 -48.373  0.00  0.00    -0.267 N 
ATOM      9  C   UNL d   1     -41.607-123.144 -48.043  0.00  0.00     0.110 A 
ATOM     10  C   UNL d   1     -43.069-123.492 -47.919  0.00  0.00     0.110 A 
ATOM     11  C   UNL d   1     -41.460-123.467 -47.255  0.00  0.00     0.142 A 
ATOM     12  O   UNL d   1     -42.110-123.804 -46.795  0.00  0.00    -0.300 OA
ATOM     13  C   UNL d   1     -42.914-123.817 -47.122  0.00  0.00     0.142 A 
ATOM     14  O   UNL d   1     -43.356-122.843 -49.494  0.00  0.00    -0.266 OA
ENDBRANCH   6   7
ENDBRANCH   5   6
ENDBRANCH   4   5
ENDBRANCH   2   4
BRANCH   1  15
ATOM     15  C   UNL d   1     -41.470-122.402 -53.090  0.00  0.00     0.197 A 
ATOM     16  N   UNL d   1     -41.891-121.997 -53.673  0.00  0.00    -0.221 NA
ATOM     17  C   UNL d   1     -41.811-122.414 -54.380  0.00  0.00     0.090 A 
ATOM     18  C   UNL d   1     -41.341-123.074 -54.227  0.00  0.00     0.058 A 
ATOM     19  S   UNL d   1     -41.134-123.065 -53.440  0.00  0.00    -0.046 SA
BRANCH  17  20
ATOM     20  C   UNL d   1     -42.140-122.207 -55.096  0.00  0.00     0.018 A 
ATOM     21  C   UNL d   1     -41.718-121.759 -55.622  0.00  0.00     0.002 A 
ATOM     22  C   UNL d   1     -42.050-121.549 -56.346  0.00  0.00     0.000 A 
ATOM     23  C   UNL d   1     -42.809-121.796 -56.535  0.00  0.00     0.000 A 
ATOM     24  C   UNL d   1     -43.241-122.253 -56.001  0.00  0.00     0.000 A 
ATOM     25  C   UNL d   1     -42.900-122.457 -55.281  0.00  0.00     0.002 A 
ENDBRANCH  17  20
ENDBRANCH   1  15
TORSDOF 6
ENDMDL
MODEL 2
REMARK VINA RESULT:      -2.7      1.402      6.452
REMARK  6 active torsions:
REMARK  status: ('A' for Active; 'I' for Inactive)
REMARK    1  A    between atoms: N_4  and  C_1 
REMARK    2  A    between atoms: C_10  and  C_3 
REMARK       I    between atoms: C_9  and  N_4 
REMARK       I    between atoms: N_7  and  C_8 
REMARK    3  A    between atoms: C_8  and  C_15 
REMARK    4  A    between atoms: C_16  and  C_9 
REMARK    5  A    between atoms: S_14  and  C_16 
REMARK    6  A    between atoms: C_15  and  S_14 
ROOT
ATOM      1  N   UNL d   1     -41.509-122.440 -50.759  0.00  0.00    -0.182 NA
ATOM      2  C   UNL d   1     -41.307-122.801 -51.457  0.00  0.00     0.288 C 
ATOM      3  O   UNL d   1     -41.146-123.609 -51.479  0.00  0.00    -0.265 OA
ENDROOT
BRANCH   2   4
ATOM      4  C   UNL d   1     -41.263-122.355 -52.152  0.00  0.00     0.098 C 
BRANCH   4   5
ATOM      5  S   UNL d   1     -41.357-122.823 -52.877  0.00  0.00    -0.076 SA
BRANCH   5   6
ATOM      6  C   UNL d   1     -41.455-122.424 -53.642  0.00  0.00     0.097 C 
BRANCH   6   7
ATOM      7  C   UNL d   1     -41.860-122.830 -54.291  0.00  0.00     0.272 C 
ATOM      8  N   UNL d   1     -42.113-122.391 -54.994  0.00  0.00    -0.267 N 
ATOM      9  C   UNL d   1     -41.960-121.538 -55.047  0.00  0.00     0.110 A 
ATOM     10  C   UNL d   1     -42.519-122.807 -55.639  0.00  0.00     0.110 A 
ATOM     11  C   UNL d   1     -42.211-121.097 -55.746  0.00  0.00     0.142 A 
ATOM     12  O   UNL d   1     -42.615-121.503 -56.394  0.00  0.00    -0.300 OA
ATOM     13  C   UNL d   1     -42.771-122.355 -56.345  0.00  0.00     0.142 A 
ATOM     14  O   UNL d   1     -42.013-123.682 -54.238  0.00  0.00    -0.266 OA
ENDBRANCH   6   7
ENDBRANCH   5   6
ENDBRANCH   4   5
ENDBRANCH   2   4
BRANCH   1  15
ATOM     15  C   UNL d   1     -41.554-122.882 -50.063  0.00  0.00     0.197 A 
ATOM     16  N   UNL d   1     -42.049-122.718 -49.423  0.00  0.00    -0.221 NA
ATOM     17  C   UNL d   1     -41.918-123.295 -48.848  0.00  0.00     0.090 A 
ATOM     18  C   UNL d   1     -41.344-123.810 -49.138  0.00  0.00     0.058 A 
ATOM     19  S   UNL d   1     -41.123-123.557 -49.879  0.00  0.00    -0.046 SA
BRANCH  17  20
ATOM     20  C   UNL d   1     -42.292-123.342 -48.126  0.00  0.00     0.018 A 
ATOM     21  C   UNL d   1     -41.967-122.986 -47.475  0.00  0.00     0.002 A 
ATOM     22  C   UNL d   1     -42.344-123.033 -46.744  0.00  0.00     0.000 A 
ATOM     23  C   UNL d   1     -43.052-123.442 -46.676  0.00  0.00     0.000 A 
ATOM     24  C   UNL d   1     -43.386-123.806 -47.336  0.00  0.00     0.000 A 
ATOM     25  C   UNL d   1     -43.001-123.753 -48.061  0.00  0.00     0.002 A 
ENDBRANCH  17  20
ENDBRANCH   1  15
TORSDOF 6
ENDMDL
