MODEL 1
REMARK VINA RESULT:       0.3      0.000      0.000
REMARK  8 active torsions:
REMARK  status: ('A' for Active; 'I' for Inactive)
REMARK    1  A    between atoms: C_6  and  N_1 
REMARK    2  A    between atoms: S_10  and  C_2 
REMARK    3  A    between atoms: C_12  and  C_3 
REMARK    4  A    between atoms: C_7  and  C_8 
REMARK    5  A    between atoms: C_21  and  S_10 
REMARK    6  A    between atoms: O_15  and  C_12 
REMARK    7  A    between atoms: C_13  and  C_21 
REMARK    8  A    between atoms: C_16  and  O_15 
ROOT
ATOM      1  N   UNL d   1      32.977  20.397 -23.462  0.00  0.00    -0.268 N 
ATOM      2  C   UNL d   1      33.122  21.133 -23.892  0.00  0.00     0.198 A 
ATOM      3  C   UNL d   1      32.903  19.758 -24.041  0.00  0.00     0.196 A 
ATOM      4  N   UNL d   1      33.138  20.948 -24.745  0.00  0.00    -0.122 NA
ATOM      5  N   UNL d   1      33.001  20.096 -24.826  0.00  0.00    -0.126 NA
ENDROOT
BRANCH   3   6
ATOM      6  C   UNL d   1      32.756  18.923 -23.858  0.00  0.00     0.162 C 
BRANCH   6   7
ATOM      7  O   UNL d   1      32.364  18.418 -24.443  0.00  0.00    -0.300 OA
BRANCH   7   8
ATOM      8  C   UNL d   1      31.777  17.844 -24.370  0.00  0.00     0.118 A 
ATOM      9  C   UNL d   1      31.970  17.104 -24.066  0.00  0.00     0.104 A 
ATOM     10  N   UNL d   1      32.746  16.937 -23.838  0.00  0.00    -0.242 NA
ATOM     11  C   UNL d   1      31.381  16.522 -23.990  0.00  0.00     0.020 A 
ATOM     12  C   UNL d   1      32.929  16.190 -23.535  0.00  0.00     0.099 A 
ATOM     13  C   UNL d   1      32.345  15.624 -23.463  0.00  0.00     0.021 A 
ATOM     14  C   UNL d   1      31.577  15.789 -23.689  0.00  0.00     0.003 A 
ATOM     15  C   UNL d   1      30.614  16.687 -24.216  0.00  0.00     0.002 A 
ATOM     16  C   UNL d   1      30.420  17.428 -24.520  0.00  0.00     0.002 A 
ATOM     17  C   UNL d   1      31.011  18.014 -24.597  0.00  0.00     0.026 A 
ENDBRANCH   7   8
ENDBRANCH   6   7
ENDBRANCH   3   6
BRANCH   1  18
ATOM     18  C   UNL d   1      32.920  20.317 -22.647  0.00  0.00     0.067 A 
ATOM     19  C   UNL d   1      32.549  20.896 -22.206  0.00  0.00     0.021 A 
ATOM     20  C   UNL d   1      32.488  20.823 -21.396  0.00  0.00     0.073 A 
ATOM     21  C   UNL d   1      32.805  20.157 -21.017  0.00  0.00     0.004 A 
ATOM     22  C   UNL d   1      33.179  19.574 -21.467  0.00  0.00     0.001 A 
ATOM     23  C   UNL d   1      33.236  19.653 -22.272  0.00  0.00     0.018 A 
BRANCH  20  24
ATOM     24  C   UNL d   1      32.109  21.415 -20.946  0.00  0.00     0.419 C 
ATOM     25  F   UNL d   1      31.760  21.958 -20.534  0.00  0.00    -0.166 F 
ATOM     26  F   UNL d   1      32.437  21.951 -20.331  0.00  0.00    -0.166 F 
ATOM     27  F   UNL d   1      31.267  21.671 -20.961  0.00  0.00    -0.166 F 
ENDBRANCH  20  24
ENDBRANCH   1  18
BRANCH   2  28
ATOM     28  S   UNL d   1      33.231  21.910 -23.539  0.00  0.00    -0.064 SA
BRANCH  28  29
ATOM     29  C   UNL d   1      33.200  22.625 -24.025  0.00  0.00     0.162 C 
BRANCH  29  30
ATOM     30  C   UNL d   1      32.691  23.282 -23.808  0.00  0.00     0.197 C 
ATOM     31  O   UNL d   1      32.047  23.525 -24.336  0.00  0.00    -0.647 OA
ATOM     32  O   UNL d   1      32.820  23.700 -23.065  0.00  0.00    -0.647 OA
ENDBRANCH  29  30
ENDBRANCH  28  29
ENDBRANCH   2  28
TORSDOF 8
ENDMDL
