MODEL 1
REMARK VINA RESULT:      -8.7      0.000      0.000
REMARK  4 active torsions:
REMARK  status: ('A' for Active; 'I' for Inactive)
REMARK    1  A    between atoms: N_2  and  S_1 
REMARK    2  A    between atoms: C_4  and  S_1 
REMARK    3  A    between atoms: C_3  and  C_8 
REMARK       I    between atoms: N_5  and  C_3 
REMARK    4  A    between atoms: C_17  and  N_5 
ROOT
ATOM      1  C   UNL d   1      50.070  34.410  52.465  0.00  0.00     0.104 A 
ATOM      2  C   UNL d   1      51.479  33.741  52.993  0.00  0.00     0.058 A 
ATOM      3  C   UNL d   1      50.776  34.499  52.023  0.00  0.00     0.013 A 
ATOM      4  C   UNL d   1      50.082  33.978  53.182  0.00  0.00     0.013 A 
ATOM      5  C   UNL d   1      51.471  34.162  52.295  0.00  0.00     0.005 A 
ATOM      6  C   UNL d   1      50.783  33.642  53.450  0.00  0.00     0.005 A 
ENDROOT
BRANCH   1   7
ATOM      7  S   UNL d   1      49.352  34.746  52.204  0.00  0.00     0.272 S 
ATOM      8  O   UNL d   1      49.432  34.376  51.455  0.00  0.00    -0.200 OA
ATOM      9  O   UNL d   1      49.262  35.124  52.955  0.00  0.00    -0.200 OA
BRANCH   7  10
ATOM     10  N   UNL d   1      48.630  35.093  51.960  0.00  0.00    -0.225 N 
ATOM     11  C   UNL d   1      48.282  34.869  51.246  0.00  0.00     0.118 A 
ATOM     12  C   UNL d   1      47.578  35.214  51.018  0.00  0.00     0.142 A 
ATOM     13  O   UNL d   1      47.204  35.798  51.510  0.00  0.00    -0.300 OA
ATOM     14  C   UNL d   1      47.546  36.021  52.215  0.00  0.00     0.142 A 
ATOM     15  C   UNL d   1      48.256  35.677  52.452  0.00  0.00     0.118 A 
ENDBRANCH   7  10
ENDBRANCH   1   7
BRANCH   2  16
ATOM     16  C   UNL d   1      52.182  33.395  53.276  0.00  0.00     0.279 C 
ATOM     17  N   UNL d   1      52.760  33.849  53.646  0.00  0.00    -0.208 NA
ATOM     18  O   UNL d   1      52.284  32.582  53.174  0.00  0.00    -0.265 OA
BRANCH  17  19
ATOM     19  C   UNL d   1      53.464  33.504  53.929  0.00  0.00     0.085 A 
ATOM     20  C   UNL d   1      53.598  33.472  54.743  0.00  0.00     0.019 A 
ATOM     21  C   UNL d   1      54.290  33.133  55.040  0.00  0.00     0.002 A 
ATOM     22  C   UNL d   1      54.840  32.829  54.512  0.00  0.00     0.000 A 
ATOM     23  C   UNL d   1      54.705  32.861  53.698  0.00  0.00     0.002 A 
ATOM     24  C   UNL d   1      54.020  33.197  53.412  0.00  0.00     0.019 A 
ENDBRANCH  17  19
ENDBRANCH   2  16
TORSDOF 4
ENDMDL
MODEL 2
REMARK VINA RESULT:      -8.6      1.186      5.376
REMARK  4 active torsions:
REMARK  status: ('A' for Active; 'I' for Inactive)
REMARK    1  A    between atoms: N_2  and  S_1 
REMARK    2  A    between atoms: C_4  and  S_1 
REMARK    3  A    between atoms: C_3  and  C_8 
REMARK       I    between atoms: N_5  and  C_3 
REMARK    4  A    between atoms: C_17  and  N_5 
ROOT
ATOM      1  C   UNL d   1      51.695  33.529  53.004  0.00  0.00     0.104 A 
ATOM      2  C   UNL d   1      50.280  34.309  52.685  0.00  0.00     0.058 A 
ATOM      3  C   UNL d   1      51.666  34.143  52.434  0.00  0.00     0.013 A 
ATOM      4  C   UNL d   1      50.999  33.311  53.414  0.00  0.00     0.013 A 
ATOM      5  C   UNL d   1      50.956  34.525  52.283  0.00  0.00     0.005 A 
ATOM      6  C   UNL d   1      50.290  33.698  53.258  0.00  0.00     0.005 A 
ENDROOT
BRANCH   1   7
ATOM      7  S   UNL d   1      52.408  33.130  53.170  0.00  0.00     0.272 S 
ATOM      8  O   UNL d   1      52.388  32.748  52.424  0.00  0.00    -0.200 OA
ATOM      9  O   UNL d   1      52.438  33.511  53.925  0.00  0.00    -0.200 OA
BRANCH   7  10
ATOM     10  N   UNL d   1      53.126  32.739  53.356  0.00  0.00    -0.225 N 
ATOM     11  C   UNL d   1      53.160  31.914  53.354  0.00  0.00     0.118 A 
ATOM     12  C   UNL d   1      53.864  31.543  53.537  0.00  0.00     0.142 A 
ATOM     13  O   UNL d   1      54.556  31.999  53.728  0.00  0.00    -0.300 OA
ATOM     14  C   UNL d   1      54.524  32.813  53.730  0.00  0.00     0.142 A 
ATOM     15  C   UNL d   1      53.817  33.195  53.547  0.00  0.00     0.118 A 
ENDBRANCH   7  10
ENDBRANCH   1   7
BRANCH   2  16
ATOM     16  C   UNL d   1      49.555  34.692  52.537  0.00  0.00     0.279 C 
ATOM     17  N   UNL d   1      49.289  35.301  53.022  0.00  0.00    -0.208 NA
ATOM     18  O   UNL d   1      49.109  34.443  51.888  0.00  0.00    -0.265 OA
BRANCH  17  19
ATOM     19  C   UNL d   1      48.564  35.685  52.874  0.00  0.00     0.085 A 
ATOM     20  C   UNL d   1      48.161  36.040  53.501  0.00  0.00     0.019 A 
ATOM     21  C   UNL d   1      47.442  36.424  53.372  0.00  0.00     0.002 A 
ATOM     22  C   UNL d   1      47.136  36.445  52.611  0.00  0.00     0.000 A 
ATOM     23  C   UNL d   1      47.539  36.090  51.984  0.00  0.00     0.002 A 
ATOM     24  C   UNL d   1      48.249  35.712  52.119  0.00  0.00     0.019 A 
ENDBRANCH  17  19
ENDBRANCH   2  16
TORSDOF 4
ENDMDL
MODEL 3
REMARK VINA RESULT:      -6.1      9.933     10.867
REMARK  4 active torsions:
REMARK  status: ('A' for Active; 'I' for Inactive)
REMARK    1  A    between atoms: N_2  and  S_1 
REMARK    2  A    between atoms: C_4  and  S_1 
REMARK    3  A    between atoms: C_3  and  C_8 
REMARK       I    between atoms: N_5  and  C_3 
REMARK    4  A    between atoms: C_17  and  N_5 
ROOT
ATOM      1  C   UNL d   1      44.909  28.374  58.163  0.00  0.00     0.104 A 
ATOM      2  C   UNL d   1      45.037  27.056  57.183  0.00  0.00     0.058 A 
ATOM      3  C   UNL d   1      45.392  27.725  58.381  0.00  0.00     0.013 A 
ATOM      4  C   UNL d   1      44.487  28.351  57.439  0.00  0.00     0.013 A 
ATOM      5  C   UNL d   1      45.449  27.075  57.886  0.00  0.00     0.005 A 
ATOM      6  C   UNL d   1      44.548  27.695  56.947  0.00  0.00     0.005 A 
ENDROOT
BRANCH   1   7
ATOM      7  S   UNL d   1      44.839  29.044  58.654  0.00  0.00     0.272 S 
ATOM      8  O   UNL d   1      44.319  28.634  59.169  0.00  0.00    -0.200 OA
ATOM      9  O   UNL d   1      45.362  29.467  58.141  0.00  0.00    -0.200 OA
BRANCH   7  10
ATOM     10  N   UNL d   1      44.782  29.728  59.135  0.00  0.00    -0.225 N 
ATOM     11  C   UNL d   1      44.580  29.659  59.932  0.00  0.00     0.118 A 
ATOM     12  C   UNL d   1      44.528  30.332  60.391  0.00  0.00     0.142 A 
ATOM     13  O   UNL d   1      44.678  31.098  60.053  0.00  0.00    -0.300 OA
ATOM     14  C   UNL d   1      44.877  31.168  59.267  0.00  0.00     0.142 A 
ATOM     15  C   UNL d   1      44.932  30.494  58.797  0.00  0.00     0.118 A 
ENDBRANCH   7  10
ENDBRANCH   1   7
BRANCH   2  16
ATOM     16  C   UNL d   1      45.089  26.398  56.674  0.00  0.00     0.279 C 
ATOM     17  N   UNL d   1      44.454  25.884  56.577  0.00  0.00    -0.208 NA
ATOM     18  O   UNL d   1      45.799  26.275  56.269  0.00  0.00    -0.265 OA
BRANCH  17  19
ATOM     19  C   UNL d   1      44.507  25.226  56.068  0.00  0.00     0.085 A 
ATOM     20  C   UNL d   1      44.757  24.500  56.373  0.00  0.00     0.019 A 
ATOM     21  C   UNL d   1      44.814  23.838  55.883  0.00  0.00     0.002 A 
ATOM     22  C   UNL d   1      44.619  23.915  55.090  0.00  0.00     0.000 A 
ATOM     23  C   UNL d   1      44.369  24.641  54.785  0.00  0.00     0.002 A 
ATOM     24  C   UNL d   1      44.314  25.291  55.275  0.00  0.00     0.019 A 
ENDBRANCH  17  19
ENDBRANCH   2  16
TORSDOF 4
ENDMDL
MODEL 4
REMARK VINA RESULT:      -5.9     10.179     11.189
REMARK  4 active torsions:
REMARK  status: ('A' for Active; 'I' for Inactive)
REMARK    1  A    between atoms: N_2  and  S_1 
REMARK    2  A    between atoms: C_4  and  S_1 
REMARK    3  A    between atoms: C_3  and  C_8 
REMARK       I    between atoms: N_5  and  C_3 
REMARK    4  A    between atoms: C_17  and  N_5 
ROOT
ATOM      1  C   UNL d   1      44.883  26.584  57.219  0.00  0.00     0.104 A 
ATOM      2  C   UNL d   1      44.987  28.009  58.037  0.00  0.00     0.058 A 
ATOM      3  C   UNL d   1      44.736  27.311  56.829  0.00  0.00     0.013 A 
ATOM      4  C   UNL d   1      45.085  26.583  58.031  0.00  0.00     0.013 A 
ATOM      5  C   UNL d   1      44.791  28.014  57.245  0.00  0.00     0.005 A 
ATOM      6  C   UNL d   1      45.138  27.292  58.444  0.00  0.00     0.005 A 
ENDROOT
BRANCH   1   7
ATOM      7  S   UNL d   1      44.832  25.858  56.811  0.00  0.00     0.272 S 
ATOM      8  O   UNL d   1      45.345  26.140  56.210  0.00  0.00    -0.200 OA
ATOM      9  O   UNL d   1      44.315  25.563  57.411  0.00  0.00    -0.200 OA
BRANCH   7  10
ATOM     10  N   UNL d   1      44.768  25.121  56.416  0.00  0.00    -0.225 N 
ATOM     11  C   UNL d   1      44.715  24.421  56.851  0.00  0.00     0.118 A 
ATOM     12  C   UNL d   1      44.653  23.710  56.455  0.00  0.00     0.142 A 
ATOM     13  O   UNL d   1      44.643  23.687  55.606  0.00  0.00    -0.300 OA
ATOM     14  C   UNL d   1      44.696  24.376  55.175  0.00  0.00     0.142 A 
ATOM     15  C   UNL d   1      44.759  25.099  55.567  0.00  0.00     0.118 A 
ENDBRANCH   7  10
ENDBRANCH   1   7
BRANCH   2  16
ATOM     16  C   UNL d   1      45.045  28.721  58.467  0.00  0.00     0.279 C 
ATOM     17  N   UNL d   1      44.436  28.969  58.962  0.00  0.00    -0.208 NA
ATOM     18  O   UNL d   1      45.732  29.172  58.382  0.00  0.00    -0.265 OA
BRANCH  17  19
ATOM     19  C   UNL d   1      44.494  29.680  59.391  0.00  0.00     0.085 A 
ATOM     20  C   UNL d   1      44.733  29.656  60.182  0.00  0.00     0.019 A 
ATOM     21  C   UNL d   1      44.795  30.351  60.622  0.00  0.00     0.002 A 
ATOM     22  C   UNL d   1      44.615  31.065  60.261  0.00  0.00     0.000 A 
ATOM     23  C   UNL d   1      44.375  31.090  59.471  0.00  0.00     0.002 A 
ATOM     24  C   UNL d   1      44.316  30.399  59.042  0.00  0.00     0.019 A 
ENDBRANCH  17  19
ENDBRANCH   2  16
TORSDOF 4
ENDMDL
