MODEL 1
REMARK VINA RESULT:     111.3      0.000      0.000
REMARK  5 active torsions:
REMARK  status: ('A' for Active; 'I' for Inactive)
REMARK       I    between atoms: C_6  and  N_1 
REMARK    1  A    between atoms: C_7  and  C_3 
REMARK    2  A    between atoms: C_8  and  C_4 
REMARK    3  A    between atoms: C_11  and  C_6 
REMARK    4  A    between atoms: C_9  and  C_17 
REMARK    5  A    between atoms: C_17  and  C_11 
ROOT
ATOM      1  N   UNL d   1      60.567  47.922  50.514  0.00  0.00    -0.195 N 
ATOM      2  N   UNL d   1      60.635  47.371  49.917  0.00  0.00    -0.163 NA
ATOM      3  C   UNL d   1      61.142  46.824  50.197  0.00  0.00     0.103 A 
ATOM      4  C   UNL d   1      61.014  47.719  51.133  0.00  0.00     0.088 A 
ATOM      5  C   UNL d   1      61.384  47.045  50.970  0.00  0.00     0.040 A 
ATOM      6  C   UNL d   1      60.093  48.596  50.469  0.00  0.00     0.281 C 
ATOM      7  O   UNL d   1      60.059  49.124  51.105  0.00  0.00    -0.265 OA
ENDROOT
BRANCH   4   8
ATOM      8  C   UNL d   1      61.014  48.226  51.807  0.00  0.00     0.018 A 
ATOM      9  C   UNL d   1      60.752  47.907  52.529  0.00  0.00     0.002 A 
ATOM     10  C   UNL d   1      60.759  48.406  53.167  0.00  0.00     0.007 A 
ATOM     11  C   UNL d   1      60.997  49.167  53.134  0.00  0.00     0.035 A 
ATOM     12  C   UNL d   1      61.258  49.477  52.404  0.00  0.00     0.007 A 
ATOM     13 BR   UNL d   1      60.980  49.644  53.845  0.00  0.00    -0.049 Br
ATOM     14  C   UNL d   1      61.258  48.970  51.730  0.00  0.00     0.002 A 
ENDBRANCH   4   8
BRANCH   6  15
ATOM     15  C   UNL d   1      59.637  48.737  49.752  0.00  0.00     0.069 C 
BRANCH  15  16
ATOM     16  C   UNL d   1      59.210  49.448  49.680  0.00  0.00     0.075 C 
BRANCH  16  17
ATOM     17  C   UNL d   1      58.389  49.443  49.670  0.00  0.00     0.211 C 
ATOM     18  O   UNL d   1      57.971  49.181  50.343  0.00  0.00    -0.644 OA
ATOM     19  O   UNL d   1      57.977  49.692  49.000  0.00  0.00    -0.644 OA
ENDBRANCH  16  17
ENDBRANCH  15  16
ENDBRANCH   6  15
BRANCH   3  20
ATOM     20  C   UNL d   1      61.440  46.126  49.860  0.00  0.00     0.019 A 
ATOM     21  C   UNL d   1      61.056  45.773  49.231  0.00  0.00     0.002 A 
ATOM     22  C   UNL d   1      61.354  45.080  48.899  0.00  0.00     0.007 A 
ATOM     23  C   UNL d   1      62.043  44.744  49.204  0.00  0.00     0.035 A 
ATOM     24  C   UNL d   1      62.440  45.096  49.843  0.00  0.00     0.007 A 
ATOM     25 BR   UNL d   1      62.384  44.001  48.866  0.00  0.00    -0.049 Br
ATOM     26  C   UNL d   1      62.129  45.789  50.164  0.00  0.00     0.002 A 
ENDBRANCH   3  20
TORSDOF 5
ENDMDL
