MODEL 1
REMARK VINA RESULT:     135.6      0.000      0.000
REMARK  5 active torsions:
REMARK  status: ('A' for Active; 'I' for Inactive)
REMARK    1  A    between atoms: C_3  and  S_1 
REMARK    2  A    between atoms: N_6  and  S_1 
REMARK    3  A    between atoms: S_2  and  N_4 
REMARK    4  A    between atoms: C_10  and  S_2 
REMARK    5  A    between atoms: N_4  and  C_5 
ROOT
ATOM      1  C   UNL d   1     -55.100-100.447 -41.909  0.00  0.00     0.105 A 
ATOM      2  C   UNL d   1     -55.105-101.353 -40.810  0.00  0.00     0.076 A 
ATOM      3  C   UNL d   1     -55.231-101.211 -41.604  0.00  0.00     0.031 A 
ATOM      4  C   UNL d   1     -54.848 -99.848 -41.404  0.00  0.00     0.012 A 
ATOM      5  C   UNL d   1     -54.852-100.752 -40.304  0.00  0.00     0.017 A 
ATOM      6  C   UNL d   1     -54.722 -99.997 -40.596  0.00  0.00     0.002 A 
ATOM      7  C   UNL d   1     -54.726-100.902 -39.495  0.00  0.00     0.002 C 
ATOM      8  C   UNL d   1     -54.718 -99.084 -41.709  0.00  0.00     0.001 C 
ENDROOT
BRANCH   2   9
ATOM      9  N   UNL d   1     -55.242-102.121 -40.533  0.00  0.00    -0.229 N 
ATOM     10  C   UNL d   1     -54.720-102.710 -40.726  0.00  0.00     0.111 C 
BRANCH   9  11
ATOM     11  S   UNL d   1     -55.895-102.272 -40.072  0.00  0.00     0.271 S 
ATOM     12  O   UNL d   1     -56.352-101.798 -40.564  0.00  0.00    -0.200 OA
ATOM     13  O   UNL d   1     -55.448-102.756 -39.565  0.00  0.00    -0.200 OA
BRANCH  11  14
ATOM     14  C   UNL d   1     -56.573-102.424 -39.602  0.00  0.00     0.104 A 
ATOM     15  C   UNL d   1     -57.308-102.534 -39.960  0.00  0.00     0.013 A 
ATOM     16  C   UNL d   1     -57.963-102.681 -39.500  0.00  0.00     0.001 A 
ATOM     17  C   UNL d   1     -57.877-102.716 -38.674  0.00  0.00     0.000 A 
ATOM     18  C   UNL d   1     -57.160-102.608 -38.326  0.00  0.00     0.001 A 
ATOM     19  C   UNL d   1     -58.546-102.867 -38.191  0.00  0.00     0.000 C 
ATOM     20  C   UNL d   1     -56.494-102.460 -38.782  0.00  0.00     0.013 A 
ENDBRANCH  11  14
ENDBRANCH   9  11
ENDBRANCH   2   9
BRANCH   1  21
ATOM     21  S   UNL d   1     -55.222-100.283 -42.712  0.00  0.00     0.271 S 
ATOM     22  O   UNL d   1     -55.183-101.100 -42.895  0.00  0.00    -0.200 OA
ATOM     23  O   UNL d   1     -55.262 -99.462 -42.534  0.00  0.00    -0.200 OA
BRANCH  21  24
ATOM     24  N   UNL d   1     -55.344-100.115 -43.515  0.00  0.00    -0.229 N 
ATOM     25  C   UNL d   1     -55.969 -99.639 -43.749  0.00  0.00     0.092 A 
ATOM     26  C   UNL d   1     -56.103 -99.463 -44.551  0.00  0.00     0.020 A 
ATOM     27  C   UNL d   1     -55.597 -99.773 -45.116  0.00  0.00     0.003 A 
ATOM     28  C   UNL d   1     -54.966-100.254 -44.878  0.00  0.00     0.020 A 
ATOM     29  C   UNL d   1     -55.714 -99.611 -45.903  0.00  0.00     0.000 C 
ATOM     30  C   UNL d   1     -54.849-100.416 -44.099  0.00  0.00     0.092 A 
ENDBRANCH  21  24
ENDBRANCH   1  21
TORSDOF 5
ENDMDL
