MODEL 1
REMARK VINA RESULT:      46.9      0.000      0.000
REMARK  6 active torsions:
REMARK  status: ('A' for Active; 'I' for Inactive)
REMARK       I    between atoms: C_2  and  N_1 
REMARK    1  A    between atoms: C_3  and  C_2 
REMARK    2  A    between atoms: C_12  and  C_4 
REMARK       I    between atoms: C_5  and  N_8 
REMARK    3  A    between atoms: C_6  and  C_5 
REMARK       I    between atoms: N_9  and  C_6 
REMARK    4  A    between atoms: N_8  and  C_12 
REMARK    5  A    between atoms: C_19  and  N_9 
REMARK    6  A    between atoms: C_21  and  C_19 
ROOT
ATOM      1  C   UNL d   1      15.437  13.442  -0.494  0.00  0.00     0.337 C 
ATOM      2  N   UNL d   1      15.523  14.255  -0.552  0.00  0.00    -0.199 NA
ATOM      3  O   UNL d   1      16.054  12.985  -0.200  0.00  0.00    -0.260 OA
ENDROOT
BRANCH   2   4
ATOM      4  C   UNL d   1      14.906  14.713  -0.846  0.00  0.00     0.146 C 
BRANCH   4   5
ATOM      5  C   UNL d   1      15.011  15.532  -0.943  0.00  0.00     0.190 A 
ATOM      6  N   UNL d   1      15.031  15.920  -1.668  0.00  0.00    -0.250 N 
ATOM      7  C   UNL d   1      14.959  15.649  -2.448  0.00  0.00     0.272 C 
ATOM      8  C   UNL d   1      15.146  16.723  -1.507  0.00  0.00     0.112 A 
ATOM      9  O   UNL d   1      14.844  14.842  -2.594  0.00  0.00    -0.266 OA
ATOM     10  C   UNL d   1      15.196  16.821  -0.692  0.00  0.00     0.144 A 
ATOM     11  O   UNL d   1      15.111  16.071  -0.348  0.00  0.00    -0.285 OA
BRANCH   7  12
ATOM     12  C   UNL d   1      15.001  16.176  -3.078  0.00  0.00     0.086 A 
ATOM     13  S   UNL d   1      15.544  16.777  -3.253  0.00  0.00    -0.082 SA
ATOM     14  C   UNL d   1      15.304  17.132  -3.972  0.00  0.00     0.036 A 
ATOM     15  C   UNL d   1      14.620  16.744  -4.224  0.00  0.00     0.008 A 
ATOM     16  C   UNL d   1      14.431  16.157  -3.680  0.00  0.00     0.012 A 
ENDBRANCH   7  12
ENDBRANCH   4   5
ENDBRANCH   2   4
BRANCH   1  17
ATOM     17  C   UNL d   1      14.733  13.076  -0.727  0.00  0.00     0.337 C 
ATOM     18  N   UNL d   1      14.695  12.648  -1.429  0.00  0.00    -0.202 NA
ATOM     19  O   UNL d   1      14.064  13.141  -0.252  0.00  0.00    -0.260 OA
BRANCH  18  20
ATOM     20  C   UNL d   1      13.995  12.287  -1.658  0.00  0.00     0.102 C 
BRANCH  20  21
ATOM     21  C   UNL d   1      13.817  12.158  -2.470  0.00  0.00     0.019 A 
ATOM     22  C   UNL d   1      14.402  12.277  -3.029  0.00  0.00     0.002 A 
ATOM     23  C   UNL d   1      14.226  12.150  -3.831  0.00  0.00     0.000 A 
ATOM     24  C   UNL d   1      13.481  11.910  -4.058  0.00  0.00     0.000 A 
ATOM     25  C   UNL d   1      12.890  11.791  -3.475  0.00  0.00     0.000 A 
ATOM     26  C   UNL d   1      13.071  11.919  -2.675  0.00  0.00     0.002 A 
ENDBRANCH  20  21
ENDBRANCH  18  20
ENDBRANCH   1  17
TORSDOF 6
ENDMDL
MODEL 2
REMARK VINA RESULT:      47.5      1.885      4.854
REMARK  6 active torsions:
REMARK  status: ('A' for Active; 'I' for Inactive)
REMARK       I    between atoms: C_2  and  N_1 
REMARK    1  A    between atoms: C_3  and  C_2 
REMARK    2  A    between atoms: C_12  and  C_4 
REMARK       I    between atoms: C_5  and  N_8 
REMARK    3  A    between atoms: C_6  and  C_5 
REMARK       I    between atoms: N_9  and  C_6 
REMARK    4  A    between atoms: N_8  and  C_12 
REMARK    5  A    between atoms: C_19  and  N_9 
REMARK    6  A    between atoms: C_21  and  C_19 
ROOT
ATOM      1  C   UNL d   1      13.321  14.973  -4.395  0.00  0.00     0.337 C 
ATOM      2  N   UNL d   1      13.175  14.236  -4.069  0.00  0.00    -0.199 NA
ATOM      3  O   UNL d   1      12.774  15.310  -4.907  0.00  0.00    -0.260 OA
ENDROOT
BRANCH   2   4
ATOM      4  C   UNL d   1      13.723  13.898  -3.556  0.00  0.00     0.146 C 
BRANCH   4   5
ATOM      5  C   UNL d   1      13.676  13.087  -3.381  0.00  0.00     0.190 A 
ATOM      6  N   UNL d   1      13.873  12.750  -2.657  0.00  0.00    -0.250 N 
ATOM      7  C   UNL d   1      14.150  13.078  -1.947  0.00  0.00     0.272 C 
ATOM      8  C   UNL d   1      13.745  11.936  -2.727  0.00  0.00     0.112 A 
ATOM      9  O   UNL d   1      14.273  13.895  -1.892  0.00  0.00    -0.266 OA
ATOM     10  C   UNL d   1      13.473  11.781  -3.487  0.00  0.00     0.144 A 
ATOM     11  O   UNL d   1      13.434  12.505  -3.889  0.00  0.00    -0.285 OA
BRANCH   7  12
ATOM     12  C   UNL d   1      14.302  12.597  -1.298  0.00  0.00     0.086 A 
ATOM     13  S   UNL d   1      13.834  12.395  -0.644  0.00  0.00    -0.082 SA
ATOM     14  C   UNL d   1      14.286  11.882  -0.160  0.00  0.00     0.036 A 
ATOM     15  C   UNL d   1      15.020  11.780  -0.524  0.00  0.00     0.008 A 
ATOM     16  C   UNL d   1      15.035  12.216  -1.221  0.00  0.00     0.012 A 
ENDBRANCH   7  12
ENDBRANCH   4   5
ENDBRANCH   2   4
BRANCH   1  17
ATOM     17  C   UNL d   1      14.016  15.383  -4.214  0.00  0.00     0.337 C 
ATOM     18  N   UNL d   1      14.178  15.615  -3.441  0.00  0.00    -0.202 NA
ATOM     19  O   UNL d   1      14.551  15.560  -4.813  0.00  0.00    -0.260 OA
BRANCH  18  20
ATOM     20  C   UNL d   1      14.868  16.021  -3.264  0.00  0.00     0.102 C 
BRANCH  20  21
ATOM     21  C   UNL d   1      14.955  16.436  -2.538  0.00  0.00     0.019 A 
ATOM     22  C   UNL d   1      14.670  17.200  -2.480  0.00  0.00     0.002 A 
ATOM     23  C   UNL d   1      14.756  17.610  -1.762  0.00  0.00     0.000 A 
ATOM     24  C   UNL d   1      15.120  17.256  -1.125  0.00  0.00     0.000 A 
ATOM     25  C   UNL d   1      15.408  16.471  -1.197  0.00  0.00     0.000 A 
ATOM     26  C   UNL d   1      15.319  16.066  -1.916  0.00  0.00     0.002 A 
ENDBRANCH  20  21
ENDBRANCH  18  20
ENDBRANCH   1  17
TORSDOF 6
ENDMDL
