MODEL 1
REMARK VINA RESULT:      81.7      0.000      0.000
REMARK  3 active torsions:
REMARK  status: ('A' for Active; 'I' for Inactive)
REMARK    1  A    between atoms: N_6  and  C_1 
REMARK    2  A    between atoms: C_9  and  C_2 
REMARK       I    between atoms: C_8  and  N_6 
REMARK       I    between atoms: C_11  and  N_7 
REMARK    3  A    between atoms: C_17  and  C_8 
ROOT
ATOM      1  C   UNL d   1     -57.646 -99.239 -44.789  0.00  0.00     0.119 A 
ATOM      2  C   UNL d   1     -58.467 -99.212 -44.747  0.00  0.00     0.084 A 
ATOM      3  C   UNL d   1     -58.116 -99.080 -46.025  0.00  0.00     0.049 A 
ATOM      4  C   UNL d   1     -58.760 -99.112 -45.517  0.00  0.00     0.016 A 
ATOM      5  S   UNL d   1     -57.425 -99.158 -45.583  0.00  0.00    -0.066 SA
ATOM      6  N   UNL d   1     -59.012 -98.918 -47.136  0.00  0.00    -0.272 N 
ATOM      7  C   UNL d   1     -58.249 -98.982 -46.844  0.00  0.00     0.089 A 
ATOM      8  C   UNL d   1     -59.150 -98.821 -47.942  0.00  0.00     0.265 C 
ATOM      9  C   UNL d   1     -59.532 -99.049 -45.802  0.00  0.00     0.020 A 
ATOM     10  C   UNL d   1     -59.658 -98.952 -46.611  0.00  0.00     0.083 A 
ATOM     11  O   UNL d   1     -58.510 -98.788 -48.462  0.00  0.00    -0.267 OA
ATOM     12  C   UNL d   1     -59.913 -98.758 -48.235  0.00  0.00     0.066 C 
ENDROOT
BRANCH   1  13
ATOM     13  N   UNL d   1     -57.121 -99.333 -44.149  0.00  0.00    -0.201 NA
ATOM     14  C   UNL d   1     -56.319 -99.463 -44.300  0.00  0.00     0.280 C 
ATOM     15  O   UNL d   1     -56.029 -99.501 -45.069  0.00  0.00    -0.265 OA
BRANCH  14  16
ATOM     16  C   UNL d   1     -55.799 -99.555 -43.666  0.00  0.00     0.058 A 
ATOM     17  C   UNL d   1     -55.573-100.314 -43.425  0.00  0.00     0.005 A 
ATOM     18  C   UNL d   1     -55.053-100.407 -42.791  0.00  0.00     0.000 A 
ATOM     19  C   UNL d   1     -54.751 -99.742 -42.389  0.00  0.00     0.000 A 
ATOM     20  C   UNL d   1     -54.985 -98.991 -42.640  0.00  0.00     0.000 A 
ATOM     21  C   UNL d   1     -55.505 -98.899 -43.274  0.00  0.00     0.005 A 
ENDBRANCH  14  16
ENDBRANCH   1  13
BRANCH   2  22
ATOM     22  C   UNL d   1     -58.909 -99.272 -44.058  0.00  0.00     0.299 C 
ATOM     23  O   UNL d   1     -59.651 -98.911 -44.022  0.00  0.00    -0.264 OA
ATOM     24  N   UNL d   1     -58.617 -99.687 -43.409  0.00  0.00    -0.102 N 
ENDBRANCH   2  22
TORSDOF 3
ENDMDL
MODEL 2
REMARK VINA RESULT:      83.8      4.440      6.696
REMARK  3 active torsions:
REMARK  status: ('A' for Active; 'I' for Inactive)
REMARK    1  A    between atoms: N_6  and  C_1 
REMARK    2  A    between atoms: C_9  and  C_2 
REMARK       I    between atoms: C_8  and  N_6 
REMARK       I    between atoms: C_11  and  N_7 
REMARK    3  A    between atoms: C_17  and  C_8 
ROOT
ATOM      1  C   UNL d   1     -54.723-101.906 -41.772  0.00  0.00     0.119 A 
ATOM      2  C   UNL d   1     -54.732-101.161 -41.423  0.00  0.00     0.084 A 
ATOM      3  C   UNL d   1     -54.736-102.072 -40.451  0.00  0.00     0.049 A 
ATOM      4  C   UNL d   1     -54.740-101.264 -40.600  0.00  0.00     0.016 A 
ATOM      5  S   UNL d   1     -54.725-102.474 -41.170  0.00  0.00    -0.066 SA
ATOM      6  N   UNL d   1     -54.753-101.803 -39.040  0.00  0.00    -0.272 N 
ATOM      7  C   UNL d   1     -54.743-102.339 -39.659  0.00  0.00     0.089 A 
ATOM      8  C   UNL d   1     -54.759-102.060 -38.258  0.00  0.00     0.265 C 
ATOM      9  C   UNL d   1     -54.751-100.717 -39.982  0.00  0.00     0.020 A 
ATOM     10  C   UNL d   1     -54.757-100.986 -39.203  0.00  0.00     0.083 A 
ATOM     11  O   UNL d   1     -54.755-102.869 -38.096  0.00  0.00    -0.267 OA
ATOM     12  C   UNL d   1     -54.770-101.523 -37.638  0.00  0.00     0.066 C 
ENDROOT
BRANCH   1  13
ATOM     13  N   UNL d   1     -54.713-102.068 -42.589  0.00  0.00    -0.201 NA
ATOM     14  C   UNL d   1     -55.394-101.929 -43.037  0.00  0.00     0.280 C 
ATOM     15  O   UNL d   1     -56.080-101.633 -42.692  0.00  0.00    -0.265 OA
BRANCH  14  16
ATOM     16  C   UNL d   1     -55.384-102.090 -43.846  0.00  0.00     0.058 A 
ATOM     17  C   UNL d   1     -55.891-102.665 -44.159  0.00  0.00     0.005 A 
ATOM     18  C   UNL d   1     -55.881-102.826 -44.968  0.00  0.00     0.000 A 
ATOM     19  C   UNL d   1     -55.364-102.415 -45.477  0.00  0.00     0.000 A 
ATOM     20  C   UNL d   1     -54.864-101.844 -45.151  0.00  0.00     0.000 A 
ATOM     21  C   UNL d   1     -54.874-101.683 -44.342  0.00  0.00     0.005 A 
ENDBRANCH  14  16
ENDBRANCH   1  13
BRANCH   2  22
ATOM     22  C   UNL d   1     -54.733-100.447 -41.828  0.00  0.00     0.299 C 
ATOM     23  O   UNL d   1     -54.748-100.453 -42.654  0.00  0.00    -0.264 OA
ATOM     24  N   UNL d   1     -54.720 -99.733 -41.419  0.00  0.00    -0.102 N 
ENDBRANCH   2  22
TORSDOF 3
ENDMDL
