MODEL 1
REMARK VINA RESULT:      -3.7      0.000      0.000
REMARK  3 active torsions:
REMARK  status: ('A' for Active; 'I' for Inactive)
REMARK    1  A    between atoms: C_7  and  C_2 
REMARK    2  A    between atoms: N_5  and  C_8 
REMARK    3  A    between atoms: C_9  and  C_7 
ROOT
ATOM      1  C   UNL d   1     -41.465-122.223 -51.497  0.00  0.00     0.127 A 
ATOM      2  C   UNL d   1     -41.456-122.520 -52.271  0.00  0.00     0.023 A 
ATOM      3  C   UNL d   1     -41.285-123.313 -52.403  0.00  0.00     0.002 A 
ATOM      4  C   UNL d   1     -41.305-122.717 -50.866  0.00  0.00     0.024 A 
ATOM      5  C   UNL d   1     -41.123-123.815 -51.767  0.00  0.00     0.000 A 
ATOM      6  C   UNL d   1     -41.134-123.511 -50.998  0.00  0.00     0.002 A 
ENDROOT
BRANCH   2   7
ATOM      7  C   UNL d   1     -41.617-122.019 -52.902  0.00  0.00     0.013 C 
BRANCH   7   8
ATOM      8  C   UNL d   1     -41.631-122.318 -53.672  0.00  0.00     0.092 A 
ATOM      9  C   UNL d   1     -42.019-121.980 -54.318  0.00  0.00     0.288 A 
ATOM     10  N   UNL d   1     -41.882-122.466 -54.973  0.00  0.00    -0.163 NA
ATOM     11  O   UNL d   1     -42.462-121.285 -54.307  0.00  0.00    -0.265 OA
ATOM     12  C   UNL d   1     -41.415-123.096 -54.737  0.00  0.00     0.313 A 
ATOM     13  S   UNL d   1     -41.258-123.009 -53.933  0.00  0.00    -0.021 SA
ATOM     14  O   UNL d   1     -41.149-123.711 -55.218  0.00  0.00    -0.258 OA
ENDBRANCH   7   8
ENDBRANCH   2   7
BRANCH   1  15
ATOM     15  N   UNL d   1     -41.637-121.424 -51.366  0.00  0.00    -0.114 N 
ATOM     16  O   UNL d   1     -41.128-120.836 -51.642  0.00  0.00    -0.532 OA
ATOM     17  O   UNL d   1     -42.326-121.215 -50.954  0.00  0.00    -0.532 OA
ENDBRANCH   1  15
TORSDOF 3
ENDMDL
MODEL 2
REMARK VINA RESULT:      -3.4      1.675      3.315
REMARK  3 active torsions:
REMARK  status: ('A' for Active; 'I' for Inactive)
REMARK    1  A    between atoms: C_7  and  C_2 
REMARK    2  A    between atoms: N_5  and  C_8 
REMARK    3  A    between atoms: C_9  and  C_7 
ROOT
ATOM      1  C   UNL d   1     -41.550-122.227 -52.630  0.00  0.00     0.127 A 
ATOM      2  C   UNL d   1     -41.549-122.604 -51.891  0.00  0.00     0.023 A 
ATOM      3  C   UNL d   1     -41.336-123.397 -51.837  0.00  0.00     0.002 A 
ATOM      4  C   UNL d   1     -41.339-122.641 -53.302  0.00  0.00     0.024 A 
ATOM      5  C   UNL d   1     -41.123-123.817 -52.514  0.00  0.00     0.000 A 
ATOM      6  C   UNL d   1     -41.126-123.433 -53.247  0.00  0.00     0.002 A 
ENDROOT
BRANCH   2   7
ATOM      7  C   UNL d   1     -41.762-122.185 -51.218  0.00  0.00     0.013 C 
BRANCH   7   8
ATOM      8  C   UNL d   1     -41.838-122.576 -50.494  0.00  0.00     0.092 A 
ATOM      9  C   UNL d   1     -42.532-122.653 -50.053  0.00  0.00     0.288 A 
ATOM     10  N   UNL d   1     -42.348-123.085 -49.373  0.00  0.00    -0.163 NA
ATOM     11  O   UNL d   1     -43.271-122.353 -50.259  0.00  0.00    -0.265 OA
ATOM     12  C   UNL d   1     -41.551-123.273 -49.391  0.00  0.00     0.313 A 
ATOM     13  S   UNL d   1     -41.231-122.960 -50.083  0.00  0.00    -0.021 SA
ATOM     14  O   UNL d   1     -41.139-123.700 -48.818  0.00  0.00    -0.258 OA
ENDBRANCH   7   8
ENDBRANCH   2   7
BRANCH   1  15
ATOM     15  N   UNL d   1     -41.764-121.430 -52.682  0.00  0.00    -0.114 N 
ATOM     16  O   UNL d   1     -41.320-120.850 -52.297  0.00  0.00    -0.532 OA
ATOM     17  O   UNL d   1     -42.431-121.213 -53.125  0.00  0.00    -0.532 OA
ENDBRANCH   1  15
TORSDOF 3
ENDMDL
MODEL 3
REMARK VINA RESULT:      -3.2      2.469      3.306
REMARK  3 active torsions:
REMARK  status: ('A' for Active; 'I' for Inactive)
REMARK    1  A    between atoms: C_7  and  C_2 
REMARK    2  A    between atoms: N_5  and  C_8 
REMARK    3  A    between atoms: C_9  and  C_7 
ROOT
ATOM      1  C   UNL d   1     -42.385-123.389 -48.680  0.00  0.00     0.127 A 
ATOM      2  C   UNL d   1     -42.261-123.363 -49.499  0.00  0.00     0.023 A 
ATOM      3  C   UNL d   1     -42.871-123.566 -50.012  0.00  0.00     0.002 A 
ATOM      4  C   UNL d   1     -43.112-123.615 -48.382  0.00  0.00     0.024 A 
ATOM      5  C   UNL d   1     -43.606-123.795 -49.714  0.00  0.00     0.000 A 
ATOM      6  C   UNL d   1     -43.722-123.817 -48.895  0.00  0.00     0.002 A 
ENDROOT
BRANCH   2   7
ATOM      7  C   UNL d   1     -41.529-123.135 -49.795  0.00  0.00     0.013 C 
BRANCH   7   8
ATOM      8  C   UNL d   1     -41.414-123.070 -50.610  0.00  0.00     0.092 A 
ATOM      9  C   UNL d   1     -41.361-122.367 -51.040  0.00  0.00     0.288 A 
ATOM     10  N   UNL d   1     -41.247-122.568 -51.833  0.00  0.00    -0.163 NA
ATOM     11  O   UNL d   1     -41.412-121.606 -50.729  0.00  0.00    -0.265 OA
ATOM     12  C   UNL d   1     -41.230-123.385 -51.896  0.00  0.00     0.313 A 
ATOM     13  S   UNL d   1     -41.333-123.700 -51.142  0.00  0.00    -0.021 SA
ATOM     14  O   UNL d   1     -41.128-123.817 -52.591  0.00  0.00    -0.258 OA
ENDBRANCH   7   8
ENDBRANCH   2   7
BRANCH   1  15
ATOM     15  N   UNL d   1     -41.770-123.184 -48.166  0.00  0.00    -0.114 N 
ATOM     16  O   UNL d   1     -41.162-123.719 -48.007  0.00  0.00    -0.532 OA
ATOM     17  O   UNL d   1     -41.766-122.436 -47.807  0.00  0.00    -0.532 OA
ENDBRANCH   1  15
TORSDOF 3
ENDMDL
MODEL 4
REMARK VINA RESULT:      -3.2      1.262      1.849
REMARK  3 active torsions:
REMARK  status: ('A' for Active; 'I' for Inactive)
REMARK    1  A    between atoms: C_7  and  C_2 
REMARK    2  A    between atoms: N_5  and  C_8 
REMARK    3  A    between atoms: C_9  and  C_7 
ROOT
ATOM      1  C   UNL d   1     -41.539-122.474 -51.536  0.00  0.00     0.127 A 
ATOM      2  C   UNL d   1     -41.425-122.269 -52.332  0.00  0.00     0.023 A 
ATOM      3  C   UNL d   1     -41.244-121.493 -52.533  0.00  0.00     0.002 A 
ATOM      4  C   UNL d   1     -41.472-121.905 -50.953  0.00  0.00     0.024 A 
ATOM      5  C   UNL d   1     -41.175-120.917 -51.946  0.00  0.00     0.000 A 
ATOM      6  C   UNL d   1     -41.291-121.129 -51.154  0.00  0.00     0.002 A 
ENDROOT
BRANCH   2   7
ATOM      7  C   UNL d   1     -41.494-122.844 -52.915  0.00  0.00     0.013 C 
BRANCH   7   8
ATOM      8  C   UNL d   1     -41.745-122.635 -53.673  0.00  0.00     0.092 A 
ATOM      9  C   UNL d   1     -41.575-123.040 -54.372  0.00  0.00     0.288 A 
ATOM     10  N   UNL d   1     -41.939-122.633 -54.992  0.00  0.00    -0.163 NA
ATOM     11  O   UNL d   1     -41.123-123.726 -54.435  0.00  0.00    -0.265 OA
ATOM     12  C   UNL d   1     -42.331-121.983 -54.682  0.00  0.00     0.313 A 
ATOM     13  S   UNL d   1     -42.214-121.980 -53.867  0.00  0.00    -0.021 SA
ATOM     14  O   UNL d   1     -42.767-121.428 -55.110  0.00  0.00    -0.258 OA
ENDBRANCH   7   8
ENDBRANCH   2   7
BRANCH   1  15
ATOM     15  N   UNL d   1     -41.721-123.256 -51.336  0.00  0.00    -0.114 N 
ATOM     16  O   UNL d   1     -41.150-123.743 -50.992  0.00  0.00    -0.532 OA
ATOM     17  O   UNL d   1     -42.482-123.550 -51.481  0.00  0.00    -0.532 OA
ENDBRANCH   1  15
TORSDOF 3
ENDMDL
MODEL 5
REMARK VINA RESULT:      -3.0      2.108      3.096
REMARK  3 active torsions:
REMARK  status: ('A' for Active; 'I' for Inactive)
REMARK    1  A    between atoms: C_7  and  C_2 
REMARK    2  A    between atoms: N_5  and  C_8 
REMARK    3  A    between atoms: C_9  and  C_7 
ROOT
ATOM      1  C   UNL d   1     -42.660-123.102 -49.281  0.00  0.00     0.127 A 
ATOM      2  C   UNL d   1     -42.014-123.206 -49.790  0.00  0.00     0.023 A 
ATOM      3  C   UNL d   1     -41.250-123.204 -49.486  0.00  0.00     0.002 A 
ATOM      4  C   UNL d   1     -42.539-122.999 -48.480  0.00  0.00     0.024 A 
ATOM      5  C   UNL d   1     -41.124-123.100 -48.677  0.00  0.00     0.000 A 
ATOM      6  C   UNL d   1     -41.775-122.998 -48.176  0.00  0.00     0.002 A 
ENDROOT
BRANCH   2   7
ATOM      7  C   UNL d   1     -42.140-123.310 -50.595  0.00  0.00     0.013 C 
BRANCH   7   8
ATOM      8  C   UNL d   1     -41.784-122.799 -51.138  0.00  0.00     0.092 A 
ATOM      9  C   UNL d   1     -41.448-123.013 -51.861  0.00  0.00     0.288 A 
ATOM     10  N   UNL d   1     -41.161-122.325 -52.216  0.00  0.00    -0.163 NA
ATOM     11  O   UNL d   1     -41.408-123.777 -52.167  0.00  0.00    -0.265 OA
ATOM     12  C   UNL d   1     -41.317-121.691 -51.721  0.00  0.00     0.313 A 
ATOM     13  S   UNL d   1     -41.702-121.979 -51.053  0.00  0.00    -0.021 SA
ATOM     14  O   UNL d   1     -41.123-120.902 -51.865  0.00  0.00    -0.258 OA
ENDBRANCH   7   8
ENDBRANCH   2   7
BRANCH   1  15
ATOM     15  N   UNL d   1     -43.428-123.104 -49.589  0.00  0.00    -0.114 N 
ATOM     16  O   UNL d   1     -43.858-122.402 -49.646  0.00  0.00    -0.532 OA
ATOM     17  O   UNL d   1     -43.768-123.817 -49.842  0.00  0.00    -0.532 OA
ENDBRANCH   1  15
TORSDOF 3
ENDMDL
MODEL 6
REMARK VINA RESULT:      -1.1      1.119      3.028
REMARK  3 active torsions:
REMARK  status: ('A' for Active; 'I' for Inactive)
REMARK    1  A    between atoms: C_7  and  C_2 
REMARK    2  A    between atoms: N_5  and  C_8 
REMARK    3  A    between atoms: C_9  and  C_7 
ROOT
ATOM      1  C   UNL d   1     -41.875-122.302 -54.340  0.00  0.00     0.127 A 
ATOM      2  C   UNL d   1     -41.650-122.541 -53.578  0.00  0.00     0.023 A 
ATOM      3  C   UNL d   1     -41.275-123.265 -53.471  0.00  0.00     0.002 A 
ATOM      4  C   UNL d   1     -41.726-122.784 -54.982  0.00  0.00     0.024 A 
ATOM      5  C   UNL d   1     -41.122-123.754 -54.118  0.00  0.00     0.000 A 
ATOM      6  C   UNL d   1     -41.351-123.508 -54.875  0.00  0.00     0.002 A 
ENDROOT
BRANCH   2   7
ATOM      7  C   UNL d   1     -41.802-122.053 -52.935  0.00  0.00     0.013 C 
BRANCH   7   8
ATOM      8  C   UNL d   1     -41.582-122.291 -52.175  0.00  0.00     0.092 A 
ATOM      9  C   UNL d   1     -41.270-121.806 -51.584  0.00  0.00     0.288 A 
ATOM     10  N   UNL d   1     -41.135-122.279 -50.920  0.00  0.00    -0.163 NA
ATOM     11  O   UNL d   1     -41.123-120.998 -51.649  0.00  0.00    -0.265 OA
ATOM     12  C   UNL d   1     -41.360-123.047 -51.096  0.00  0.00     0.313 A 
ATOM     13  S   UNL d   1     -41.637-123.059 -51.871  0.00  0.00    -0.021 SA
ATOM     14  O   UNL d   1     -41.316-123.695 -50.588  0.00  0.00    -0.258 OA
ENDBRANCH   7   8
ENDBRANCH   2   7
BRANCH   1  15
ATOM     15  N   UNL d   1     -42.252-121.573 -54.446  0.00  0.00    -0.114 N 
ATOM     16  O   UNL d   1     -41.816-120.901 -54.645  0.00  0.00    -0.532 OA
ATOM     17  O   UNL d   1     -43.074-121.518 -54.350  0.00  0.00    -0.532 OA
ENDBRANCH   1  15
TORSDOF 3
ENDMDL
