MODEL 1
REMARK VINA RESULT:      51.6      0.000      0.000
REMARK  3 active torsions:
REMARK  status: ('A' for Active; 'I' for Inactive)
REMARK    1  A    between atoms: N_5  and  C_2 
REMARK    2  A    between atoms: C_8  and  C_3 
REMARK       I    between atoms: C_7  and  N_5 
REMARK    3  A    between atoms: C_10  and  C_7 
ROOT
ATOM      1  N   UNL d   1     -49.946  26.403  33.802  0.00  0.00    -0.200 NA
ATOM      2  C   UNL d   1     -50.070  27.210  33.779  0.00  0.00     0.216 A 
ATOM      3  C   UNL d   1     -50.631  26.026  33.522  0.00  0.00     0.172 A 
ATOM      4  N   UNL d   1     -51.177  26.613  33.328  0.00  0.00    -0.187 NA
ATOM      5  S   UNL d   1     -50.833  27.352  33.486  0.00  0.00     0.054 SA
ENDROOT
BRANCH   2   6
ATOM      6  N   UNL d   1     -49.528  27.789  34.009  0.00  0.00    -0.181 NA
ATOM      7  C   UNL d   1     -49.111  27.703  34.711  0.00  0.00     0.281 C 
ATOM      8  O   UNL d   1     -49.233  27.040  35.185  0.00  0.00    -0.265 OA
BRANCH   7   9
ATOM      9  C   UNL d   1     -48.575  28.275  34.938  0.00  0.00     0.058 A 
ATOM     10  C   UNL d   1     -47.867  28.377  34.522  0.00  0.00     0.005 A 
ATOM     11  C   UNL d   1     -47.325  28.956  34.752  0.00  0.00     0.000 A 
ATOM     12  C   UNL d   1     -47.493  29.432  35.398  0.00  0.00     0.000 A 
ATOM     13  C   UNL d   1     -48.190  29.342  35.817  0.00  0.00     0.000 A 
ATOM     14  C   UNL d   1     -48.736  28.758  35.585  0.00  0.00     0.005 A 
ENDBRANCH   7   9
ENDBRANCH   2   6
BRANCH   3  15
ATOM     15  C   UNL d   1     -50.748  25.219  33.451  0.00  0.00     0.036 A 
ATOM     16  C   UNL d   1     -50.101  24.709  33.452  0.00  0.00     0.003 A 
ATOM     17  C   UNL d   1     -50.218  23.891  33.379  0.00  0.00     0.000 A 
ATOM     18  C   UNL d   1     -50.985  23.590  33.306  0.00  0.00     0.000 A 
ATOM     19  C   UNL d   1     -51.636  24.105  33.306  0.00  0.00     0.000 A 
ATOM     20  C   UNL d   1     -51.512  24.922  33.379  0.00  0.00     0.003 A 
ENDBRANCH   3  15
TORSDOF 3
ENDMDL
