MODEL 1
REMARK VINA RESULT:      -9.4      0.000      0.000
REMARK  4 active torsions:
REMARK  status: ('A' for Active; 'I' for Inactive)
REMARK    1  A    between atoms: C_2  and  N_1 
REMARK    2  A    between atoms: C_14  and  C_7 
REMARK    3  A    between atoms: O_20  and  C_14 
REMARK    4  A    between atoms: C_23  and  O_20 
ROOT
ATOM      1  C   UNL d   1      52.664  33.916  53.617  0.00  0.00     0.105 A 
ATOM      2  C   UNL d   1      53.106  33.217  53.534  0.00  0.00     0.086 A 
ATOM      3  S   UNL d   1      53.007  34.380  54.198  0.00  0.00    -0.069 SA
ATOM      4  C   UNL d   1      53.720  33.288  54.087  0.00  0.00     0.013 A 
ATOM      5  C   UNL d   1      53.657  33.993  54.487  0.00  0.00     0.031 A 
ATOM      6  C   UNL d   1      54.343  32.790  54.282  0.00  0.00     0.001 A 
ATOM      7  C   UNL d   1      54.180  34.205  55.055  0.00  0.00     0.006 A 
ATOM      8  C   UNL d   1      54.891  32.996  54.866  0.00  0.00     0.000 A 
ATOM      9  C   UNL d   1      54.809  33.706  55.254  0.00  0.00     0.001 A 
ENDROOT
BRANCH   1  10
ATOM     10  N   UNL d   1      51.989  34.026  53.130  0.00  0.00    -0.236 N 
ATOM     11  C   UNL d   1      51.235  33.892  53.426  0.00  0.00     0.266 A 
ATOM     12  C   UNL d   1      50.724  34.048  52.818  0.00  0.00     0.069 A 
ATOM     13  O   UNL d   1      51.065  33.642  54.210  0.00  0.00    -0.267 OA
ATOM     14  C   UNL d   1      49.904  34.012  52.777  0.00  0.00     0.165 A 
ATOM     15  C   UNL d   1      51.162  34.279  52.144  0.00  0.00     0.069 A 
ATOM     16  C   UNL d   1      49.506  34.203  52.079  0.00  0.00     0.006 A 
ATOM     17  O   UNL d   1      50.570  34.223  52.214  0.00  0.00    -0.341 OA
ATOM     18  C   UNL d   1      49.945  34.435  51.405  0.00  0.00     0.006 A 
ATOM     19  C   UNL d   1      50.767  34.469  51.450  0.00  0.00     0.165 A 
ATOM     20  C   UNL d   1      51.940  34.264  52.342  0.00  0.00     0.266 A 
ATOM     21  O   UNL d   1      52.472  34.422  51.927  0.00  0.00    -0.267 OA
ENDBRANCH   1  10
BRANCH   2  22
ATOM     22  C   UNL d   1      52.968  32.585  53.015  0.00  0.00     0.302 C 
ATOM     23  O   UNL d   1      53.040  32.591  52.480  0.00  0.00    -0.259 OA
BRANCH  22  24
ATOM     24  O   UNL d   1      52.690  31.854  53.334  0.00  0.00    -0.271 OA
BRANCH  24  25
ATOM     25  C   UNL d   1      52.743  31.187  52.883  0.00  0.00     0.126 C 
ATOM     26  C   UNL d   1      52.438  30.475  53.202  0.00  0.00     0.029 C 
ENDBRANCH  24  25
ENDBRANCH  22  24
ENDBRANCH   2  22
TORSDOF 4
ENDMDL
MODEL 2
REMARK VINA RESULT:      -8.3      1.616      4.029
REMARK  4 active torsions:
REMARK  status: ('A' for Active; 'I' for Inactive)
REMARK    1  A    between atoms: C_2  and  N_1 
REMARK    2  A    between atoms: C_14  and  C_7 
REMARK    3  A    between atoms: O_20  and  C_14 
REMARK    4  A    between atoms: C_23  and  O_20 
ROOT
ATOM      1  C   UNL d   1      53.811  31.504  53.896  0.00  0.00     0.105 A 
ATOM      2  C   UNL d   1      53.174  31.586  53.368  0.00  0.00     0.086 A 
ATOM      3  S   UNL d   1      53.921  30.709  54.059  0.00  0.00    -0.069 SA
ATOM      4  C   UNL d   1      52.914  30.810  53.228  0.00  0.00     0.013 A 
ATOM      5  C   UNL d   1      53.369  30.283  53.648  0.00  0.00     0.031 A 
ATOM      6  C   UNL d   1      52.309  30.511  52.762  0.00  0.00     0.001 A 
ATOM      7  C   UNL d   1      53.238  29.493  53.615  0.00  0.00     0.006 A 
ATOM      8  C   UNL d   1      52.163  29.697  52.719  0.00  0.00     0.000 A 
ATOM      9  C   UNL d   1      52.629  29.187  53.146  0.00  0.00     0.001 A 
ENDROOT
BRANCH   1  10
ATOM     10  N   UNL d   1      54.209  32.195  54.156  0.00  0.00    -0.236 N 
ATOM     11  C   UNL d   1      54.085  32.488  54.913  0.00  0.00     0.266 A 
ATOM     12  C   UNL d   1      54.549  33.149  54.978  0.00  0.00     0.069 A 
ATOM     13  O   UNL d   1      53.572  32.143  55.482  0.00  0.00    -0.267 OA
ATOM     14  C   UNL d   1      54.659  33.674  55.600  0.00  0.00     0.165 A 
ATOM     15  C   UNL d   1      54.960  33.266  54.258  0.00  0.00     0.069 A 
ATOM     16  C   UNL d   1      55.172  34.317  55.525  0.00  0.00     0.006 A 
ATOM     17  O   UNL d   1      54.973  33.588  54.764  0.00  0.00    -0.341 OA
ATOM     18  C   UNL d   1      55.584  34.434  54.806  0.00  0.00     0.006 A 
ATOM     19  C   UNL d   1      55.470  33.905  54.184  0.00  0.00     0.165 A 
ATOM     20  C   UNL d   1      54.747  32.677  53.757  0.00  0.00     0.266 A 
ATOM     21  O   UNL d   1      54.974  32.589  53.108  0.00  0.00    -0.267 OA
ENDBRANCH   1  10
BRANCH   2  22
ATOM     22  C   UNL d   1      52.862  32.285  53.049  0.00  0.00     0.302 C 
ATOM     23  O   UNL d   1      53.079  32.577  52.651  0.00  0.00    -0.259 OA
BRANCH  22  24
ATOM     24  O   UNL d   1      52.136  32.584  53.362  0.00  0.00    -0.271 OA
BRANCH  24  25
ATOM     25  C   UNL d   1      51.731  33.142  52.943  0.00  0.00     0.126 C 
ATOM     26  C   UNL d   1      51.081  33.514  53.317  0.00  0.00     0.029 C 
ENDBRANCH  24  25
ENDBRANCH  22  24
ENDBRANCH   2  22
TORSDOF 4
ENDMDL
MODEL 3
REMARK VINA RESULT:      -7.9      1.173      2.050
REMARK  4 active torsions:
REMARK  status: ('A' for Active; 'I' for Inactive)
REMARK    1  A    between atoms: C_2  and  N_1 
REMARK    2  A    between atoms: C_14  and  C_7 
REMARK    3  A    between atoms: O_20  and  C_14 
REMARK    4  A    between atoms: C_23  and  O_20 
ROOT
ATOM      1  C   UNL d   1      52.098  33.219  52.963  0.00  0.00     0.105 A 
ATOM      2  C   UNL d   1      52.742  33.663  53.243  0.00  0.00     0.086 A 
ATOM      3  S   UNL d   1      52.288  32.423  53.002  0.00  0.00    -0.069 SA
ATOM      4  C   UNL d   1      53.316  33.100  53.447  0.00  0.00     0.013 A 
ATOM      5  C   UNL d   1      53.037  32.350  53.300  0.00  0.00     0.031 A 
ATOM      6  C   UNL d   1      54.073  33.175  53.755  0.00  0.00     0.001 A 
ATOM      7  C   UNL d   1      53.479  31.698  53.447  0.00  0.00     0.006 A 
ATOM      8  C   UNL d   1      54.541  32.511  53.912  0.00  0.00     0.000 A 
ATOM      9  C   UNL d   1      54.243  31.770  53.757  0.00  0.00     0.001 A 
ENDROOT
BRANCH   1  10
ATOM     10  N   UNL d   1      51.410  33.624  52.706  0.00  0.00    -0.236 N 
ATOM     11  C   UNL d   1      50.765  33.710  53.205  0.00  0.00     0.266 A 
ATOM     12  C   UNL d   1      50.209  34.123  52.786  0.00  0.00     0.069 A 
ATOM     13  O   UNL d   1      50.725  33.416  53.991  0.00  0.00    -0.267 OA
ATOM     14  C   UNL d   1      49.454  34.375  52.991  0.00  0.00     0.165 A 
ATOM     15  C   UNL d   1      50.510  34.293  52.024  0.00  0.00     0.069 A 
ATOM     16  C   UNL d   1      48.987  34.794  52.453  0.00  0.00     0.006 A 
ATOM     17  O   UNL d   1      49.979  34.431  52.266  0.00  0.00    -0.341 OA
ATOM     18  C   UNL d   1      49.289  34.964  51.691  0.00  0.00     0.006 A 
ATOM     19  C   UNL d   1      50.047  34.709  51.490  0.00  0.00     0.165 A 
ATOM     20  C   UNL d   1      51.250  33.984  51.981  0.00  0.00     0.266 A 
ATOM     21  O   UNL d   1      51.675  34.013  51.434  0.00  0.00    -0.267 OA
ENDBRANCH   1  10
BRANCH   2  22
ATOM     22  C   UNL d   1      52.803  34.488  53.307  0.00  0.00     0.302 C 
ATOM     23  O   UNL d   1      52.862  34.835  52.897  0.00  0.00    -0.259 OA
BRANCH  22  24
ATOM     24  O   UNL d   1      52.774  34.837  54.076  0.00  0.00    -0.271 OA
BRANCH  24  25
ATOM     25  C   UNL d   1      53.063  35.584  54.176  0.00  0.00     0.126 C 
ATOM     26  C   UNL d   1      52.915  35.964  54.908  0.00  0.00     0.029 C 
ENDBRANCH  24  25
ENDBRANCH  22  24
ENDBRANCH   2  22
TORSDOF 4
ENDMDL
MODEL 4
REMARK VINA RESULT:      -7.6      1.650      3.946
REMARK  4 active torsions:
REMARK  status: ('A' for Active; 'I' for Inactive)
REMARK    1  A    between atoms: C_2  and  N_1 
REMARK    2  A    between atoms: C_14  and  C_7 
REMARK    3  A    between atoms: O_20  and  C_14 
REMARK    4  A    between atoms: C_23  and  O_20 
ROOT
ATOM      1  C   UNL d   1      52.590  32.368  53.434  0.00  0.00     0.105 A 
ATOM      2  C   UNL d   1      53.167  32.966  53.448  0.00  0.00     0.086 A 
ATOM      3  S   UNL d   1      51.863  32.705  53.266  0.00  0.00    -0.069 SA
ATOM      4  C   UNL d   1      52.752  33.666  53.282  0.00  0.00     0.013 A 
ATOM      5  C   UNL d   1      51.963  33.503  53.172  0.00  0.00     0.031 A 
ATOM      6  C   UNL d   1      52.997  34.446  53.215  0.00  0.00     0.001 A 
ATOM      7  C   UNL d   1      51.432  34.079  53.004  0.00  0.00     0.006 A 
ATOM      8  C   UNL d   1      52.460  35.051  53.042  0.00  0.00     0.000 A 
ATOM      9  C   UNL d   1      51.675  34.867  52.936  0.00  0.00     0.001 A 
ENDROOT
BRANCH   1  10
ATOM     10  N   UNL d   1      52.827  31.577  53.582  0.00  0.00    -0.236 N 
ATOM     11  C   UNL d   1      52.922  31.047  52.963  0.00  0.00     0.266 A 
ATOM     12  C   UNL d   1      53.150  30.347  53.299  0.00  0.00     0.069 A 
ATOM     13  O   UNL d   1      52.799  31.230  52.152  0.00  0.00    -0.267 OA
ATOM     14  C   UNL d   1      53.327  29.617  52.964  0.00  0.00     0.165 A 
ATOM     15  C   UNL d   1      53.196  30.443  54.129  0.00  0.00     0.069 A 
ATOM     16  C   UNL d   1      53.550  28.977  53.437  0.00  0.00     0.006 A 
ATOM     17  O   UNL d   1      53.304  29.959  53.794  0.00  0.00    -0.341 OA
ATOM     18  C   UNL d   1      53.596  29.074  54.267  0.00  0.00     0.006 A 
ATOM     19  C   UNL d   1      53.417  29.808  54.599  0.00  0.00     0.165 A 
ATOM     20  C   UNL d   1      52.996  31.202  54.297  0.00  0.00     0.266 A 
ATOM     21  O   UNL d   1      52.971  31.489  54.927  0.00  0.00    -0.267 OA
ENDBRANCH   1  10
BRANCH   2  22
ATOM     22  C   UNL d   1      53.980  32.888  53.594  0.00  0.00     0.302 C 
ATOM     23  O   UNL d   1      54.344  32.670  53.260  0.00  0.00    -0.259 OA
BRANCH  22  24
ATOM     24  O   UNL d   1      54.287  33.171  54.328  0.00  0.00    -0.271 OA
BRANCH  24  25
ATOM     25  C   UNL d   1      55.074  33.341  54.382  0.00  0.00     0.126 C 
ATOM     26  C   UNL d   1      55.350  33.687  55.093  0.00  0.00     0.029 C 
ENDBRANCH  24  25
ENDBRANCH  22  24
ENDBRANCH   2  22
TORSDOF 4
ENDMDL
MODEL 5
REMARK VINA RESULT:      -7.5      1.156      3.292
REMARK  4 active torsions:
REMARK  status: ('A' for Active; 'I' for Inactive)
REMARK    1  A    between atoms: C_2  and  N_1 
REMARK    2  A    between atoms: C_14  and  C_7 
REMARK    3  A    between atoms: O_20  and  C_14 
REMARK    4  A    between atoms: C_23  and  O_20 
ROOT
ATOM      1  C   UNL d   1      53.342  33.101  53.835  0.00  0.00     0.105 A 
ATOM      2  C   UNL d   1      52.654  33.567  53.866  0.00  0.00     0.086 A 
ATOM      3  S   UNL d   1      53.990  33.574  53.999  0.00  0.00    -0.069 SA
ATOM      4  C   UNL d   1      52.922  34.330  54.054  0.00  0.00     0.013 A 
ATOM      5  C   UNL d   1      53.731  34.330  54.134  0.00  0.00     0.031 A 
ATOM      6  C   UNL d   1      52.525  35.039  54.165  0.00  0.00     0.001 A 
ATOM      7  C   UNL d   1      54.138  34.996  54.315  0.00  0.00     0.006 A 
ATOM      8  C   UNL d   1      52.932  35.734  54.352  0.00  0.00     0.000 A 
ATOM      9  C   UNL d   1      53.741  35.713  54.427  0.00  0.00     0.001 A 
ENDROOT
BRANCH   1  10
ATOM     10  N   UNL d   1      53.267  32.286  53.655  0.00  0.00    -0.236 N 
ATOM     11  C   UNL d   1      53.342  31.720  54.245  0.00  0.00     0.266 A 
ATOM     12  C   UNL d   1      53.241  31.002  53.883  0.00  0.00     0.069 A 
ATOM     13  O   UNL d   1      53.493  31.888  55.054  0.00  0.00    -0.267 OA
ATOM     14  C   UNL d   1      53.254  30.238  54.184  0.00  0.00     0.165 A 
ATOM     15  C   UNL d   1      53.103  31.124  53.066  0.00  0.00     0.069 A 
ATOM     16  C   UNL d   1      53.133  29.587  53.690  0.00  0.00     0.006 A 
ATOM     17  O   UNL d   1      53.131  30.613  53.378  0.00  0.00    -0.341 OA
ATOM     18  C   UNL d   1      52.995  29.709  52.873  0.00  0.00     0.006 A 
ATOM     19  C   UNL d   1      52.983  30.478  52.576  0.00  0.00     0.165 A 
ATOM     20  C   UNL d   1      53.121  31.916  52.933  0.00  0.00     0.266 A 
ATOM     21  O   UNL d   1      53.029  32.230  52.321  0.00  0.00    -0.267 OA
ENDBRANCH   1  10
BRANCH   2  22
ATOM     22  C   UNL d   1      51.870  33.329  53.738  0.00  0.00     0.302 C 
ATOM     23  O   UNL d   1      51.586  32.989  54.047  0.00  0.00    -0.259 OA
BRANCH  22  24
ATOM     24  O   UNL d   1      51.459  33.634  53.066  0.00  0.00    -0.271 OA
BRANCH  24  25
ATOM     25  C   UNL d   1      50.653  33.621  53.063  0.00  0.00     0.126 C 
ATOM     26  C   UNL d   1      50.258  34.006  52.431  0.00  0.00     0.029 C 
ENDBRANCH  24  25
ENDBRANCH  22  24
ENDBRANCH   2  22
TORSDOF 4
ENDMDL
MODEL 6
REMARK VINA RESULT:      -7.2      1.285      2.473
REMARK  4 active torsions:
REMARK  status: ('A' for Active; 'I' for Inactive)
REMARK    1  A    between atoms: C_2  and  N_1 
REMARK    2  A    between atoms: C_14  and  C_7 
REMARK    3  A    between atoms: O_20  and  C_14 
REMARK    4  A    between atoms: C_23  and  O_20 
ROOT
ATOM      1  C   UNL d   1      52.430  31.740  53.119  0.00  0.00     0.105 A 
ATOM      2  C   UNL d   1      53.184  31.737  53.467  0.00  0.00     0.086 A 
ATOM      3  S   UNL d   1      52.195  30.966  52.988  0.00  0.00    -0.069 SA
ATOM      4  C   UNL d   1      53.384  30.934  53.536  0.00  0.00     0.013 A 
ATOM      5  C   UNL d   1      52.782  30.471  53.244  0.00  0.00     0.031 A 
ATOM      6  C   UNL d   1      54.050  30.558  53.832  0.00  0.00     0.001 A 
ATOM      7  C   UNL d   1      52.828  29.671  53.242  0.00  0.00     0.006 A 
ATOM      8  C   UNL d   1      54.111  29.732  53.835  0.00  0.00     0.000 A 
ATOM      9  C   UNL d   1      53.498  29.288  53.539  0.00  0.00     0.001 A 
ENDROOT
BRANCH   1  10
ATOM     10  N   UNL d   1      52.058  32.477  52.970  0.00  0.00    -0.236 N 
ATOM     11  C   UNL d   1      51.412  32.717  53.416  0.00  0.00     0.266 A 
ATOM     12  C   UNL d   1      51.197  33.442  53.128  0.00  0.00     0.069 A 
ATOM     13  O   UNL d   1      51.070  32.271  54.041  0.00  0.00    -0.267 OA
ATOM     14  C   UNL d   1      50.594  33.955  53.349  0.00  0.00     0.165 A 
ATOM     15  C   UNL d   1      51.710  33.652  52.502  0.00  0.00     0.069 A 
ATOM     16  C   UNL d   1      50.488  34.676  52.960  0.00  0.00     0.006 A 
ATOM     17  O   UNL d   1      51.247  33.953  52.734  0.00  0.00    -0.341 OA
ATOM     18  C   UNL d   1      51.001  34.886  52.334  0.00  0.00     0.006 A 
ATOM     19  C   UNL d   1      51.605  34.368  52.116  0.00  0.00     0.165 A 
ATOM     20  C   UNL d   1      52.238  33.054  52.409  0.00  0.00     0.266 A 
ATOM     21  O   UNL d   1      52.751  33.029  51.943  0.00  0.00    -0.267 OA
ENDBRANCH   1  10
BRANCH   2  22
ATOM     22  C   UNL d   1      53.642  32.389  53.698  0.00  0.00     0.302 C 
ATOM     23  O   UNL d   1      53.907  32.724  53.368  0.00  0.00    -0.259 OA
BRANCH  22  24
ATOM     24  O   UNL d   1      53.714  32.561  54.522  0.00  0.00    -0.271 OA
BRANCH  24  25
ATOM     25  C   UNL d   1      54.323  33.028  54.771  0.00  0.00     0.126 C 
ATOM     26  C   UNL d   1      54.276  33.351  55.543  0.00  0.00     0.029 C 
ENDBRANCH  24  25
ENDBRANCH  22  24
ENDBRANCH   2  22
TORSDOF 4
ENDMDL
MODEL 7
REMARK VINA RESULT:      -7.0      1.071      3.602
REMARK  4 active torsions:
REMARK  status: ('A' for Active; 'I' for Inactive)
REMARK    1  A    between atoms: C_2  and  N_1 
REMARK    2  A    between atoms: C_14  and  C_7 
REMARK    3  A    between atoms: O_20  and  C_14 
REMARK    4  A    between atoms: C_23  and  O_20 
ROOT
ATOM      1  C   UNL d   1      52.415  34.015  53.531  0.00  0.00     0.105 A 
ATOM      2  C   UNL d   1      52.160  33.413  53.018  0.00  0.00     0.086 A 
ATOM      3  S   UNL d   1      51.846  34.604  53.553  0.00  0.00    -0.069 SA
ATOM      4  C   UNL d   1      51.422  33.670  52.739  0.00  0.00     0.013 A 
ATOM      5  C   UNL d   1      51.236  34.391  53.066  0.00  0.00     0.031 A 
ATOM      6  C   UNL d   1      50.884  33.333  52.219  0.00  0.00     0.001 A 
ATOM      7  C   UNL d   1      50.551  34.770  52.892  0.00  0.00     0.006 A 
ATOM      8  C   UNL d   1      50.174  33.712  52.031  0.00  0.00     0.000 A 
ATOM      9  C   UNL d   1      50.006  34.433  52.368  0.00  0.00     0.001 A 
ENDROOT
BRANCH   1  10
ATOM     10  N   UNL d   1      53.156  33.929  53.915  0.00  0.00    -0.236 N 
ATOM     11  C   UNL d   1      53.193  33.738  54.712  0.00  0.00     0.266 A 
ATOM     12  C   UNL d   1      53.980  33.701  54.898  0.00  0.00     0.069 A 
ATOM     13  O   UNL d   1      52.525  33.614  55.207  0.00  0.00    -0.267 OA
ATOM     14  C   UNL d   1      54.362  33.534  55.607  0.00  0.00     0.165 A 
ATOM     15  C   UNL d   1      54.432  33.868  54.214  0.00  0.00     0.069 A 
ATOM     16  C   UNL d   1      55.187  33.530  55.653  0.00  0.00     0.006 A 
ATOM     17  O   UNL d   1      54.614  33.737  54.770  0.00  0.00    -0.341 OA
ATOM     18  C   UNL d   1      55.638  33.698  54.969  0.00  0.00     0.006 A 
ATOM     19  C   UNL d   1      55.251  33.865  54.260  0.00  0.00     0.165 A 
ATOM     20  C   UNL d   1      53.919  34.008  53.613  0.00  0.00     0.266 A 
ATOM     21  O   UNL d   1      54.088  34.166  52.959  0.00  0.00    -0.267 OA
ENDBRANCH   1  10
BRANCH   2  22
ATOM     22  C   UNL d   1      52.552  32.709  52.822  0.00  0.00     0.302 C 
ATOM     23  O   UNL d   1      52.976  32.662  52.492  0.00  0.00    -0.259 OA
BRANCH  22  24
ATOM     24  O   UNL d   1      52.278  31.986  53.162  0.00  0.00    -0.271 OA
BRANCH  24  25
ATOM     25  C   UNL d   1      52.527  31.287  52.846  0.00  0.00     0.126 C 
ATOM     26  C   UNL d   1      52.436  30.594  53.309  0.00  0.00     0.029 C 
ENDBRANCH  24  25
ENDBRANCH  22  24
ENDBRANCH   2  22
TORSDOF 4
ENDMDL
