MODEL 1
REMARK VINA RESULT:      -0.6      0.000      0.000
REMARK  4 active torsions:
REMARK  status: ('A' for Active; 'I' for Inactive)
REMARK    1  A    between atoms: N_4  and  C_2 
REMARK       I    between atoms: C_3  and  N_4 
REMARK    2  A    between atoms: C_10  and  C_3 
REMARK    3  A    between atoms: C_12  and  N_4 
REMARK    4  A    between atoms: O_18  and  C_15 
ROOT
ATOM      1  C   UNL d   1      58.656  -1.865  29.873  0.00  0.00     0.265 C 
ATOM      2  N   UNL d   1      58.666  -0.615  29.914  0.00  0.00    -0.274 N 
ATOM      3  O   UNL d   1      58.002  -2.171  30.219  0.00  0.00    -0.267 OA
ENDROOT
BRANCH   2   4
ATOM      4  C   UNL d   1      59.291  -0.269  29.586  0.00  0.00     0.079 A 
ATOM      5  C   UNL d   1      59.912   0.024  29.968  0.00  0.00     0.116 A 
ATOM      6  S   UNL d   1      60.406   0.317  29.437  0.00  0.00     0.213 S 
ATOM      7  C   UNL d   1      60.087   0.204  28.729  0.00  0.00     0.100 A 
ATOM      8  O   UNL d   1      60.900   0.611  28.905  0.00  0.00    -0.217 OA
ATOM      9  O   UNL d   1      60.749   0.444  30.123  0.00  0.00    -0.217 OA
ATOM     10  C   UNL d   1      59.403  -0.155  28.821  0.00  0.00     0.030 A 
ENDBRANCH   2   4
BRANCH   2  11
ATOM     11  C   UNL d   1      58.057  -0.185  30.262  0.00  0.00     0.067 A 
ATOM     12  C   UNL d   1      57.504   0.183  29.786  0.00  0.00     0.018 A 
ATOM     13  C   UNL d   1      56.883   0.623  30.138  0.00  0.00     0.002 A 
ATOM     14  C   UNL d   1      56.831   0.682  30.958  0.00  0.00     0.000 A 
ATOM     15  C   UNL d   1      57.390   0.309  31.436  0.00  0.00     0.002 A 
ATOM     16  C   UNL d   1      58.004  -0.125  31.098  0.00  0.00     0.018 A 
ENDBRANCH   2  11
BRANCH   1  17
ATOM     17  C   UNL d   1      59.255  -2.317  29.530  0.00  0.00     0.057 A 
ATOM     18  C   UNL d   1      59.136  -2.692  28.791  0.00  0.00     0.007 A 
ATOM     19  C   UNL d   1      59.741  -3.141  28.458  0.00  0.00     0.024 A 
ATOM     20  C   UNL d   1      60.467  -3.225  28.847  0.00  0.00     0.094 A 
ATOM     21  C   UNL d   1      60.593  -2.859  29.576  0.00  0.00     0.024 A 
ATOM     22  C   UNL d   1      59.986  -2.399  29.928  0.00  0.00     0.007 A 
BRANCH  20  23
ATOM     23  O   UNL d   1      61.074  -3.682  28.501  0.00  0.00    -0.328 OA
ATOM     24  C   UNL d   1      61.005  -4.515  28.455  0.00  0.00     0.181 C 
ENDBRANCH  20  23
ENDBRANCH   1  17
TORSDOF 4
ENDMDL
MODEL 2
REMARK VINA RESULT:       2.3      1.638      4.058
REMARK  4 active torsions:
REMARK  status: ('A' for Active; 'I' for Inactive)
REMARK    1  A    between atoms: N_4  and  C_2 
REMARK       I    between atoms: C_3  and  N_4 
REMARK    2  A    between atoms: C_10  and  C_3 
REMARK    3  A    between atoms: C_12  and  N_4 
REMARK    4  A    between atoms: O_18  and  C_15 
ROOT
ATOM      1  C   UNL d   1      58.621   0.047  30.709  0.00  0.00     0.265 C 
ATOM      2  N   UNL d   1      59.070  -0.560  29.712  0.00  0.00    -0.274 N 
ATOM      3  O   UNL d   1      59.068   0.682  30.901  0.00  0.00    -0.267 OA
ENDROOT
BRANCH   2   4
ATOM      4  C   UNL d   1      58.662  -1.193  29.486  0.00  0.00     0.079 A 
ATOM      5  C   UNL d   1      58.869  -1.942  29.602  0.00  0.00     0.116 A 
ATOM      6  S   UNL d   1      58.312  -2.396  29.293  0.00  0.00     0.213 S 
ATOM      7  C   UNL d   1      57.763  -1.925  28.988  0.00  0.00     0.100 A 
ATOM      8  O   UNL d   1      57.755  -2.851  28.984  0.00  0.00    -0.217 OA
ATOM      9  O   UNL d   1      58.836  -2.891  29.585  0.00  0.00    -0.217 OA
ATOM     10  C   UNL d   1      57.979  -1.187  29.107  0.00  0.00     0.030 A 
ENDBRANCH   2   4
BRANCH   2  11
ATOM     11  C   UNL d   1      59.749  -0.310  29.319  0.00  0.00     0.067 A 
ATOM     12  C   UNL d   1      60.436  -0.747  29.391  0.00  0.00     0.018 A 
ATOM     13  C   UNL d   1      61.129  -0.495  28.991  0.00  0.00     0.002 A 
ATOM     14  C   UNL d   1      61.116   0.187  28.529  0.00  0.00     0.000 A 
ATOM     15  C   UNL d   1      60.420   0.626  28.459  0.00  0.00     0.002 A 
ATOM     16  C   UNL d   1      59.734   0.385  28.848  0.00  0.00     0.018 A 
ENDBRANCH   2  11
BRANCH   1  17
ATOM     17  C   UNL d   1      57.943  -0.185  31.119  0.00  0.00     0.057 A 
ATOM     18  C   UNL d   1      57.182  -0.007  30.819  0.00  0.00     0.007 A 
ATOM     19  C   UNL d   1      56.512  -0.243  31.237  0.00  0.00     0.024 A 
ATOM     20  C   UNL d   1      56.584  -0.655  31.952  0.00  0.00     0.094 A 
ATOM     21  C   UNL d   1      57.331  -0.834  32.255  0.00  0.00     0.024 A 
ATOM     22  C   UNL d   1      58.022  -0.601  31.841  0.00  0.00     0.007 A 
BRANCH  20  23
ATOM     23  O   UNL d   1      55.900  -0.889  32.368  0.00  0.00    -0.328 OA
ATOM     24  C   UNL d   1      55.810  -0.701  33.178  0.00  0.00     0.181 C 
ENDBRANCH  20  23
ENDBRANCH   1  17
TORSDOF 4
ENDMDL
