MODEL 1
REMARK VINA RESULT:     116.0      0.000      0.000
REMARK  6 active torsions:
REMARK  status: ('A' for Active; 'I' for Inactive)
REMARK    1  A    between atoms: N_5  and  S_1 
REMARK    2  A    between atoms: C_6  and  S_1 
REMARK    3  A    between atoms: C_2  and  C_10 
REMARK       I    between atoms: N_3  and  C_2 
REMARK    4  A    between atoms: C_11  and  N_4 
REMARK    5  A    between atoms: C_17  and  N_5 
REMARK    6  A    between atoms: O_29  and  C_23 
ROOT
ATOM      1  C   UNL d   1      61.599  47.508  49.887  0.00  0.00     0.057 A 
ATOM      2  C   UNL d   1      60.872  48.815  50.582  0.00  0.00     0.094 A 
ATOM      3  C   UNL d   1      61.682  48.258  49.544  0.00  0.00     0.006 A 
ATOM      4  C   UNL d   1      61.152  47.421  50.575  0.00  0.00     0.006 A 
ATOM      5  C   UNL d   1      61.315  48.907  49.898  0.00  0.00     0.020 A 
ATOM      6  C   UNL d   1      60.793  48.065  50.919  0.00  0.00     0.020 A 
ENDROOT
BRANCH   1   7
ATOM      7  C   UNL d   1      61.965  46.848  49.539  0.00  0.00     0.265 C 
ATOM      8  N   UNL d   1      61.919  46.103  49.902  0.00  0.00    -0.269 N 
ATOM      9  C   UNL d   1      62.279  45.457  49.559  0.00  0.00     0.102 A 
ATOM     10  C   UNL d   1      61.509  46.019  50.612  0.00  0.00     0.102 A 
ATOM     11  C   UNL d   1      62.233  44.717  49.921  0.00  0.00     0.100 A 
ATOM     12  N   UNL d   1      61.823  44.639  50.628  0.00  0.00    -0.301 N 
ATOM     13  C   UNL d   1      61.463  45.285  50.972  0.00  0.00     0.100 A 
ATOM     14  O   UNL d   1      62.374  46.934  48.830  0.00  0.00    -0.267 OA
BRANCH  12  15
ATOM     15  C   UNL d   1      61.775  43.914  50.986  0.00  0.00     0.064 A 
ATOM     16  C   UNL d   1      62.318  43.325  50.790  0.00  0.00     0.020 A 
ATOM     17  C   UNL d   1      62.273  42.590  51.151  0.00  0.00     0.026 A 
ATOM     18  C   UNL d   1      61.686  42.437  51.711  0.00  0.00     0.094 A 
ATOM     19  C   UNL d   1      61.144  43.036  51.901  0.00  0.00     0.026 A 
ATOM     20  C   UNL d   1      61.193  43.764  51.541  0.00  0.00     0.020 A 
BRANCH  18  21
ATOM     21  O   UNL d   1      61.640  41.702  52.072  0.00  0.00    -0.328 OA
ATOM     22  C   UNL d   1      62.243  41.154  51.958  0.00  0.00     0.181 C 
ENDBRANCH  18  21
ENDBRANCH  12  15
ENDBRANCH   1   7
BRANCH   2  23
ATOM     23  N   UNL d   1      60.515  49.465  50.920  0.00  0.00    -0.158 NA
BRANCH  23  24
ATOM     24  S   UNL d   1      59.691  49.524  50.956  0.00  0.00     0.285 S 
ATOM     25  O   UNL d   1      59.648  49.367  50.153  0.00  0.00    -0.198 OA
ATOM     26  O   UNL d   1      59.749  49.681  51.761  0.00  0.00    -0.198 OA
BRANCH  24  27
ATOM     27  C   UNL d   1      58.876  49.584  51.000  0.00  0.00     0.107 A 
ATOM     28  C   UNL d   1      58.425  49.614  50.318  0.00  0.00     0.043 A 
ATOM     29  C   UNL d   1      57.600  49.675  50.364  0.00  0.00     0.141 A 
ATOM     30  F   UNL d   1      57.138  49.706  49.673  0.00  0.00    -0.204 F 
ATOM     31  C   UNL d   1      57.233  49.706  51.104  0.00  0.00     0.030 A 
ATOM     32  C   UNL d   1      57.691  49.675  51.797  0.00  0.00     0.003 A 
ATOM     33  C   UNL d   1      58.513  49.614  51.742  0.00  0.00     0.013 A 
ENDBRANCH  24  27
ENDBRANCH  23  24
ENDBRANCH   2  23
TORSDOF 6
ENDMDL
