MODEL 1
REMARK VINA RESULT:      30.4      0.000      0.000
REMARK  2 active torsions:
REMARK  status: ('A' for Active; 'I' for Inactive)
REMARK    1  A    between atoms: C_9  and  N_1 
REMARK    2  A    between atoms: C_8  and  N_2 
ROOT
ATOM      1  N   UNL d   1     -51.105  25.794  33.430  0.00  0.00    -0.208 N 
ATOM      2  N   UNL d   1     -50.312  25.560  33.397  0.00  0.00    -0.208 N 
ATOM      3  C   UNL d   1     -49.838  26.233  33.357  0.00  0.00     0.284 A 
ATOM      4  C   UNL d   1     -51.123  26.621  33.410  0.00  0.00     0.284 A 
ATOM      5  C   UNL d   1     -50.340  26.891  33.365  0.00  0.00     0.125 A 
ATOM      6  O   UNL d   1     -49.020  26.250  33.318  0.00  0.00    -0.265 OA
ATOM      7  O   UNL d   1     -51.804  27.096  33.430  0.00  0.00    -0.265 OA
ENDROOT
BRANCH   1   8
ATOM      8  C   UNL d   1     -51.758  25.297  33.474  0.00  0.00     0.085 A 
ATOM      9  C   UNL d   1     -52.503  25.606  33.678  0.00  0.00     0.019 A 
ATOM     10  C   UNL d   1     -53.160  25.110  33.723  0.00  0.00     0.002 A 
ATOM     11  C   UNL d   1     -53.076  24.295  33.563  0.00  0.00     0.000 A 
ATOM     12  C   UNL d   1     -52.330  23.990  33.358  0.00  0.00     0.002 A 
ATOM     13  C   UNL d   1     -51.675  24.495  33.315  0.00  0.00     0.019 A 
ENDBRANCH   1   8
BRANCH   2  14
ATOM     14  C   UNL d   1     -50.045  24.780  33.404  0.00  0.00     0.085 A 
ATOM     15  C   UNL d   1     -50.582  24.156  33.447  0.00  0.00     0.019 A 
ATOM     16  C   UNL d   1     -50.316  23.380  33.454  0.00  0.00     0.002 A 
ATOM     17  C   UNL d   1     -49.499  23.221  33.417  0.00  0.00     0.000 A 
ATOM     18  C   UNL d   1     -48.962  23.846  33.374  0.00  0.00     0.002 A 
ATOM     19  C   UNL d   1     -49.237  24.621  33.368  0.00  0.00     0.019 A 
ENDBRANCH   2  14
TORSDOF 2
ENDMDL
