MODEL 1
REMARK VINA RESULT:      16.0      0.000      0.000
REMARK  7 active torsions:
REMARK  status: ('A' for Active; 'I' for Inactive)
REMARK    1  A    between atoms: C_7  and  C_1 
REMARK    2  A    between atoms: N_5  and  C_2 
REMARK       I    between atoms: C_8  and  N_5 
REMARK    3  A    between atoms: N_9  and  C_7 
REMARK    4  A    between atoms: C_11  and  C_7 
REMARK    5  A    between atoms: C_16  and  C_8 
REMARK    6  A    between atoms: C_21  and  N_10 
REMARK    7  A    between atoms: C_27  and  C_21 
ROOT
ATOM      1  C   UNL d   1      30.638  17.649 -24.113  0.00  0.00     0.042 A 
ATOM      2  C   UNL d   1      31.319  18.071 -23.897  0.00  0.00     0.115 A 
ATOM      3  C   UNL d   1      30.085  18.181 -24.369  0.00  0.00     0.009 A 
ATOM      4  S   UNL d   1      31.175  18.856 -24.023  0.00  0.00    -0.068 SA
ATOM      5  C   UNL d   1      30.396  18.922 -24.320  0.00  0.00     0.031 A 
ATOM      6  C   UNL d   1      29.283  18.000 -24.652  0.00  0.00     0.001 C 
ATOM      7  C   UNL d   1      30.027  19.622 -24.522  0.00  0.00     0.007 C 
ENDROOT
BRANCH   1   8
ATOM      8  C   UNL d   1      30.609  16.832 -24.050  0.00  0.00     0.084 C 
BRANCH   8   9
ATOM      9  N   UNL d   1      29.897  16.488 -23.827  0.00  0.00    -0.300 N 
ATOM     10  C   UNL d   1      29.806  16.140 -23.080  0.00  0.00     0.100 A 
ATOM     11  C   UNL d   1      29.083  15.805 -22.886  0.00  0.00     0.100 A 
ATOM     12  N   UNL d   1      28.461  15.805 -23.400  0.00  0.00    -0.297 N 
ATOM     13  C   UNL d   1      28.551  16.153 -24.147  0.00  0.00     0.100 A 
ATOM     14  C   UNL d   1      29.263  16.497 -24.369  0.00  0.00     0.100 A 
BRANCH  12  15
ATOM     15  C   UNL d   1      27.725  15.456 -23.184  0.00  0.00     0.126 C 
BRANCH  15  16
ATOM     16  C   UNL d   1      27.018  15.881 -23.244  0.00  0.00     0.253 C 
ATOM     17  O   UNL d   1      26.354  15.630 -22.840  0.00  0.00    -0.281 OA
ENDBRANCH  15  16
ENDBRANCH  12  15
ENDBRANCH   8   9
BRANCH   8  18
ATOM     18  C   UNL d   1      31.276  16.367 -24.205  0.00  0.00     0.098 A 
ATOM     19  N   UNL d   1      31.539  16.280 -24.968  0.00  0.00    -0.243 NA
ATOM     20  C   UNL d   1      32.207  15.811 -25.093  0.00  0.00     0.099 A 
ATOM     21  C   UNL d   1      32.587  15.455 -24.511  0.00  0.00     0.021 A 
ATOM     22  C   UNL d   1      32.332  15.534 -23.731  0.00  0.00     0.003 A 
ATOM     23  C   UNL d   1      31.667  15.997 -23.576  0.00  0.00     0.021 A 
ENDBRANCH   8  18
ENDBRANCH   1   8
BRANCH   2  24
ATOM     24  N   UNL d   1      31.961  17.669 -23.620  0.00  0.00    -0.201 NA
ATOM     25  C   UNL d   1      32.568  18.107 -23.264  0.00  0.00     0.280 C 
ATOM     26  O   UNL d   1      33.225  17.726 -22.977  0.00  0.00    -0.265 OA
BRANCH  25  27
ATOM     27  C   UNL d   1      32.507  18.931 -23.199  0.00  0.00     0.058 A 
ATOM     28  C   UNL d   1      32.139  19.269 -22.548  0.00  0.00     0.005 A 
ATOM     29  C   UNL d   1      32.075  20.101 -22.480  0.00  0.00     0.000 A 
ATOM     30  C   UNL d   1      32.385  20.583 -23.070  0.00  0.00     0.000 A 
ATOM     31  C   UNL d   1      32.754  20.233 -23.721  0.00  0.00     0.000 A 
ATOM     32  C   UNL d   1      32.819  19.413 -23.793  0.00  0.00     0.005 A 
ENDBRANCH  25  27
ENDBRANCH   2  24
TORSDOF 7
ENDMDL
MODEL 2
REMARK VINA RESULT:      18.8      2.256      4.283
REMARK  7 active torsions:
REMARK  status: ('A' for Active; 'I' for Inactive)
REMARK    1  A    between atoms: C_7  and  C_1 
REMARK    2  A    between atoms: N_5  and  C_2 
REMARK       I    between atoms: C_8  and  N_5 
REMARK    3  A    between atoms: N_9  and  C_7 
REMARK    4  A    between atoms: C_11  and  C_7 
REMARK    5  A    between atoms: C_16  and  C_8 
REMARK    6  A    between atoms: C_21  and  N_10 
REMARK    7  A    between atoms: C_27  and  C_21 
ROOT
ATOM      1  C   UNL d   1      32.576  20.099 -22.443  0.00  0.00     0.042 A 
ATOM      2  C   UNL d   1      32.370  20.854 -22.170  0.00  0.00     0.115 A 
ATOM      3  C   UNL d   1      32.908  19.691 -21.829  0.00  0.00     0.009 A 
ATOM      4  S   UNL d   1      32.578  20.900 -21.390  0.00  0.00    -0.068 SA
ATOM      5  C   UNL d   1      32.916  20.166 -21.179  0.00  0.00     0.031 A 
ATOM      6  C   UNL d   1      33.210  18.876 -21.848  0.00  0.00     0.001 C 
ATOM      7  C   UNL d   1      33.202  19.975 -20.437  0.00  0.00     0.007 C 
ENDROOT
BRANCH   1   8
ATOM      8  C   UNL d   1      32.435  19.877 -23.221  0.00  0.00     0.084 C 
BRANCH   8   9
ATOM      9  N   UNL d   1      32.228  19.096 -23.367  0.00  0.00    -0.300 N 
ATOM     10  C   UNL d   1      31.433  18.870 -23.430  0.00  0.00     0.100 A 
ATOM     11  C   UNL d   1      31.257  18.082 -23.577  0.00  0.00     0.100 A 
ATOM     12  N   UNL d   1      31.835  17.524 -23.662  0.00  0.00    -0.297 N 
ATOM     13  C   UNL d   1      32.630  17.751 -23.599  0.00  0.00     0.100 A 
ATOM     14  C   UNL d   1      32.837  18.532 -23.453  0.00  0.00     0.100 A 
BRANCH  12  15
ATOM     15  C   UNL d   1      31.637  16.720 -23.812  0.00  0.00     0.126 C 
BRANCH  15  16
ATOM     16  C   UNL d   1      31.015  16.521 -24.319  0.00  0.00     0.253 C 
ATOM     17  O   UNL d   1      30.867  15.739 -24.499  0.00  0.00    -0.281 OA
ENDBRANCH  15  16
ENDBRANCH  12  15
ENDBRANCH   8   9
BRANCH   8  18
ATOM     18  C   UNL d   1      32.499  20.425 -23.839  0.00  0.00     0.098 A 
ATOM     19  N   UNL d   1      33.205  20.801 -23.973  0.00  0.00    -0.243 NA
ATOM     20  C   UNL d   1      33.239  21.342 -24.596  0.00  0.00     0.099 A 
ATOM     21  C   UNL d   1      32.625  21.500 -25.052  0.00  0.00     0.021 A 
ATOM     22  C   UNL d   1      31.901  21.125 -24.928  0.00  0.00     0.003 A 
ATOM     23  C   UNL d   1      31.837  20.579 -24.312  0.00  0.00     0.021 A 
ENDBRANCH   8  18
ENDBRANCH   1   8
BRANCH   2  24
ATOM     24  N   UNL d   1      32.026  21.377 -22.677  0.00  0.00    -0.201 NA
ATOM     25  C   UNL d   1      31.874  22.144 -22.400  0.00  0.00     0.280 C 
ATOM     26  O   UNL d   1      31.528  22.690 -22.891  0.00  0.00    -0.265 OA
BRANCH  25  27
ATOM     27  C   UNL d   1      32.075  22.355 -21.623  0.00  0.00     0.058 A 
ATOM     28  C   UNL d   1      31.654  22.049 -20.989  0.00  0.00     0.005 A 
ATOM     29  C   UNL d   1      31.854  22.260 -20.204  0.00  0.00     0.000 A 
ATOM     30  C   UNL d   1      32.477  22.779 -20.068  0.00  0.00     0.000 A 
ATOM     31  C   UNL d   1      32.895  23.082 -20.713  0.00  0.00     0.000 A 
ATOM     32  C   UNL d   1      32.702  22.877 -21.489  0.00  0.00     0.005 A 
ENDBRANCH  25  27
ENDBRANCH   2  24
TORSDOF 7
ENDMDL
