MODEL 1
REMARK VINA RESULT:      42.5      0.000      0.000
REMARK  2 active torsions:
REMARK  status: ('A' for Active; 'I' for Inactive)
REMARK    1  A    between atoms: C_12  and  C_4 
REMARK    2  A    between atoms: O_14  and  C_10 
ROOT
ATOM      1  C   UNL d   1     -54.954-101.392 -43.702  0.00  0.00     0.101 A 
ATOM      2  C   UNL d   1     -54.907-102.180 -43.452  0.00  0.00     0.203 A 
ATOM      3  C   UNL d   1     -54.859-102.347 -42.645  0.00  0.00     0.067 A 
ATOM      4  C   UNL d   1     -54.858-101.741 -42.097  0.00  0.00     0.103 A 
ATOM      5  C   UNL d   1     -54.952-100.786 -43.154  0.00  0.00     0.108 A 
ATOM      6  O   UNL d   1     -54.904-100.955 -42.346  0.00  0.00    -0.307 OA
ATOM      7  C   UNL d   1     -55.001-101.227 -44.507  0.00  0.00     0.203 A 
ATOM      8  C   UNL d   1     -54.999-100.003 -43.401  0.00  0.00     0.049 A 
ATOM      9  C   UNL d   1     -55.049-100.429 -44.768  0.00  0.00     0.066 A 
ATOM     10  C   UNL d   1     -55.048 -99.822 -44.221  0.00  0.00     0.099 A 
ATOM     11  O   UNL d   1     -54.908-102.803 -44.015  0.00  0.00    -0.286 OA
ATOM     12  O   UNL d   1     -55.003-101.851 -45.070  0.00  0.00    -0.286 OA
ENDROOT
BRANCH   4  13
ATOM     13  C   UNL d   1     -54.811-101.903 -41.297  0.00  0.00     0.023 A 
ATOM     14  C   UNL d   1     -54.766-101.276 -40.762  0.00  0.00     0.002 A 
ATOM     15  C   UNL d   1     -54.718-101.437 -39.957  0.00  0.00     0.000 A 
ATOM     16  C   UNL d   1     -54.715-102.218 -39.685  0.00  0.00     0.000 A 
ATOM     17  C   UNL d   1     -54.760-102.846 -40.216  0.00  0.00     0.000 A 
ATOM     18  C   UNL d   1     -54.807-102.684 -41.026  0.00  0.00     0.002 A 
ENDBRANCH   4  13
BRANCH  10  19
ATOM     19  O   UNL d   1     -55.095 -99.010 -44.465  0.00  0.00    -0.328 OA
ATOM     20  C   UNL d   1     -55.661 -98.774 -45.005  0.00  0.00     0.181 C 
ENDBRANCH  10  19
TORSDOF 2
ENDMDL
