MODEL 1
REMARK VINA RESULT:      -7.8      0.000      0.000
REMARK  6 active torsions:
REMARK  status: ('A' for Active; 'I' for Inactive)
REMARK    1  A    between atoms: C_10  and  N_1 
REMARK    2  A    between atoms: S_8  and  C_6 
REMARK    3  A    between atoms: C_13  and  S_8 
REMARK    4  A    between atoms: C_11  and  C_13 
REMARK    5  A    between atoms: O_18  and  C_11 
REMARK    6  A    between atoms: C_23  and  O_18 
ROOT
ATOM      1  N   UNL d   1      53.036  30.922  53.409  0.00  0.00    -0.193 N 
ATOM      2  N   UNL d   1      52.631  30.964  52.700  0.00  0.00    -0.058 NA
ATOM      3  C   UNL d   1      53.186  31.690  53.657  0.00  0.00     0.188 A 
ATOM      4  C   UNL d   1      52.867  32.200  53.091  0.00  0.00     0.164 A 
ATOM      5  N   UNL d   1      52.527  31.737  52.504  0.00  0.00    -0.125 NA
ATOM      6  C   UNL d   1      52.928  33.007  53.182  0.00  0.00     0.135 A 
ATOM      7  N   UNL d   1      53.564  31.988  54.313  0.00  0.00    -0.203 NA
ATOM      8  N   UNL d   1      53.311  33.316  53.847  0.00  0.00    -0.216 NA
ATOM      9  C   UNL d   1      53.629  32.806  54.413  0.00  0.00     0.201 A 
ENDROOT
BRANCH   6  10
ATOM     10  S   UNL d   1      52.610  33.516  52.617  0.00  0.00    -0.061 SA
BRANCH  10  11
ATOM     11  C   UNL d   1      52.208  34.186  52.845  0.00  0.00     0.094 C 
ATOM     12  C   UNL d   1      52.530  34.673  53.421  0.00  0.00     0.013 C 
BRANCH  11  13
ATOM     13  C   UNL d   1      51.482  34.368  52.496  0.00  0.00     0.306 C 
ATOM     14  O   UNL d   1      51.403  34.391  51.680  0.00  0.00    -0.258 OA
BRANCH  13  15
ATOM     15  O   UNL d   1      50.830  34.529  52.980  0.00  0.00    -0.271 OA
BRANCH  15  16
ATOM     16  C   UNL d   1      50.074  34.561  52.652  0.00  0.00     0.126 C 
ATOM     17  C   UNL d   1      49.468  34.963  53.049  0.00  0.00     0.029 C 
ENDBRANCH  15  16
ENDBRANCH  13  15
ENDBRANCH  11  13
ENDBRANCH  10  11
ENDBRANCH   6  10
BRANCH   1  18
ATOM     18  C   UNL d   1      53.236  30.220  53.771  0.00  0.00     0.086 A 
ATOM     19  C   UNL d   1      52.742  29.898  54.350  0.00  0.00     0.022 A 
ATOM     20  C   UNL d   1      52.940  29.187  54.719  0.00  0.00     0.031 A 
ATOM     21  C   UNL d   1      53.627  28.795  54.516  0.00  0.00     0.140 A 
ATOM     22  C   UNL d   1      54.121  29.116  53.937  0.00  0.00     0.031 A 
ATOM     23  F   UNL d   1      53.801  28.065  54.915  0.00  0.00    -0.204 F 
ATOM     24  C   UNL d   1      53.933  29.823  53.564  0.00  0.00     0.022 A 
ENDBRANCH   1  18
TORSDOF 6
ENDMDL
MODEL 2
REMARK VINA RESULT:      -7.4      2.619      3.317
REMARK  6 active torsions:
REMARK  status: ('A' for Active; 'I' for Inactive)
REMARK    1  A    between atoms: C_10  and  N_1 
REMARK    2  A    between atoms: S_8  and  C_6 
REMARK    3  A    between atoms: C_13  and  S_8 
REMARK    4  A    between atoms: C_11  and  C_13 
REMARK    5  A    between atoms: O_18  and  C_11 
REMARK    6  A    between atoms: C_23  and  O_18 
ROOT
ATOM      1  N   UNL d   1      52.808  34.079  53.467  0.00  0.00    -0.193 N 
ATOM      2  N   UNL d   1      52.843  34.724  52.966  0.00  0.00    -0.058 NA
ATOM      3  C   UNL d   1      52.057  33.754  53.403  0.00  0.00     0.188 A 
ATOM      4  C   UNL d   1      51.636  34.207  52.857  0.00  0.00     0.164 A 
ATOM      5  N   UNL d   1      52.135  34.805  52.594  0.00  0.00    -0.125 NA
ATOM      6  C   UNL d   1      50.865  34.021  52.673  0.00  0.00     0.135 A 
ATOM      7  N   UNL d   1      51.707  33.114  53.764  0.00  0.00    -0.203 NA
ATOM      8  N   UNL d   1      50.503  33.372  53.037  0.00  0.00    -0.216 NA
ATOM      9  C   UNL d   1      50.925  32.918  53.583  0.00  0.00     0.201 A 
ENDROOT
BRANCH   6  10
ATOM     10  S   UNL d   1      50.444  34.474  52.127  0.00  0.00    -0.061 SA
BRANCH  10  11
ATOM     11  C   UNL d   1      49.673  34.688  52.277  0.00  0.00     0.094 C 
ATOM     12  C   UNL d   1      49.442  34.847  53.048  0.00  0.00     0.013 C 
BRANCH  11  13
ATOM     13  C   UNL d   1      49.135  34.744  51.654  0.00  0.00     0.306 C 
ATOM     14  O   UNL d   1      49.322  34.455  50.910  0.00  0.00    -0.258 OA
BRANCH  13  15
ATOM     15  O   UNL d   1      48.398  35.097  51.788  0.00  0.00    -0.271 OA
BRANCH  15  16
ATOM     16  C   UNL d   1      47.854  35.157  51.171  0.00  0.00     0.126 C 
ATOM     17  C   UNL d   1      47.111  35.497  51.307  0.00  0.00     0.029 C 
ENDBRANCH  15  16
ENDBRANCH  13  15
ENDBRANCH  11  13
ENDBRANCH  10  11
ENDBRANCH   6  10
BRANCH   1  18
ATOM     18  C   UNL d   1      53.433  33.837  53.932  0.00  0.00     0.086 A 
ATOM     19  C   UNL d   1      53.549  34.175  54.677  0.00  0.00     0.022 A 
ATOM     20  C   UNL d   1      54.180  33.933  55.151  0.00  0.00     0.031 A 
ATOM     21  C   UNL d   1      54.695  33.357  54.887  0.00  0.00     0.140 A 
ATOM     22  C   UNL d   1      54.580  33.019  54.142  0.00  0.00     0.031 A 
ATOM     23  F   UNL d   1      55.334  33.131  55.400  0.00  0.00    -0.204 F 
ATOM     24  C   UNL d   1      53.955  33.253  53.664  0.00  0.00     0.022 A 
ENDBRANCH   1  18
TORSDOF 6
ENDMDL
MODEL 3
REMARK VINA RESULT:      -7.1      2.773      5.021
REMARK  6 active torsions:
REMARK  status: ('A' for Active; 'I' for Inactive)
REMARK    1  A    between atoms: C_10  and  N_1 
REMARK    2  A    between atoms: S_8  and  C_6 
REMARK    3  A    between atoms: C_13  and  S_8 
REMARK    4  A    between atoms: C_11  and  C_13 
REMARK    5  A    between atoms: O_18  and  C_11 
REMARK    6  A    between atoms: C_23  and  O_18 
ROOT
ATOM      1  N   UNL d   1      50.987  34.231  52.599  0.00  0.00    -0.193 N 
ATOM      2  N   UNL d   1      51.635  34.729  52.588  0.00  0.00    -0.058 NA
ATOM      3  C   UNL d   1      51.243  33.496  52.862  0.00  0.00     0.188 A 
ATOM      4  C   UNL d   1      52.052  33.553  53.010  0.00  0.00     0.164 A 
ATOM      5  N   UNL d   1      52.283  34.322  52.836  0.00  0.00    -0.125 NA
ATOM      6  C   UNL d   1      52.469  32.907  53.279  0.00  0.00     0.135 A 
ATOM      7  N   UNL d   1      50.850  32.794  52.983  0.00  0.00    -0.203 NA
ATOM      8  N   UNL d   1      52.076  32.190  53.405  0.00  0.00    -0.216 NA
ATOM      9  C   UNL d   1      51.266  32.133  53.257  0.00  0.00     0.201 A 
ENDROOT
BRANCH   6  10
ATOM     10  S   UNL d   1      53.279  32.964  53.427  0.00  0.00    -0.061 SA
BRANCH  10  11
ATOM     11  C   UNL d   1      53.657  32.396  53.871  0.00  0.00     0.094 C 
ATOM     12  C   UNL d   1      53.631  31.613  53.631  0.00  0.00     0.013 C 
BRANCH  11  13
ATOM     13  C   UNL d   1      54.062  32.615  54.556  0.00  0.00     0.306 C 
ATOM     14  O   UNL d   1      53.895  32.257  55.275  0.00  0.00    -0.258 OA
BRANCH  13  15
ATOM     15  O   UNL d   1      54.643  33.203  54.512  0.00  0.00    -0.271 OA
BRANCH  15  16
ATOM     16  C   UNL d   1      55.006  33.474  55.201  0.00  0.00     0.126 C 
ATOM     17  C   UNL d   1      55.544  34.103  55.165  0.00  0.00     0.029 C 
ENDBRANCH  15  16
ENDBRANCH  13  15
ENDBRANCH  11  13
ENDBRANCH  10  11
ENDBRANCH   6  10
BRANCH   1  18
ATOM     18  C   UNL d   1      50.238  34.464  52.381  0.00  0.00     0.086 A 
ATOM     19  C   UNL d   1      49.972  34.332  51.610  0.00  0.00     0.022 A 
ATOM     20  C   UNL d   1      49.213  34.566  51.384  0.00  0.00     0.031 A 
ATOM     21  C   UNL d   1      48.719  34.931  51.921  0.00  0.00     0.140 A 
ATOM     22  C   UNL d   1      48.983  35.064  52.692  0.00  0.00     0.031 A 
ATOM     23  F   UNL d   1      47.944  35.159  51.656  0.00  0.00    -0.204 F 
ATOM     24  C   UNL d   1      49.736  34.834  52.926  0.00  0.00     0.022 A 
ENDBRANCH   1  18
TORSDOF 6
ENDMDL
MODEL 4
REMARK VINA RESULT:      -6.5      2.314      3.419
REMARK  6 active torsions:
REMARK  status: ('A' for Active; 'I' for Inactive)
REMARK    1  A    between atoms: C_10  and  N_1 
REMARK    2  A    between atoms: S_8  and  C_6 
REMARK    3  A    between atoms: C_13  and  S_8 
REMARK    4  A    between atoms: C_11  and  C_13 
REMARK    5  A    between atoms: O_18  and  C_11 
REMARK    6  A    between atoms: C_23  and  O_18 
ROOT
ATOM      1  N   UNL d   1      51.910  33.369  53.338  0.00  0.00    -0.193 N 
ATOM      2  N   UNL d   1      51.354  33.322  53.934  0.00  0.00    -0.058 NA
ATOM      3  C   UNL d   1      51.562  33.753  52.701  0.00  0.00     0.188 A 
ATOM      4  C   UNL d   1      50.787  33.938  52.917  0.00  0.00     0.164 A 
ATOM      5  N   UNL d   1      50.671  33.666  53.683  0.00  0.00    -0.125 NA
ATOM      6  C   UNL d   1      50.295  34.324  52.396  0.00  0.00     0.135 A 
ATOM      7  N   UNL d   1      51.844  33.954  51.964  0.00  0.00    -0.203 NA
ATOM      8  N   UNL d   1      50.575  34.532  51.646  0.00  0.00    -0.216 NA
ATOM      9  C   UNL d   1      51.350  34.347  51.430  0.00  0.00     0.201 A 
ENDROOT
BRANCH   6  10
ATOM     10  S   UNL d   1      49.520  34.510  52.611  0.00  0.00    -0.061 SA
BRANCH  10  11
ATOM     11  C   UNL d   1      48.997  34.801  52.060  0.00  0.00     0.094 C 
ATOM     12  C   UNL d   1      49.054  34.552  51.280  0.00  0.00     0.013 C 
BRANCH  11  13
ATOM     13  C   UNL d   1      48.418  35.342  52.290  0.00  0.00     0.306 C 
ATOM     14  O   UNL d   1      48.497  35.771  52.984  0.00  0.00    -0.258 OA
BRANCH  13  15
ATOM     15  O   UNL d   1      47.752  35.448  51.810  0.00  0.00    -0.271 OA
BRANCH  15  16
ATOM     16  C   UNL d   1      47.189  36.017  52.011  0.00  0.00     0.126 C 
ATOM     17  C   UNL d   1      46.454  36.024  51.628  0.00  0.00     0.029 C 
ENDBRANCH  15  16
ENDBRANCH  13  15
ENDBRANCH  11  13
ENDBRANCH  10  11
ENDBRANCH   6  10
BRANCH   1  18
ATOM     18  C   UNL d   1      52.667  33.075  53.405  0.00  0.00     0.086 A 
ATOM     19  C   UNL d   1      53.266  33.544  53.729  0.00  0.00     0.022 A 
ATOM     20  C   UNL d   1      54.034  33.249  53.800  0.00  0.00     0.031 A 
ATOM     21  C   UNL d   1      54.209  32.492  53.550  0.00  0.00     0.140 A 
ATOM     22  C   UNL d   1      53.611  32.023  53.226  0.00  0.00     0.031 A 
ATOM     23  F   UNL d   1      55.009  32.220  53.637  0.00  0.00    -0.204 F 
ATOM     24  C   UNL d   1      52.844  32.306  53.151  0.00  0.00     0.022 A 
ENDBRANCH   1  18
TORSDOF 6
ENDMDL
MODEL 5
REMARK VINA RESULT:      -5.1      9.809     10.959
REMARK  6 active torsions:
REMARK  status: ('A' for Active; 'I' for Inactive)
REMARK    1  A    between atoms: C_10  and  N_1 
REMARK    2  A    between atoms: S_8  and  C_6 
REMARK    3  A    between atoms: C_13  and  S_8 
REMARK    4  A    between atoms: C_11  and  C_13 
REMARK    5  A    between atoms: O_18  and  C_11 
REMARK    6  A    between atoms: C_23  and  O_18 
ROOT
ATOM      1  N   UNL d   1      44.909  28.632  58.157  0.00  0.00    -0.193 N 
ATOM      2  N   UNL d   1      44.849  28.770  57.354  0.00  0.00    -0.058 NA
ATOM      3  C   UNL d   1      44.967  27.820  58.267  0.00  0.00     0.188 A 
ATOM      4  C   UNL d   1      44.941  27.467  57.522  0.00  0.00     0.164 A 
ATOM      5  N   UNL d   1      44.868  28.066  56.965  0.00  0.00    -0.125 NA
ATOM      6  C   UNL d   1      44.988  26.657  57.447  0.00  0.00     0.135 A 
ATOM      7  N   UNL d   1      45.038  27.364  58.937  0.00  0.00    -0.203 NA
ATOM      8  N   UNL d   1      45.061  26.188  58.124  0.00  0.00    -0.216 NA
ATOM      9  C   UNL d   1      45.086  26.541  58.869  0.00  0.00     0.201 A 
ENDROOT
BRANCH   6  10
ATOM     10  S   UNL d   1      44.962  26.304  56.702  0.00  0.00    -0.061 SA
BRANCH  10  11
ATOM     11  C   UNL d   1      44.649  25.558  56.610  0.00  0.00     0.094 C 
ATOM     12  C   UNL d   1      44.314  25.179  57.256  0.00  0.00     0.013 C 
BRANCH  11  13
ATOM     13  C   UNL d   1      44.672  25.192  55.871  0.00  0.00     0.306 C 
ATOM     14  O   UNL d   1      44.320  25.541  55.218  0.00  0.00    -0.258 OA
BRANCH  13  15
ATOM     15  O   UNL d   1      45.057  24.463  55.793  0.00  0.00    -0.271 OA
BRANCH  15  16
ATOM     16  C   UNL d   1      44.970  24.025  55.099  0.00  0.00     0.126 C 
ATOM     17  C   UNL d   1      45.418  23.337  54.986  0.00  0.00     0.029 C 
ENDBRANCH  15  16
ENDBRANCH  13  15
ENDBRANCH  11  13
ENDBRANCH  10  11
ENDBRANCH   6  10
BRANCH   1  18
ATOM     18  C   UNL d   1      44.907  29.225  58.716  0.00  0.00     0.086 A 
ATOM     19  C   UNL d   1      45.401  29.881  58.624  0.00  0.00     0.022 A 
ATOM     20  C   UNL d   1      45.402  30.484  59.188  0.00  0.00     0.031 A 
ATOM     21  C   UNL d   1      44.916  30.437  59.842  0.00  0.00     0.140 A 
ATOM     22  C   UNL d   1      44.422  29.781  59.935  0.00  0.00     0.031 A 
ATOM     23  F   UNL d   1      44.942  31.074  60.403  0.00  0.00    -0.204 F 
ATOM     24  C   UNL d   1      44.413  29.176  59.379  0.00  0.00     0.022 A 
ENDBRANCH   1  18
TORSDOF 6
ENDMDL
