MODEL 1
REMARK VINA RESULT:      18.4      0.000      0.000
REMARK  3 active torsions:
REMARK  status: ('A' for Active; 'I' for Inactive)
REMARK    1  A    between atoms: N_2  and  S_1 
REMARK    2  A    between atoms: C_3  and  S_1 
REMARK    3  A    between atoms: C_11  and  C_6 
ROOT
ATOM      1  C   UNL d   1      13.678  12.326  -3.199  0.00  0.00     0.104 A 
ATOM      2  C   UNL d   1      13.242  12.416  -4.798  0.00  0.00     0.000 A 
ATOM      3  C   UNL d   1      13.148  11.780  -3.516  0.00  0.00     0.013 A 
ATOM      4  C   UNL d   1      13.989  12.917  -3.682  0.00  0.00     0.013 A 
ATOM      5  C   UNL d   1      13.772  12.962  -4.478  0.00  0.00     0.001 A 
ATOM      6  C   UNL d   1      12.931  11.824  -4.313  0.00  0.00     0.001 A 
ENDROOT
BRANCH   1   7
ATOM      7  S   UNL d   1      13.894  12.282  -2.406  0.00  0.00     0.271 S 
ATOM      8  O   UNL d   1      14.572  12.716  -2.567  0.00  0.00    -0.200 OA
ATOM      9  O   UNL d   1      13.206  11.841  -2.244  0.00  0.00    -0.200 OA
BRANCH   7  10
ATOM     10  N   UNL d   1      14.110  12.237  -1.611  0.00  0.00    -0.229 N 
ATOM     11  C   UNL d   1      14.797  12.583  -1.360  0.00  0.00     0.092 A 
ATOM     12  C   UNL d   1      15.018  12.537  -0.548  0.00  0.00     0.020 A 
ATOM     13  C   UNL d   1      14.545  12.148  -0.015  0.00  0.00     0.003 A 
ATOM     14  C   UNL d   1      13.843  11.796  -0.280  0.00  0.00     0.020 A 
ATOM     15  C   UNL d   1      13.632  11.839  -1.054  0.00  0.00     0.092 A 
ENDBRANCH   7  10
ENDBRANCH   1   7
BRANCH   2  16
ATOM     16  C   UNL d   1      13.026  12.460  -5.588  0.00  0.00     0.000 C 
ATOM     17  C   UNL d   1      12.823  13.185  -5.917  0.00  0.00     0.000 C 
ATOM     18  C   UNL d   1      13.013  11.780  -6.056  0.00  0.00     0.000 C 
ENDBRANCH   2  16
TORSDOF 3
ENDMDL
MODEL 2
REMARK VINA RESULT:      19.9      1.104      4.047
REMARK  3 active torsions:
REMARK  status: ('A' for Active; 'I' for Inactive)
REMARK    1  A    between atoms: N_2  and  S_1 
REMARK    2  A    between atoms: C_3  and  S_1 
REMARK    3  A    between atoms: C_11  and  C_6 
ROOT
ATOM      1  C   UNL d   1      13.742  12.187  -2.959  0.00  0.00     0.104 A 
ATOM      2  C   UNL d   1      13.979  12.180  -1.316  0.00  0.00     0.000 A 
ATOM      3  C   UNL d   1      14.432  12.504  -2.638  0.00  0.00     0.013 A 
ATOM      4  C   UNL d   1      13.171  11.866  -2.459  0.00  0.00     0.013 A 
ATOM      5  C   UNL d   1      13.289  11.863  -1.640  0.00  0.00     0.001 A 
ATOM      6  C   UNL d   1      14.550  12.501  -1.819  0.00  0.00     0.001 A 
ENDROOT
BRANCH   1   7
ATOM      7  S   UNL d   1      13.625  12.190  -3.774  0.00  0.00     0.271 S 
ATOM      8  O   UNL d   1      14.427  12.328  -3.889  0.00  0.00    -0.200 OA
ATOM      9  O   UNL d   1      12.812  12.049  -3.657  0.00  0.00    -0.200 OA
BRANCH   7  10
ATOM     10  N   UNL d   1      13.507  12.193  -4.590  0.00  0.00    -0.229 N 
ATOM     11  C   UNL d   1      12.891  11.779  -4.911  0.00  0.00     0.092 A 
ATOM     12  C   UNL d   1      12.770  11.782  -5.746  0.00  0.00     0.020 A 
ATOM     13  C   UNL d   1      13.271  12.199  -6.230  0.00  0.00     0.003 A 
ATOM     14  C   UNL d   1      13.900  12.621  -5.895  0.00  0.00     0.020 A 
ATOM     15  C   UNL d   1      14.015  12.618  -5.099  0.00  0.00     0.092 A 
ENDBRANCH   7  10
ENDBRANCH   1   7
BRANCH   2  16
ATOM     16  C   UNL d   1      14.096  12.177  -0.505  0.00  0.00     0.000 C 
ATOM     17  C   UNL d   1      13.568  11.780  -0.017  0.00  0.00     0.000 C 
ATOM     18  C   UNL d   1      14.741  12.572  -0.175  0.00  0.00     0.000 C 
ENDBRANCH   2  16
TORSDOF 3
ENDMDL
