MODEL 1
REMARK VINA RESULT:      38.8      0.000      0.000
REMARK  5 active torsions:
REMARK  status: ('A' for Active; 'I' for Inactive)
REMARK    1  A    between atoms: C_7  and  C_1 
REMARK    2  A    between atoms: C_5  and  S_14 
REMARK       I    between atoms: N_13  and  C_7 
REMARK    3  A    between atoms: C_18  and  N_13 
REMARK    4  A    between atoms: S_14  and  C_19 
REMARK    5  A    between atoms: C_19  and  C_18 
ROOT
ATOM      1  C   UNL d   1      59.223  49.368  50.753  0.00  0.00     0.056 C 
ENDROOT
BRANCH   1   2
ATOM      2  S   UNL d   1      58.982  49.689  50.023  0.00  0.00    -0.083 SA
BRANCH   2   3
ATOM      3  C   UNL d   1      58.181  49.656  49.801  0.00  0.00     0.050 A 
ATOM      4  C   UNL d   1      57.542  49.666  50.319  0.00  0.00     0.025 A 
ATOM      5  C   UNL d   1      56.846  49.623  49.863  0.00  0.00     0.082 A 
ATOM      6  C   UNL d   1      57.491  49.707  51.146  0.00  0.00     0.002 A 
ATOM      7  C   UNL d   1      56.107  49.623  50.233  0.00  0.00     0.019 A 
ATOM      8  N   UNL d   1      57.071  49.588  49.066  0.00  0.00    -0.243 NA
ATOM      9  C   UNL d   1      56.063  49.664  51.054  0.00  0.00     0.002 A 
ATOM     10  C   UNL d   1      56.761  49.707  51.513  0.00  0.00     0.000 A 
ATOM     11  C   UNL d   1      57.893  49.608  49.030  0.00  0.00     0.105 A 
ENDBRANCH   2   3
ENDBRANCH   1   2
BRANCH   1  12
ATOM     12  C   UNL d   1      59.889  48.881  50.787  0.00  0.00     0.109 C 
BRANCH  12  13
ATOM     13  N   UNL d   1      60.602  49.121  50.421  0.00  0.00    -0.204 NA
ATOM     14  C   UNL d   1      61.264  49.297  50.878  0.00  0.00     0.302 C 
ATOM     15  O   UNL d   1      61.965  49.534  50.512  0.00  0.00    -0.263 OA
BRANCH  14  16
ATOM     16  C   UNL d   1      61.224  49.237  51.710  0.00  0.00     0.158 A 
ATOM     17  O   UNL d   1      60.850  49.701  52.284  0.00  0.00    -0.296 OA
ATOM     18  C   UNL d   1      61.009  49.365  53.019  0.00  0.00     0.134 A 
ATOM     19 BR   UNL d   1      60.742  49.650  53.756  0.00  0.00    -0.022 Br
ATOM     20  C   UNL d   1      61.478  48.698  52.906  0.00  0.00     0.034 A 
ATOM     21  C   UNL d   1      61.610  48.620  52.096  0.00  0.00     0.032 A 
ENDBRANCH  14  16
ENDBRANCH  12  13
ENDBRANCH   1  12
TORSDOF 5
ENDMDL
MODEL 2
REMARK VINA RESULT:      38.8      2.385      4.531
REMARK  5 active torsions:
REMARK  status: ('A' for Active; 'I' for Inactive)
REMARK    1  A    between atoms: C_7  and  C_1 
REMARK    2  A    between atoms: C_5  and  S_14 
REMARK       I    between atoms: N_13  and  C_7 
REMARK    3  A    between atoms: C_18  and  N_13 
REMARK    4  A    between atoms: S_14  and  C_19 
REMARK    5  A    between atoms: C_19  and  C_18 
ROOT
ATOM      1  C   UNL d   1      58.970  49.182  51.425  0.00  0.00     0.056 C 
ENDROOT
BRANCH   1   2
ATOM      2  S   UNL d   1      59.523  49.103  50.808  0.00  0.00    -0.083 SA
BRANCH   2   3
ATOM      3  C   UNL d   1      60.333  49.217  50.961  0.00  0.00     0.050 A 
ATOM      4  C   UNL d   1      60.661  49.378  51.699  0.00  0.00     0.025 A 
ATOM      5  C   UNL d   1      61.485  49.450  51.599  0.00  0.00     0.082 A 
ATOM      6  C   UNL d   1      60.328  49.469  52.453  0.00  0.00     0.002 A 
ATOM      7  C   UNL d   1      61.969  49.613  52.249  0.00  0.00     0.019 A 
ATOM      8  N   UNL d   1      61.651  49.333  50.795  0.00  0.00    -0.243 NA
ATOM      9  C   UNL d   1      61.632  49.702  52.995  0.00  0.00     0.002 A 
ATOM     10  C   UNL d   1      60.804  49.629  53.096  0.00  0.00     0.000 A 
ATOM     11  C   UNL d   1      60.940  49.189  50.405  0.00  0.00     0.105 A 
ENDBRANCH   2   3
ENDBRANCH   1   2
BRANCH   1  12
ATOM     12  C   UNL d   1      58.327  49.692  51.338  0.00  0.00     0.109 C 
BRANCH  12  13
ATOM     13  N   UNL d   1      57.668  49.625  51.850  0.00  0.00    -0.204 NA
ATOM     14  C   UNL d   1      56.923  49.453  51.544  0.00  0.00     0.302 C 
ATOM     15  O   UNL d   1      56.276  49.388  52.052  0.00  0.00    -0.263 OA
BRANCH  14  16
ATOM     16  C   UNL d   1      56.823  49.346  50.723  0.00  0.00     0.158 A 
ATOM     17  O   UNL d   1      56.268  48.920  50.281  0.00  0.00    -0.296 OA
ATOM     18  C   UNL d   1      56.453  49.022  49.484  0.00  0.00     0.134 A 
ATOM     19 BR   UNL d   1      56.039  48.691  48.840  0.00  0.00    -0.022 Br
ATOM     20  C   UNL d   1      57.116  49.506  49.429  0.00  0.00     0.034 A 
ATOM     21  C   UNL d   1      57.344  49.705  50.195  0.00  0.00     0.032 A 
ENDBRANCH  14  16
ENDBRANCH  12  13
ENDBRANCH   1  12
TORSDOF 5
ENDMDL
