MODEL 1
REMARK VINA RESULT:      75.3      0.000      0.000
REMARK  10 active torsions:
REMARK  status: ('A' for Active; 'I' for Inactive)
REMARK    1  A    between atoms: C_5  and  C_1 
REMARK    2  A    between atoms: N_6  and  C_2 
REMARK    3  A    between atoms: C_7  and  C_5 
REMARK    4  A    between atoms: C_8  and  C_5 
REMARK    5  A    between atoms: O_18  and  C_7 
REMARK    6  A    between atoms: C_22  and  O_18 
REMARK    7  A    between atoms: C_23  and  C_22 
REMARK    8  A    between atoms: C_26  and  C_23 
REMARK    9  A    between atoms: C_24  and  C_25 
REMARK   10  A    between atoms: C_25  and  C_26 
ROOT
ATOM      1  C   UNL d   1     -56.531 -99.381 -44.484  0.00  0.00     0.122 A 
ATOM      2  C   UNL d   1     -56.799 -99.091 -43.758  0.00  0.00     0.166 A 
ATOM      3  N   UNL d   1     -57.594 -98.887 -43.679  0.00  0.00    -0.225 NA
ATOM      4  N   UNL d   1     -57.051 -99.467 -45.123  0.00  0.00    -0.241 NA
ATOM      5  C   UNL d   1     -58.115 -98.969 -44.305  0.00  0.00     0.101 A 
ATOM      6  C   UNL d   1     -57.842 -99.261 -45.034  0.00  0.00     0.099 A 
ATOM      7  C   UNL d   1     -58.361 -99.344 -45.664  0.00  0.00     0.021 A 
ATOM      8  C   UNL d   1     -58.914 -98.762 -44.219  0.00  0.00     0.021 A 
ATOM      9  C   UNL d   1     -59.434 -98.848 -44.858  0.00  0.00     0.002 A 
ATOM     10  C   UNL d   1     -59.159 -99.137 -45.578  0.00  0.00     0.002 A 
ENDROOT
BRANCH   1  11
ATOM     11  C   UNL d   1     -55.728 -99.592 -44.582  0.00  0.00     0.105 C 
BRANCH  11  12
ATOM     12  C   UNL d   1     -55.487-100.377 -44.516  0.00  0.00     0.303 C 
ATOM     13  O   UNL d   1     -54.850-100.571 -44.026  0.00  0.00    -0.259 OA
BRANCH  12  14
ATOM     14  O   UNL d   1     -55.881-100.964 -44.937  0.00  0.00    -0.271 OA
BRANCH  14  15
ATOM     15  C   UNL d   1     -55.950-101.723 -44.605  0.00  0.00     0.126 C 
BRANCH  15  16
ATOM     16  C   UNL d   1     -55.286-102.205 -44.556  0.00  0.00     0.027 C 
BRANCH  16  17
ATOM     17  C   UNL d   1     -54.711-102.049 -43.988  0.00  0.00     0.002 C 
BRANCH  17  18
ATOM     18  C   UNL d   1     -54.934-101.920 -43.208  0.00  0.00     0.000 C 
BRANCH  18  19
ATOM     19  C   UNL d   1     -55.070-102.559 -42.704  0.00  0.00     0.000 C 
ATOM     20  C   UNL d   1     -55.525-102.454 -42.033  0.00  0.00     0.000 C 
ENDBRANCH  18  19
ENDBRANCH  17  18
ENDBRANCH  16  17
ENDBRANCH  15  16
ENDBRANCH  14  15
ENDBRANCH  12  14
ENDBRANCH  11  12
BRANCH  11  21
ATOM     21  C   UNL d   1     -55.160 -98.997 -44.750  0.00  0.00     0.129 C 
ATOM     22  N   UNL d   1     -54.915 -98.757 -45.639  0.00  0.00    -0.146 N 
ENDBRANCH  11  21
ENDBRANCH   1  11
BRANCH   2  23
ATOM     23  N   UNL d   1     -56.276 -99.008 -43.126  0.00  0.00    -0.285 N 
ATOM     24  C   UNL d   1     -56.566 -99.028 -42.349  0.00  0.00     0.101 A 
ATOM     25  C   UNL d   1     -56.054 -98.946 -41.711  0.00  0.00     0.100 A 
ATOM     26  N   UNL d   1     -55.242 -98.844 -41.849  0.00  0.00    -0.299 N 
ATOM     27  C   UNL d   1     -54.951 -98.825 -42.627  0.00  0.00     0.100 A 
ATOM     28  C   UNL d   1     -54.714 -98.761 -41.206  0.00  0.00     0.100 C 
ATOM     29  C   UNL d   1     -55.472 -98.907 -43.267  0.00  0.00     0.101 A 
ENDBRANCH   2  23
TORSDOF 10
ENDMDL
