MODEL 1
REMARK VINA RESULT:      62.5      0.000      0.000
REMARK  3 active torsions:
REMARK  status: ('A' for Active; 'I' for Inactive)
REMARK    1  A    between atoms: C_11  and  N_3 
REMARK    2  A    between atoms: C_10  and  N_6 
REMARK    3  A    between atoms: C_9  and  C_7 
ROOT
ATOM      1  C   UNL d   1      14.359  13.935  -2.552  0.00  0.00     0.106 A 
ATOM      2  C   UNL d   1      14.223  14.521  -3.142  0.00  0.00     0.186 A 
ATOM      3  N   UNL d   1      13.894  13.315  -3.664  0.00  0.00    -0.240 N 
ATOM      4  C   UNL d   1      13.939  14.111  -3.811  0.00  0.00     0.292 A 
ATOM      5  C   UNL d   1      14.160  13.207  -2.867  0.00  0.00     0.271 A 
ATOM      6  N   UNL d   1      14.676  15.149  -2.065  0.00  0.00    -0.211 N 
ATOM      7  C   UNL d   1      14.638  14.335  -1.891  0.00  0.00     0.117 A 
ATOM      8  O   UNL d   1      14.415  15.241  -2.842  0.00  0.00    -0.223 OA
ATOM      9  O   UNL d   1      14.203  12.474  -2.492  0.00  0.00    -0.266 OA
ATOM     10  O   UNL d   1      13.729  14.479  -4.539  0.00  0.00    -0.264 OA
ENDROOT
BRANCH   6  11
ATOM     11  C   UNL d   1      14.927  15.749  -1.556  0.00  0.00     0.088 A 
ATOM     12  C   UNL d   1      15.009  16.523  -1.855  0.00  0.00     0.021 A 
ATOM     13  C   UNL d   1      15.259  17.138  -1.361  0.00  0.00     0.013 A 
ATOM     14  C   UNL d   1      15.432  16.981  -0.550  0.00  0.00     0.058 A 
ATOM     15  C   UNL d   1      15.347  16.199  -0.259  0.00  0.00     0.013 A 
ATOM     16 CL   UNL d   1      15.678  17.569  -0.053  0.00  0.00    -0.082 Cl
ATOM     17  C   UNL d   1      15.097  15.599  -0.766  0.00  0.00     0.021 A 
ENDBRANCH   6  11
BRANCH   7  18
ATOM     18  C   UNL d   1      14.847  13.987  -1.176  0.00  0.00     0.118 A 
ATOM     19  O   UNL d   1      15.601  13.902  -0.846  0.00  0.00    -0.304 OA
ATOM     20  C   UNL d   1      15.529  13.516  -0.118  0.00  0.00     0.123 A 
ATOM     21  C   UNL d   1      14.709  13.369  -0.014  0.00  0.00     0.029 A 
ATOM     22  C   UNL d   1      14.318  13.657  -0.654  0.00  0.00     0.028 A 
ENDBRANCH   7  18
BRANCH   3  23
ATOM     23  C   UNL d   1      13.624  12.832  -4.270  0.00  0.00     0.070 A 
ATOM     24  C   UNL d   1      13.032  12.265  -4.139  0.00  0.00     0.018 A 
ATOM     25  C   UNL d   1      12.771  11.787  -4.757  0.00  0.00     0.002 A 
ATOM     26  C   UNL d   1      13.077  11.854  -5.496  0.00  0.00     0.000 A 
ATOM     27  C   UNL d   1      13.681  12.429  -5.638  0.00  0.00     0.002 A 
ATOM     28  C   UNL d   1      13.951  12.910  -5.039  0.00  0.00     0.018 A 
ENDBRANCH   3  23
TORSDOF 3
ENDMDL
MODEL 2
REMARK VINA RESULT:      65.3      1.837      4.520
REMARK  3 active torsions:
REMARK  status: ('A' for Active; 'I' for Inactive)
REMARK    1  A    between atoms: C_11  and  N_3 
REMARK    2  A    between atoms: C_10  and  N_6 
REMARK    3  A    between atoms: C_9  and  C_7 
ROOT
ATOM      1  C   UNL d   1      14.450  14.398  -2.250  0.00  0.00     0.106 A 
ATOM      2  C   UNL d   1      14.358  15.014  -2.817  0.00  0.00     0.186 A 
ATOM      3  N   UNL d   1      14.865  15.559  -1.685  0.00  0.00    -0.240 N 
ATOM      4  C   UNL d   1      14.620  15.712  -2.442  0.00  0.00     0.292 A 
ATOM      5  C   UNL d   1      14.756  14.727  -1.567  0.00  0.00     0.271 A 
ATOM      6  N   UNL d   1      13.946  13.891  -3.391  0.00  0.00    -0.211 N 
ATOM      7  C   UNL d   1      14.192  13.709  -2.616  0.00  0.00     0.117 A 
ATOM      8  O   UNL d   1      14.057  14.702  -3.493  0.00  0.00    -0.223 OA
ATOM      9  O   UNL d   1      14.938  14.334  -0.864  0.00  0.00    -0.266 OA
ATOM     10  O   UNL d   1      14.627  16.472  -2.806  0.00  0.00    -0.264 OA
ENDROOT
BRANCH   6  11
ATOM     11  C   UNL d   1      13.649  13.361  -3.949  0.00  0.00     0.088 A 
ATOM     12  C   UNL d   1      13.859  13.458  -4.750  0.00  0.00     0.021 A 
ATOM     13  C   UNL d   1      13.570  12.937  -5.325  0.00  0.00     0.013 A 
ATOM     14  C   UNL d   1      13.060  12.304  -5.098  0.00  0.00     0.058 A 
ATOM     15  C   UNL d   1      12.855  12.214  -4.291  0.00  0.00     0.013 A 
ATOM     16 CL   UNL d   1      12.769  11.785  -5.646  0.00  0.00    -0.082 Cl
ATOM     17  C   UNL d   1      13.152  12.743  -3.732  0.00  0.00     0.021 A 
ENDBRANCH   6  11
BRANCH   7  18
ATOM     18  C   UNL d   1      14.180  12.963  -2.272  0.00  0.00     0.118 A 
ATOM     19  O   UNL d   1      14.820  12.483  -2.061  0.00  0.00    -0.304 OA
ATOM     20  C   UNL d   1      14.530  11.781  -1.734  0.00  0.00     0.123 A 
ATOM     21  C   UNL d   1      13.693  11.848  -1.751  0.00  0.00     0.029 A 
ATOM     22  C   UNL d   1      13.503  12.558  -2.075  0.00  0.00     0.028 A 
ENDBRANCH   7  18
BRANCH   3  23
ATOM     23  C   UNL d   1      15.141  16.190  -1.239  0.00  0.00     0.070 A 
ATOM     24  C   UNL d   1      15.819  16.121  -0.766  0.00  0.00     0.018 A 
ATOM     25  C   UNL d   1      16.084  16.764  -0.324  0.00  0.00     0.002 A 
ATOM     26  C   UNL d   1      15.698  17.468  -0.337  0.00  0.00     0.000 A 
ATOM     27  C   UNL d   1      15.005  17.546  -0.816  0.00  0.00     0.002 A 
ATOM     28  C   UNL d   1      14.729  16.921  -1.260  0.00  0.00     0.018 A 
ENDBRANCH   3  23
TORSDOF 3
ENDMDL
