MODEL 1
REMARK VINA RESULT:      -6.2      0.000      0.000
REMARK  4 active torsions:
REMARK  status: ('A' for Active; 'I' for Inactive)
REMARK    1  A    between atoms: C_9  and  C_3 
REMARK    2  A    between atoms: C_11  and  C_8 
REMARK    3  A    between atoms: N_10  and  C_11 
REMARK    4  A    between atoms: C_18  and  N_10 
ROOT
ATOM      1  N   UNL d   1     -40.021  14.491  18.867  0.00  0.00    -0.267 N 
ATOM      2  C   UNL d   1     -40.723  14.419  19.294  0.00  0.00     0.201 A 
ATOM      3  C   UNL d   1     -40.158  14.199  18.104  0.00  0.00     0.171 A 
ATOM      4  N   UNL d   1     -40.939  13.952  18.069  0.00  0.00    -0.128 NA
ATOM      5  N   UNL d   1     -41.287  14.088  18.803  0.00  0.00    -0.121 NA
ATOM      6  S   UNL d   1     -40.586  14.711  20.057  0.00  0.00    -0.045 SA
ATOM      7  C   UNL d   1     -39.450  14.826  19.361  0.00  0.00     0.091 A 
ATOM      8  C   UNL d   1     -39.798  14.962  20.095  0.00  0.00     0.069 A 
ENDROOT
BRANCH   3   9
ATOM      9  C   UNL d   1     -39.599  14.167  17.492  0.00  0.00     0.036 A 
ATOM     10  C   UNL d   1     -39.523  14.807  16.978  0.00  0.00     0.004 A 
ATOM     11  C   UNL d   1     -38.969  14.782  16.366  0.00  0.00     0.007 A 
ATOM     12  C   UNL d   1     -38.494  14.114  16.274  0.00  0.00     0.035 A 
ATOM     13  C   UNL d   1     -38.565  13.476  16.782  0.00  0.00     0.007 A 
ATOM     14 BR   UNL d   1     -37.940  14.080  15.670  0.00  0.00    -0.049 Br
ATOM     15  C   UNL d   1     -39.124  13.508  17.394  0.00  0.00     0.004 A 
ENDBRANCH   3   9
BRANCH   8  16
ATOM     16  C   UNL d   1     -39.433  15.289  20.755  0.00  0.00     0.107 C 
BRANCH  16  17
ATOM     17  N   UNL d   1     -39.361  14.841  21.448  0.00  0.00    -0.243 NA
BRANCH  17  18
ATOM     18  C   UNL d   1     -39.020  15.175  22.125  0.00  0.00     0.081 A 
ATOM     19  C   UNL d   1     -38.861  14.619  22.713  0.00  0.00     0.019 A 
ATOM     20  C   UNL d   1     -38.523  15.032  23.350  0.00  0.00     0.002 A 
ATOM     21  C   UNL d   1     -38.479  15.833  23.145  0.00  0.00     0.002 A 
ATOM     22  C   UNL d   1     -38.786  15.922  22.388  0.00  0.00     0.019 A 
ENDBRANCH  17  18
ENDBRANCH  16  17
ENDBRANCH   8  16
TORSDOF 4
ENDMDL
MODEL 2
REMARK VINA RESULT:      -5.7      1.932      4.695
REMARK  4 active torsions:
REMARK  status: ('A' for Active; 'I' for Inactive)
REMARK    1  A    between atoms: C_9  and  C_3 
REMARK    2  A    between atoms: C_11  and  C_8 
REMARK    3  A    between atoms: N_10  and  C_11 
REMARK    4  A    between atoms: C_18  and  N_10 
ROOT
ATOM      1  N   UNL d   1     -40.118  15.299  20.035  0.00  0.00    -0.267 N 
ATOM      2  C   UNL d   1     -40.730  15.717  19.672  0.00  0.00     0.201 A 
ATOM      3  C   UNL d   1     -40.290  15.248  20.844  0.00  0.00     0.171 A 
ATOM      4  N   UNL d   1     -41.002  15.633  20.971  0.00  0.00    -0.128 NA
ATOM      5  N   UNL d   1     -41.273  15.922  20.249  0.00  0.00    -0.121 NA
ATOM      6  S   UNL d   1     -40.557  15.768  18.864  0.00  0.00    -0.045 SA
ATOM      7  C   UNL d   1     -39.567  15.091  19.455  0.00  0.00     0.091 A 
ATOM      8  C   UNL d   1     -39.839  15.380  18.733  0.00  0.00     0.069 A 
ENDROOT
BRANCH   3   9
ATOM      9  C   UNL d   1     -39.819  14.873  21.414  0.00  0.00     0.036 A 
ATOM     10  C   UNL d   1     -39.318  15.325  21.887  0.00  0.00     0.004 A 
ATOM     11  C   UNL d   1     -38.846  14.958  22.458  0.00  0.00     0.007 A 
ATOM     12  C   UNL d   1     -38.882  14.139  22.550  0.00  0.00     0.035 A 
ATOM     13  C   UNL d   1     -39.379  13.686  22.083  0.00  0.00     0.007 A 
ATOM     14 BR   UNL d   1     -38.417  13.765  23.114  0.00  0.00    -0.049 Br
ATOM     15  C   UNL d   1     -39.848  14.061  21.512  0.00  0.00     0.004 A 
ENDBRANCH   3   9
BRANCH   8  16
ATOM     16  C   UNL d   1     -39.465  15.301  18.005  0.00  0.00     0.107 C 
BRANCH  16  17
ATOM     17  N   UNL d   1     -39.405  14.552  17.654  0.00  0.00    -0.243 NA
BRANCH  17  18
ATOM     18  C   UNL d   1     -38.966  14.453  16.959  0.00  0.00     0.081 A 
ATOM     19  C   UNL d   1     -38.696  13.682  16.856  0.00  0.00     0.019 A 
ATOM     20  C   UNL d   1     -38.270  13.668  16.144  0.00  0.00     0.002 A 
ATOM     21  C   UNL d   1     -38.283  14.430  15.819  0.00  0.00     0.002 A 
ATOM     22  C   UNL d   1     -38.713  14.916  16.323  0.00  0.00     0.019 A 
ENDBRANCH  17  18
ENDBRANCH  16  17
ENDBRANCH   8  16
TORSDOF 4
ENDMDL
MODEL 3
REMARK VINA RESULT:      -5.5      1.689      2.099
REMARK  4 active torsions:
REMARK  status: ('A' for Active; 'I' for Inactive)
REMARK    1  A    between atoms: C_9  and  C_3 
REMARK    2  A    between atoms: C_11  and  C_8 
REMARK    3  A    between atoms: N_10  and  C_11 
REMARK    4  A    between atoms: C_18  and  N_10 
ROOT
ATOM      1  N   UNL d   1     -38.760  13.739  18.685  0.00  0.00    -0.267 N 
ATOM      2  C   UNL d   1     -38.249  13.096  18.755  0.00  0.00     0.201 A 
ATOM      3  C   UNL d   1     -39.069  13.735  17.916  0.00  0.00     0.171 A 
ATOM      4  N   UNL d   1     -38.747  13.092  17.522  0.00  0.00    -0.128 NA
ATOM      5  N   UNL d   1     -38.241  12.698  18.039  0.00  0.00    -0.121 NA
ATOM      6  S   UNL d   1     -37.940  13.100  19.523  0.00  0.00    -0.045 SA
ATOM      7  C   UNL d   1     -38.769  14.142  19.406  0.00  0.00     0.091 A 
ATOM      8  C   UNL d   1     -38.263  13.748  19.923  0.00  0.00     0.069 A 
ENDROOT
BRANCH   3   9
ATOM      9  C   UNL d   1     -39.607  14.286  17.609  0.00  0.00     0.036 A 
ATOM     10  C   UNL d   1     -40.398  14.250  17.837  0.00  0.00     0.004 A 
ATOM     11  C   UNL d   1     -40.941  14.796  17.536  0.00  0.00     0.007 A 
ATOM     12  C   UNL d   1     -40.684  15.375  17.007  0.00  0.00     0.035 A 
ATOM     13  C   UNL d   1     -39.899  15.414  16.778  0.00  0.00     0.007 A 
ATOM     14 BR   UNL d   1     -41.215  15.922  16.702  0.00  0.00    -0.049 Br
ATOM     15  C   UNL d   1     -39.361  14.863  17.084  0.00  0.00     0.004 A 
ENDBRANCH   3   9
BRANCH   8  16
ATOM     16  C   UNL d   1     -38.103  13.957  20.701  0.00  0.00     0.107 C 
BRANCH  16  17
ATOM     17  N   UNL d   1     -38.510  13.582  21.318  0.00  0.00    -0.243 NA
BRANCH  17  18
ATOM     18  C   UNL d   1     -38.426  13.853  22.097  0.00  0.00     0.081 A 
ATOM     19  C   UNL d   1     -38.844  13.399  22.642  0.00  0.00     0.019 A 
ATOM     20  C   UNL d   1     -38.708  13.734  23.390  0.00  0.00     0.002 A 
ATOM     21  C   UNL d   1     -38.209  14.389  23.293  0.00  0.00     0.002 A 
ATOM     22  C   UNL d   1     -38.035  14.462  22.494  0.00  0.00     0.019 A 
ENDBRANCH  17  18
ENDBRANCH  16  17
ENDBRANCH   8  16
TORSDOF 4
ENDMDL
MODEL 4
REMARK VINA RESULT:      -4.5      7.355      8.589
REMARK  4 active torsions:
REMARK  status: ('A' for Active; 'I' for Inactive)
REMARK    1  A    between atoms: C_9  and  C_3 
REMARK    2  A    between atoms: C_11  and  C_8 
REMARK    3  A    between atoms: N_10  and  C_11 
REMARK    4  A    between atoms: C_18  and  N_10 
ROOT
ATOM      1  N   UNL d   1     -46.120  12.564  23.032  0.00  0.00    -0.267 N 
ATOM      2  C   UNL d   1     -46.633  12.138  23.517  0.00  0.00     0.201 A 
ATOM      3  C   UNL d   1     -45.441  12.105  22.915  0.00  0.00     0.171 A 
ATOM      4  N   UNL d   1     -45.542  11.403  23.326  0.00  0.00    -0.128 NA
ATOM      5  N   UNL d   1     -46.277  11.423  23.698  0.00  0.00    -0.121 NA
ATOM      6  S   UNL d   1     -47.312  12.597  23.634  0.00  0.00    -0.045 SA
ATOM      7  C   UNL d   1     -46.478  13.286  22.848  0.00  0.00     0.091 A 
ATOM      8  C   UNL d   1     -47.213  13.306  23.219  0.00  0.00     0.069 A 
ENDROOT
BRANCH   3   9
ATOM      9  C   UNL d   1     -44.783  12.324  22.460  0.00  0.00     0.036 A 
ATOM     10  C   UNL d   1     -44.061  11.945  22.584  0.00  0.00     0.004 A 
ATOM     11  C   UNL d   1     -43.400  12.158  22.136  0.00  0.00     0.007 A 
ATOM     12  C   UNL d   1     -43.470  12.750  21.565  0.00  0.00     0.035 A 
ATOM     13  C   UNL d   1     -44.185  13.128  21.438  0.00  0.00     0.007 A 
ATOM     14 BR   UNL d   1     -42.819  12.968  21.114  0.00  0.00    -0.049 Br
ATOM     15  C   UNL d   1     -44.842  12.909  21.892  0.00  0.00     0.004 A 
ENDBRANCH   3   9
BRANCH   8  16
ATOM     16  C   UNL d   1     -47.758  13.921  23.187  0.00  0.00     0.107 C 
BRANCH  16  17
ATOM     17  N   UNL d   1     -48.427  13.851  22.703  0.00  0.00    -0.243 NA
BRANCH  17  18
ATOM     18  C   UNL d   1     -49.004  14.446  22.703  0.00  0.00     0.081 A 
ATOM     19  C   UNL d   1     -49.762  14.158  22.557  0.00  0.00     0.019 A 
ATOM     20  C   UNL d   1     -50.275  14.810  22.574  0.00  0.00     0.002 A 
ATOM     21  C   UNL d   1     -49.826  15.489  22.731  0.00  0.00     0.002 A 
ATOM     22  C   UNL d   1     -49.040  15.264  22.811  0.00  0.00     0.019 A 
ENDBRANCH  17  18
ENDBRANCH  16  17
ENDBRANCH   8  16
TORSDOF 4
ENDMDL
MODEL 5
REMARK VINA RESULT:      -3.5      2.297      4.768
REMARK  4 active torsions:
REMARK  status: ('A' for Active; 'I' for Inactive)
REMARK    1  A    between atoms: C_9  and  C_3 
REMARK    2  A    between atoms: C_11  and  C_8 
REMARK    3  A    between atoms: N_10  and  C_11 
REMARK    4  A    between atoms: C_18  and  N_10 
ROOT
ATOM      1  N   UNL d   1     -39.269  14.943  19.951  0.00  0.00    -0.267 N 
ATOM      2  C   UNL d   1     -38.650  15.485  20.007  0.00  0.00     0.201 A 
ATOM      3  C   UNL d   1     -39.750  15.036  20.619  0.00  0.00     0.171 A 
ATOM      4  N   UNL d   1     -39.424  15.632  21.078  0.00  0.00    -0.128 NA
ATOM      5  N   UNL d   1     -38.746  15.909  20.701  0.00  0.00    -0.121 NA
ATOM      6  S   UNL d   1     -38.169  15.392  19.339  0.00  0.00    -0.045 SA
ATOM      7  C   UNL d   1     -39.174  14.514  19.251  0.00  0.00     0.091 A 
ATOM      8  C   UNL d   1     -38.496  14.791  18.874  0.00  0.00     0.069 A 
ENDROOT
BRANCH   3   9
ATOM      9  C   UNL d   1     -40.436  14.600  20.784  0.00  0.00     0.036 A 
ATOM     10  C   UNL d   1     -41.173  14.923  20.609  0.00  0.00     0.004 A 
ATOM     11  C   UNL d   1     -41.862  14.495  20.771  0.00  0.00     0.007 A 
ATOM     12  C   UNL d   1     -41.803  13.744  21.108  0.00  0.00     0.035 A 
ATOM     13  C   UNL d   1     -41.072  13.419  21.283  0.00  0.00     0.007 A 
ATOM     14 BR   UNL d   1     -42.480  13.310  21.273  0.00  0.00    -0.049 Br
ATOM     15  C   UNL d   1     -40.387  13.855  21.118  0.00  0.00     0.004 A 
ENDBRANCH   3   9
BRANCH   8  16
ATOM     16  C   UNL d   1     -38.191  14.522  18.160  0.00  0.00     0.107 C 
BRANCH  16  17
ATOM     17  N   UNL d   1     -38.664  14.539  17.480  0.00  0.00    -0.243 NA
BRANCH  17  18
ATOM     18  C   UNL d   1     -38.387  14.207  16.773  0.00  0.00     0.081 A 
ATOM     19  C   UNL d   1     -38.285  14.764  16.175  0.00  0.00     0.019 A 
ATOM     20  C   UNL d   1     -38.008  14.354  15.507  0.00  0.00     0.002 A 
ATOM     21  C   UNL d   1     -37.945  13.552  15.705  0.00  0.00     0.002 A 
ATOM     22  C   UNL d   1     -38.179  13.461  16.487  0.00  0.00     0.019 A 
ENDBRANCH  17  18
ENDBRANCH  16  17
ENDBRANCH   8  16
TORSDOF 4
ENDMDL
MODEL 6
REMARK VINA RESULT:      -3.4      1.525      2.278
REMARK  4 active torsions:
REMARK  status: ('A' for Active; 'I' for Inactive)
REMARK    1  A    between atoms: C_9  and  C_3 
REMARK    2  A    between atoms: C_11  and  C_8 
REMARK    3  A    between atoms: N_10  and  C_11 
REMARK    4  A    between atoms: C_18  and  N_10 
ROOT
ATOM      1  N   UNL d   1     -38.665  13.886  17.531  0.00  0.00    -0.267 N 
ATOM      2  C   UNL d   1     -38.611  13.277  18.084  0.00  0.00     0.201 A 
ATOM      3  C   UNL d   1     -38.265  13.643  16.847  0.00  0.00     0.171 A 
ATOM      4  N   UNL d   1     -37.971  12.891  16.985  0.00  0.00    -0.128 NA
ATOM      5  N   UNL d   1     -38.185  12.665  17.748  0.00  0.00    -0.121 NA
ATOM      6  S   UNL d   1     -39.011  13.521  18.768  0.00  0.00    -0.045 SA
ATOM      7  C   UNL d   1     -39.095  14.506  17.868  0.00  0.00     0.091 A 
ATOM      8  C   UNL d   1     -39.308  14.280  18.631  0.00  0.00     0.069 A 
ENDROOT
BRANCH   3   9
ATOM      9  C   UNL d   1     -38.183  14.088  16.152  0.00  0.00     0.036 A 
ATOM     10  C   UNL d   1     -38.260  13.716  15.421  0.00  0.00     0.004 A 
ATOM     11  C   UNL d   1     -38.179  14.153  14.724  0.00  0.00     0.007 A 
ATOM     12  C   UNL d   1     -38.021  14.961  14.767  0.00  0.00     0.035 A 
ATOM     13  C   UNL d   1     -37.944  15.335  15.491  0.00  0.00     0.007 A 
ATOM     14 BR   UNL d   1     -37.940  15.404  14.080  0.00  0.00    -0.049 Br
ATOM     15  C   UNL d   1     -38.026  14.890  16.185  0.00  0.00     0.004 A 
ENDBRANCH   3   9
BRANCH   8  16
ATOM     16  C   UNL d   1     -39.741  14.727  19.168  0.00  0.00     0.107 C 
BRANCH  16  17
ATOM     17  N   UNL d   1     -39.359  15.071  19.818  0.00  0.00    -0.243 NA
BRANCH  17  18
ATOM     18  C   UNL d   1     -39.804  15.393  20.438  0.00  0.00     0.081 A 
ATOM     19  C   UNL d   1     -39.362  15.510  21.123  0.00  0.00     0.019 A 
ATOM     20  C   UNL d   1     -39.876  15.832  21.690  0.00  0.00     0.002 A 
ATOM     21  C   UNL d   1     -40.626  15.909  21.346  0.00  0.00     0.002 A 
ATOM     22  C   UNL d   1     -40.581  15.638  20.572  0.00  0.00     0.019 A 
ENDBRANCH  17  18
ENDBRANCH  16  17
ENDBRANCH   8  16
TORSDOF 4
ENDMDL
MODEL 7
REMARK VINA RESULT:      -3.3      2.020      2.962
REMARK  4 active torsions:
REMARK  status: ('A' for Active; 'I' for Inactive)
REMARK    1  A    between atoms: C_9  and  C_3 
REMARK    2  A    between atoms: C_11  and  C_8 
REMARK    3  A    between atoms: N_10  and  C_11 
REMARK    4  A    between atoms: C_18  and  N_10 
ROOT
ATOM      1  N   UNL d   1     -39.802  14.701  19.869  0.00  0.00    -0.267 N 
ATOM      2  C   UNL d   1     -39.706  15.083  20.594  0.00  0.00     0.201 A 
ATOM      3  C   UNL d   1     -39.114  14.825  19.424  0.00  0.00     0.171 A 
ATOM      4  N   UNL d   1     -38.604  15.280  19.877  0.00  0.00    -0.128 NA
ATOM      5  N   UNL d   1     -38.969  15.439  20.598  0.00  0.00    -0.121 NA
ATOM      6  S   UNL d   1     -40.394  14.960  21.038  0.00  0.00    -0.045 SA
ATOM      7  C   UNL d   1     -40.545  14.341  19.862  0.00  0.00     0.091 A 
ATOM      8  C   UNL d   1     -40.910  14.500  20.583  0.00  0.00     0.069 A 
ENDROOT
BRANCH   3   9
ATOM      9  C   UNL d   1     -38.975  14.536  18.659  0.00  0.00     0.036 A 
ATOM     10  C   UNL d   1     -39.140  15.015  18.010  0.00  0.00     0.004 A 
ATOM     11  C   UNL d   1     -39.005  14.735  17.244  0.00  0.00     0.007 A 
ATOM     12  C   UNL d   1     -38.704  13.974  17.137  0.00  0.00     0.035 A 
ATOM     13  C   UNL d   1     -38.539  13.494  17.780  0.00  0.00     0.007 A 
ATOM     14 BR   UNL d   1     -38.566  13.686  16.381  0.00  0.00    -0.049 Br
ATOM     15  C   UNL d   1     -38.677  13.783  18.544  0.00  0.00     0.004 A 
ENDBRANCH   3   9
BRANCH   8  16
ATOM     16  C   UNL d   1     -41.658  14.250  20.817  0.00  0.00     0.107 C 
BRANCH  16  17
ATOM     17  N   UNL d   1     -41.777  13.458  21.028  0.00  0.00    -0.243 NA
BRANCH  17  18
ATOM     18  C   UNL d   1     -42.538  13.188  21.214  0.00  0.00     0.081 A 
ATOM     19  C   UNL d   1     -42.533  12.498  21.664  0.00  0.00     0.019 A 
ATOM     20  C   UNL d   1     -43.327  12.296  21.806  0.00  0.00     0.002 A 
ATOM     21  C   UNL d   1     -43.807  12.864  21.440  0.00  0.00     0.002 A 
ATOM     22  C   UNL d   1     -43.320  13.415  21.074  0.00  0.00     0.019 A 
ENDBRANCH  17  18
ENDBRANCH  16  17
ENDBRANCH   8  16
TORSDOF 4
ENDMDL
