MODEL 1
REMARK VINA RESULT:       2.8      0.000      0.000
REMARK  5 active torsions:
REMARK  status: ('A' for Active; 'I' for Inactive)
REMARK    1  A    between atoms: C_6  and  N_1 
REMARK    2  A    between atoms: C_7  and  C_2 
REMARK    3  A    between atoms: C_12  and  C_6 
REMARK    4  A    between atoms: C_11  and  C_7 
REMARK       I    between atoms: C_8  and  N_10 
REMARK    5  A    between atoms: N_10  and  C_11 
ROOT
ATOM      1  N   UNL d   1     -41.264-123.003 -51.880  0.00  0.00    -0.289 N 
ATOM      2  C   UNL d   1     -41.209-122.183 -51.743  0.00  0.00     0.149 A 
ATOM      3  N   UNL d   1     -41.267-121.798 -52.473  0.00  0.00    -0.227 NA
ATOM      4  C   UNL d   1     -41.355-123.121 -52.695  0.00  0.00     0.083 A 
ATOM      5  C   UNL d   1     -41.357-122.374 -53.063  0.00  0.00     0.099 A 
ATOM      6  C   UNL d   1     -41.437-123.806 -53.154  0.00  0.00     0.019 A 
ATOM      7  C   UNL d   1     -41.441-122.318 -53.886  0.00  0.00     0.021 A 
ATOM      8  C   UNL d   1     -41.520-123.748 -53.970  0.00  0.00     0.002 A 
ATOM      9  C   UNL d   1     -41.522-123.008 -54.334  0.00  0.00     0.002 A 
ENDROOT
BRANCH   1  10
ATOM     10  C   UNL d   1     -41.233-123.597 -51.307  0.00  0.00     0.082 C 
BRANCH  10  11
ATOM     11  C   UNL d   1     -41.763-123.592 -50.676  0.00  0.00     0.018 A 
ATOM     12  C   UNL d   1     -42.572-123.589 -50.826  0.00  0.00     0.002 A 
ATOM     13  C   UNL d   1     -43.112-123.584 -50.194  0.00  0.00     0.000 A 
ATOM     14  C   UNL d   1     -42.823-123.582 -49.428  0.00  0.00     0.000 A 
ATOM     15  C   UNL d   1     -42.010-123.586 -49.279  0.00  0.00     0.000 A 
ATOM     16  C   UNL d   1     -41.480-123.591 -49.909  0.00  0.00     0.002 A 
ENDBRANCH  10  11
ENDBRANCH   1  10
BRANCH   2  17
ATOM     17  C   UNL d   1     -41.128-121.501 -51.290  0.00  0.00     0.058 C 
BRANCH  17  18
ATOM     18  C   UNL d   1     -41.380-120.778 -51.590  0.00  0.00     0.105 C 
BRANCH  18  19
ATOM     19  N   UNL d   1     -41.347-120.105 -51.118  0.00  0.00    -0.206 NA
ATOM     20  C   UNL d   1     -41.219-119.369 -51.457  0.00  0.00     0.280 C 
ATOM     21  O   UNL d   1     -41.124-119.306 -52.274  0.00  0.00    -0.265 OA
ATOM     22  C   UNL d   1     -41.186-118.693 -50.985  0.00  0.00     0.068 C 
ENDBRANCH  18  19
ENDBRANCH  17  18
ENDBRANCH   2  17
TORSDOF 5
ENDMDL
MODEL 2
REMARK VINA RESULT:       4.8      1.502      3.770
REMARK  5 active torsions:
REMARK  status: ('A' for Active; 'I' for Inactive)
REMARK    1  A    between atoms: C_6  and  N_1 
REMARK    2  A    between atoms: C_7  and  C_2 
REMARK    3  A    between atoms: C_12  and  C_6 
REMARK    4  A    between atoms: C_11  and  C_7 
REMARK       I    between atoms: C_8  and  N_10 
REMARK    5  A    between atoms: N_10  and  C_11 
ROOT
ATOM      1  N   UNL d   1     -41.473-122.377 -52.371  0.00  0.00    -0.289 N 
ATOM      2  C   UNL d   1     -41.854-122.709 -51.709  0.00  0.00     0.149 A 
ATOM      3  N   UNL d   1     -42.050-122.093 -51.192  0.00  0.00    -0.227 NA
ATOM      4  C   UNL d   1     -41.435-121.557 -52.261  0.00  0.00     0.083 A 
ATOM      5  C   UNL d   1     -41.793-121.380 -51.529  0.00  0.00     0.099 A 
ATOM      6  C   UNL d   1     -41.124-120.945 -52.725  0.00  0.00     0.019 A 
ATOM      7  C   UNL d   1     -41.836-120.594 -51.269  0.00  0.00     0.021 A 
ATOM      8  C   UNL d   1     -41.168-120.167 -52.465  0.00  0.00     0.002 A 
ATOM      9  C   UNL d   1     -41.523-119.992 -51.740  0.00  0.00     0.002 A 
ENDROOT
BRANCH   1  10
ATOM     10  C   UNL d   1     -41.183-122.790 -53.025  0.00  0.00     0.082 C 
BRANCH  10  11
ATOM     11  C   UNL d   1     -41.537-122.698 -53.763  0.00  0.00     0.018 A 
ATOM     12  C   UNL d   1     -42.304-122.405 -53.812  0.00  0.00     0.002 A 
ATOM     13  C   UNL d   1     -42.667-122.310 -54.553  0.00  0.00     0.000 A 
ATOM     14  C   UNL d   1     -42.247-122.513 -55.227  0.00  0.00     0.000 A 
ATOM     15  C   UNL d   1     -41.477-122.808 -55.176  0.00  0.00     0.000 A 
ATOM     16  C   UNL d   1     -41.123-122.900 -54.439  0.00  0.00     0.002 A 
ENDBRANCH  10  11
ENDBRANCH   1  10
BRANCH   2  17
ATOM     17  C   UNL d   1     -42.164-123.314 -51.245  0.00  0.00     0.058 C 
BRANCH  17  18
ATOM     18  C   UNL d   1     -41.995-123.341 -50.441  0.00  0.00     0.105 C 
BRANCH  18  19
ATOM     19  N   UNL d   1     -42.585-123.547 -49.905  0.00  0.00    -0.206 NA
ATOM     20  C   UNL d   1     -42.421-123.579 -49.103  0.00  0.00     0.280 C 
ATOM     21  O   UNL d   1     -41.661-123.405 -48.834  0.00  0.00    -0.265 OA
ATOM     22  C   UNL d   1     -43.011-123.785 -48.564  0.00  0.00     0.068 C 
ENDBRANCH  18  19
ENDBRANCH  17  18
ENDBRANCH   2  17
TORSDOF 5
ENDMDL
MODEL 3
REMARK VINA RESULT:       5.0      2.030      3.217
REMARK  5 active torsions:
REMARK  status: ('A' for Active; 'I' for Inactive)
REMARK    1  A    between atoms: C_6  and  N_1 
REMARK    2  A    between atoms: C_7  and  C_2 
REMARK    3  A    between atoms: C_12  and  C_6 
REMARK    4  A    between atoms: C_11  and  C_7 
REMARK       I    between atoms: C_8  and  N_10 
REMARK    5  A    between atoms: N_10  and  C_11 
ROOT
ATOM      1  N   UNL d   1     -41.954-122.656 -50.629  0.00  0.00    -0.289 N 
ATOM      2  C   UNL d   1     -41.655-123.323 -50.230  0.00  0.00     0.149 A 
ATOM      3  N   UNL d   1     -41.297-123.817 -50.789  0.00  0.00    -0.227 NA
ATOM      4  C   UNL d   1     -41.779-122.741 -51.435  0.00  0.00     0.083 A 
ATOM      5  C   UNL d   1     -41.372-123.461 -51.534  0.00  0.00     0.099 A 
ATOM      6  C   UNL d   1     -41.935-122.262 -52.093  0.00  0.00     0.019 A 
ATOM      7  C   UNL d   1     -41.124-123.694 -52.290  0.00  0.00     0.021 A 
ATOM      8  C   UNL d   1     -41.688-122.496 -52.841  0.00  0.00     0.002 A 
ATOM      9  C   UNL d   1     -41.284-123.209 -52.939  0.00  0.00     0.002 A 
ENDROOT
BRANCH   1  10
ATOM     10  C   UNL d   1     -42.355-122.021 -50.286  0.00  0.00     0.082 C 
BRANCH  10  11
ATOM     11  C   UNL d   1     -43.178-122.019 -50.254  0.00  0.00     0.018 A 
ATOM     12  C   UNL d   1     -43.561-122.428 -49.651  0.00  0.00     0.002 A 
ATOM     13  C   UNL d   1     -44.391-122.430 -49.613  0.00  0.00     0.000 A 
ATOM     14  C   UNL d   1     -44.814-122.020 -50.182  0.00  0.00     0.000 A 
ATOM     15  C   UNL d   1     -44.427-121.609 -50.787  0.00  0.00     0.000 A 
ATOM     16  C   UNL d   1     -43.605-121.611 -50.820  0.00  0.00     0.002 A 
ENDBRANCH  10  11
ENDBRANCH   1  10
BRANCH   2  17
ATOM     17  C   UNL d   1     -41.499-123.801 -49.578  0.00  0.00     0.058 C 
BRANCH  17  18
ATOM     18  C   UNL d   1     -41.123-123.485 -48.919  0.00  0.00     0.105 C 
BRANCH  18  19
ATOM     19  N   UNL d   1     -41.249-123.817 -48.177  0.00  0.00    -0.206 NA
ATOM     20  C   UNL d   1     -41.310-123.337 -47.515  0.00  0.00     0.280 C 
ATOM     21  O   UNL d   1     -41.245-122.519 -47.595  0.00  0.00    -0.265 OA
ATOM     22  C   UNL d   1     -41.436-123.669 -46.770  0.00  0.00     0.068 C 
ENDBRANCH  18  19
ENDBRANCH  17  18
ENDBRANCH   2  17
TORSDOF 5
ENDMDL
MODEL 4
REMARK VINA RESULT:       5.6      0.825      2.810
REMARK  5 active torsions:
REMARK  status: ('A' for Active; 'I' for Inactive)
REMARK    1  A    between atoms: C_6  and  N_1 
REMARK    2  A    between atoms: C_7  and  C_2 
REMARK    3  A    between atoms: C_12  and  C_6 
REMARK    4  A    between atoms: C_11  and  C_7 
REMARK       I    between atoms: C_8  and  N_10 
REMARK    5  A    between atoms: N_10  and  C_11 
ROOT
ATOM      1  N   UNL d   1     -41.513-122.564 -51.125  0.00  0.00    -0.289 N 
ATOM      2  C   UNL d   1     -41.423-121.749 -50.978  0.00  0.00     0.149 A 
ATOM      3  N   UNL d   1     -41.903-121.551 -50.334  0.00  0.00    -0.227 NA
ATOM      4  C   UNL d   1     -42.051-122.867 -50.572  0.00  0.00     0.083 A 
ATOM      5  C   UNL d   1     -42.292-122.238 -50.081  0.00  0.00     0.099 A 
ATOM      6  C   UNL d   1     -42.353-123.628 -50.446  0.00  0.00     0.019 A 
ATOM      7  C   UNL d   1     -42.835-122.377 -49.469  0.00  0.00     0.021 A 
ATOM      8  C   UNL d   1     -42.891-123.762 -49.839  0.00  0.00     0.002 A 
ATOM      9  C   UNL d   1     -43.130-123.140 -49.353  0.00  0.00     0.002 A 
ENDROOT
BRANCH   1  10
ATOM     10  C   UNL d   1     -41.136-122.998 -51.719  0.00  0.00     0.082 C 
BRANCH  10  11
ATOM     11  C   UNL d   1     -41.452-123.022 -52.479  0.00  0.00     0.018 A 
ATOM     12  C   UNL d   1     -42.057-123.555 -52.650  0.00  0.00     0.002 A 
ATOM     13  C   UNL d   1     -42.380-123.584 -53.415  0.00  0.00     0.000 A 
ATOM     14  C   UNL d   1     -42.087-123.078 -53.987  0.00  0.00     0.000 A 
ATOM     15  C   UNL d   1     -41.480-122.544 -53.814  0.00  0.00     0.000 A 
ATOM     16  C   UNL d   1     -41.163-122.519 -53.054  0.00  0.00     0.002 A 
ENDBRANCH  10  11
ENDBRANCH   1  10
BRANCH   2  17
ATOM     17  C   UNL d   1     -41.124-120.993 -51.100  0.00  0.00     0.058 C 
BRANCH  17  18
ATOM     18  C   UNL d   1     -41.525-120.468 -51.591  0.00  0.00     0.105 C 
BRANCH  18  19
ATOM     19  N   UNL d   1     -41.431-119.657 -51.488  0.00  0.00    -0.206 NA
ATOM     20  C   UNL d   1     -41.230-119.181 -52.125  0.00  0.00     0.280 C 
ATOM     21  O   UNL d   1     -41.123-119.518 -52.870  0.00  0.00    -0.265 OA
ATOM     22  C   UNL d   1     -41.135-118.368 -52.023  0.00  0.00     0.068 C 
ENDBRANCH  18  19
ENDBRANCH  17  18
ENDBRANCH   2  17
TORSDOF 5
ENDMDL
MODEL 5
REMARK VINA RESULT:       5.7      1.601      3.786
REMARK  5 active torsions:
REMARK  status: ('A' for Active; 'I' for Inactive)
REMARK    1  A    between atoms: C_6  and  N_1 
REMARK    2  A    between atoms: C_7  and  C_2 
REMARK    3  A    between atoms: C_12  and  C_6 
REMARK    4  A    between atoms: C_11  and  C_7 
REMARK       I    between atoms: C_8  and  N_10 
REMARK    5  A    between atoms: N_10  and  C_11 
ROOT
ATOM      1  N   UNL d   1     -42.244-122.624 -49.396  0.00  0.00    -0.289 N 
ATOM      2  C   UNL d   1     -41.649-122.947 -49.881  0.00  0.00     0.149 A 
ATOM      3  N   UNL d   1     -41.136-123.383 -49.400  0.00  0.00    -0.227 NA
ATOM      4  C   UNL d   1     -42.097-122.862 -48.616  0.00  0.00     0.083 A 
ATOM      5  C   UNL d   1     -41.409-123.333 -48.618  0.00  0.00     0.099 A 
ATOM      6  C   UNL d   1     -42.493-122.715 -47.903  0.00  0.00     0.019 A 
ATOM      7  C   UNL d   1     -41.124-123.652 -47.908  0.00  0.00     0.021 A 
ATOM      8  C   UNL d   1     -42.208-123.033 -47.201  0.00  0.00     0.002 A 
ATOM      9  C   UNL d   1     -41.527-123.499 -47.203  0.00  0.00     0.002 A 
ENDROOT
BRANCH   1  10
ATOM     10  C   UNL d   1     -42.873-122.150 -49.645  0.00  0.00     0.082 C 
BRANCH  10  11
ATOM     11  C   UNL d   1     -43.589-122.493 -49.864  0.00  0.00     0.018 A 
ATOM     12  C   UNL d   1     -44.070-122.113 -50.413  0.00  0.00     0.002 A 
ATOM     13  C   UNL d   1     -44.794-122.454 -50.638  0.00  0.00     0.000 A 
ATOM     14  C   UNL d   1     -45.015-123.168 -50.304  0.00  0.00     0.000 A 
ATOM     15  C   UNL d   1     -44.530-123.549 -49.753  0.00  0.00     0.000 A 
ATOM     16  C   UNL d   1     -43.815-123.207 -49.534  0.00  0.00     0.002 A 
ENDBRANCH  10  11
ENDBRANCH   1  10
BRANCH   2  17
ATOM     17  C   UNL d   1     -41.254-123.095 -50.587  0.00  0.00     0.058 C 
BRANCH  17  18
ATOM     18  C   UNL d   1     -41.285-122.544 -51.197  0.00  0.00     0.105 C 
BRANCH  18  19
ATOM     19  N   UNL d   1     -41.274-122.798 -51.980  0.00  0.00    -0.206 NA
ATOM     20  C   UNL d   1     -41.194-122.256 -52.589  0.00  0.00     0.280 C 
ATOM     21  O   UNL d   1     -41.125-121.452 -52.414  0.00  0.00    -0.265 OA
ATOM     22  C   UNL d   1     -41.183-122.509 -53.374  0.00  0.00     0.068 C 
ENDBRANCH  18  19
ENDBRANCH  17  18
ENDBRANCH   2  17
TORSDOF 5
ENDMDL
