MODEL 1
REMARK VINA RESULT:      99.0      0.000      0.000
REMARK  3 active torsions:
REMARK  status: ('A' for Active; 'I' for Inactive)
REMARK    1  A    between atoms: C_2  and  C_1 
REMARK    2  A    between atoms: C_14  and  O_17 
REMARK    3  A    between atoms: O_17  and  C_16 
ROOT
ATOM      1  C   UNL d   1      61.447  46.590  50.212  0.00  0.00     0.087 A 
ATOM      2  C   UNL d   1      61.296  45.903  50.651  0.00  0.00     0.201 A 
ATOM      3  C   UNL d   1      61.591  45.169  50.416  0.00  0.00     0.062 A 
ATOM      4  C   UNL d   1      61.904  46.531  49.524  0.00  0.00     0.128 A 
ATOM      5  C   UNL d   1      62.050  45.110  49.724  0.00  0.00     0.105 A 
ATOM      6  O   UNL d   1      62.207  45.786  49.278  0.00  0.00    -0.305 OA
ATOM      7  C   UNL d   1      62.344  44.376  49.489  0.00  0.00     0.050 A 
ATOM      8  C   UNL d   1      61.442  44.487  50.851  0.00  0.00     0.007 A 
ATOM      9  O   UNL d   1      60.841  45.948  51.342  0.00  0.00    -0.286 OA
ATOM     10  C   UNL d   1      62.186  43.709  49.934  0.00  0.00     0.105 A 
ATOM     11  C   UNL d   1      61.727  43.768  50.626  0.00  0.00     0.025 A 
ENDROOT
BRANCH   1  12
ATOM     12  C   UNL d   1      61.154  47.314  50.448  0.00  0.00     0.116 A 
ATOM     13  N   UNL d   1      60.553  47.740  50.072  0.00  0.00    -0.238 NA
ATOM     14  C   UNL d   1      60.440  48.437  50.500  0.00  0.00     0.088 A 
ATOM     15  C   UNL d   1      59.924  49.063  50.389  0.00  0.00     0.020 A 
ATOM     16  C   UNL d   1      60.962  48.445  51.133  0.00  0.00     0.049 A 
ATOM     17  C   UNL d   1      59.921  49.708  50.908  0.00  0.00     0.002 A 
ATOM     18  C   UNL d   1      60.455  49.707  51.547  0.00  0.00     0.001 A 
ATOM     19  C   UNL d   1      60.971  49.081  51.659  0.00  0.00     0.008 A 
ATOM     20  S   UNL d   1      61.418  47.746  51.113  0.00  0.00    -0.066 SA
ENDBRANCH   1  12
BRANCH  10  21
ATOM     21  O   UNL d   1      62.489  42.974  49.687  0.00  0.00    -0.273 OA
BRANCH  21  22
ATOM     22  C   UNL d   1      62.901  42.493  50.211  0.00  0.00     0.300 C 
ATOM     23  O   UNL d   1      63.069  42.753  50.977  0.00  0.00    -0.259 OA
ATOM     24  C   UNL d   1      63.156  41.735  49.974  0.00  0.00     0.074 C 
ENDBRANCH  21  22
ENDBRANCH  10  21
TORSDOF 3
ENDMDL
