MODEL 1
REMARK VINA RESULT:      -7.4      0.000      0.000
REMARK  8 active torsions:
REMARK  status: ('A' for Active; 'I' for Inactive)
REMARK    1  A    between atoms: C_9  and  C_2 
REMARK    2  A    between atoms: S_7  and  C_4 
REMARK    3  A    between atoms: C_6  and  C_13 
REMARK       I    between atoms: N_10  and  C_6 
REMARK    4  A    between atoms: C_13  and  S_7 
REMARK    5  A    between atoms: C_8  and  C_14 
REMARK    6  A    between atoms: O_15  and  C_8 
REMARK    7  A    between atoms: C_14  and  N_10 
REMARK    8  A    between atoms: C_18  and  O_15 
ROOT
ATOM      1  N   UNL d   1      52.408  33.961  53.388  0.00  0.00    -0.212 NA
ATOM      2  C   UNL d   1      52.868  33.330  53.632  0.00  0.00     0.171 A 
ATOM      3  N   UNL d   1      52.516  32.633  53.361  0.00  0.00    -0.188 NA
ATOM      4  C   UNL d   1      51.765  33.669  52.963  0.00  0.00     0.160 A 
ATOM      5  S   UNL d   1      51.834  32.842  52.947  0.00  0.00     0.041 SA
ENDROOT
BRANCH   4   6
ATOM      6  S   UNL d   1      51.160  34.110  52.615  0.00  0.00    -0.054 SA
BRANCH   6   7
ATOM      7  C   UNL d   1      50.438  34.182  52.990  0.00  0.00     0.100 C 
BRANCH   7   8
ATOM      8  C   UNL d   1      49.816  34.603  52.636  0.00  0.00     0.286 C 
ATOM      9  N   UNL d   1      49.338  35.091  53.096  0.00  0.00    -0.200 NA
ATOM     10  O   UNL d   1      49.687  34.527  51.828  0.00  0.00    -0.265 OA
BRANCH   9  11
ATOM     11  C   UNL d   1      48.723  35.505  52.736  0.00  0.00     0.171 C 
BRANCH  11  12
ATOM     12  C   UNL d   1      48.229  35.984  53.206  0.00  0.00     0.320 C 
ATOM     13  O   UNL d   1      48.558  36.493  53.768  0.00  0.00    -0.257 OA
BRANCH  12  14
ATOM     14  O   UNL d   1      47.406  35.942  53.100  0.00  0.00    -0.270 OA
BRANCH  14  15
ATOM     15  C   UNL d   1      46.951  36.634  53.180  0.00  0.00     0.126 C 
ATOM     16  C   UNL d   1      46.154  36.617  53.002  0.00  0.00     0.029 C 
ENDBRANCH  14  15
ENDBRANCH  12  14
ENDBRANCH  11  12
ENDBRANCH   9  11
ENDBRANCH   7   8
ENDBRANCH   6   7
ENDBRANCH   4   6
BRANCH   2  17
ATOM     17  C   UNL d   1      53.565  33.372  54.073  0.00  0.00     0.036 A 
ATOM     18  C   UNL d   1      53.574  33.716  54.831  0.00  0.00     0.003 A 
ATOM     19  C   UNL d   1      54.263  33.756  55.262  0.00  0.00     0.000 A 
ATOM     20  C   UNL d   1      54.958  33.452  54.947  0.00  0.00     0.000 A 
ATOM     21  C   UNL d   1      54.957  33.108  54.192  0.00  0.00     0.000 A 
ATOM     22  C   UNL d   1      54.259  33.073  53.767  0.00  0.00     0.003 A 
ENDBRANCH   2  17
TORSDOF 8
ENDMDL
MODEL 2
REMARK VINA RESULT:      -7.1      1.226      1.619
REMARK  8 active torsions:
REMARK  status: ('A' for Active; 'I' for Inactive)
REMARK    1  A    between atoms: C_9  and  C_2 
REMARK    2  A    between atoms: S_7  and  C_4 
REMARK    3  A    between atoms: C_6  and  C_13 
REMARK       I    between atoms: N_10  and  C_6 
REMARK    4  A    between atoms: C_13  and  S_7 
REMARK    5  A    between atoms: C_8  and  C_14 
REMARK    6  A    between atoms: O_15  and  C_8 
REMARK    7  A    between atoms: C_14  and  N_10 
REMARK    8  A    between atoms: C_18  and  O_15 
ROOT
ATOM      1  N   UNL d   1      51.906  32.893  52.797  0.00  0.00    -0.212 NA
ATOM      2  C   UNL d   1      52.576  32.679  53.215  0.00  0.00     0.171 A 
ATOM      3  N   UNL d   1      52.875  33.353  53.588  0.00  0.00    -0.188 NA
ATOM      4  C   UNL d   1      51.777  33.701  52.903  0.00  0.00     0.160 A 
ATOM      5  S   UNL d   1      52.381  33.985  53.396  0.00  0.00     0.041 SA
ENDROOT
BRANCH   4   6
ATOM      6  S   UNL d   1      51.163  34.150  52.583  0.00  0.00    -0.054 SA
BRANCH   6   7
ATOM      7  C   UNL d   1      50.474  34.264  53.007  0.00  0.00     0.100 C 
BRANCH   7   8
ATOM      8  C   UNL d   1      49.820  34.640  52.661  0.00  0.00     0.286 C 
ATOM      9  N   UNL d   1      49.339  35.128  53.117  0.00  0.00    -0.200 NA
ATOM     10  O   UNL d   1      49.662  34.519  51.864  0.00  0.00    -0.265 OA
BRANCH   9  11
ATOM     11  C   UNL d   1      48.692  35.497  52.765  0.00  0.00     0.171 C 
BRANCH  11  12
ATOM     12  C   UNL d   1      48.209  35.993  53.227  0.00  0.00     0.320 C 
ATOM     13  O   UNL d   1      48.551  36.528  53.758  0.00  0.00    -0.257 OA
BRANCH  12  14
ATOM     14  O   UNL d   1      47.384  35.944  53.147  0.00  0.00    -0.270 OA
BRANCH  14  15
ATOM     15  C   UNL d   1      46.931  36.642  53.178  0.00  0.00     0.126 C 
ATOM     16  C   UNL d   1      46.126  36.608  53.040  0.00  0.00     0.029 C 
ENDBRANCH  14  15
ENDBRANCH  12  14
ENDBRANCH  11  12
ENDBRANCH   9  11
ENDBRANCH   7   8
ENDBRANCH   6   7
ENDBRANCH   4   6
BRANCH   2  17
ATOM     17  C   UNL d   1      52.905  31.923  53.261  0.00  0.00     0.036 A 
ATOM     18  C   UNL d   1      52.513  31.263  52.937  0.00  0.00     0.003 A 
ATOM     19  C   UNL d   1      52.840  30.519  52.985  0.00  0.00     0.000 A 
ATOM     20  C   UNL d   1      53.565  30.418  53.357  0.00  0.00     0.000 A 
ATOM     21  C   UNL d   1      53.962  31.070  53.682  0.00  0.00     0.000 A 
ATOM     22  C   UNL d   1      53.624  31.813  53.628  0.00  0.00     0.003 A 
ENDBRANCH   2  17
TORSDOF 8
ENDMDL
MODEL 3
REMARK VINA RESULT:      -6.9      1.652      2.113
REMARK  8 active torsions:
REMARK  status: ('A' for Active; 'I' for Inactive)
REMARK    1  A    between atoms: C_9  and  C_2 
REMARK    2  A    between atoms: S_7  and  C_4 
REMARK    3  A    between atoms: C_6  and  C_13 
REMARK       I    between atoms: N_10  and  C_6 
REMARK    4  A    between atoms: C_13  and  S_7 
REMARK    5  A    between atoms: C_8  and  C_14 
REMARK    6  A    between atoms: O_15  and  C_8 
REMARK    7  A    between atoms: C_14  and  N_10 
REMARK    8  A    between atoms: C_18  and  O_15 
ROOT
ATOM      1  N   UNL d   1      51.862  32.773  53.250  0.00  0.00    -0.212 NA
ATOM      2  C   UNL d   1      52.630  32.513  53.139  0.00  0.00     0.171 A 
ATOM      3  N   UNL d   1      53.096  33.163  52.931  0.00  0.00    -0.188 NA
ATOM      4  C   UNL d   1      51.837  33.586  53.113  0.00  0.00     0.160 A 
ATOM      5  S   UNL d   1      52.606  33.826  52.915  0.00  0.00     0.041 SA
ENDROOT
BRANCH   4   6
ATOM      6  S   UNL d   1      51.175  34.076  53.162  0.00  0.00    -0.054 SA
BRANCH   6   7
ATOM      7  C   UNL d   1      50.667  34.142  52.525  0.00  0.00     0.100 C 
BRANCH   7   8
ATOM      8  C   UNL d   1      49.952  34.558  52.595  0.00  0.00     0.286 C 
ATOM      9  N   UNL d   1      49.421  34.568  51.966  0.00  0.00    -0.200 NA
ATOM     10  O   UNL d   1      49.784  34.954  53.295  0.00  0.00    -0.265 OA
BRANCH   9  11
ATOM     11  C   UNL d   1      48.714  34.983  52.044  0.00  0.00     0.171 C 
BRANCH  11  12
ATOM     12  C   UNL d   1      48.195  35.025  51.394  0.00  0.00     0.320 C 
ATOM     13  O   UNL d   1      48.253  34.473  50.781  0.00  0.00    -0.257 OA
BRANCH  12  14
ATOM     14  O   UNL d   1      47.623  35.627  51.370  0.00  0.00    -0.270 OA
BRANCH  14  15
ATOM     15  C   UNL d   1      46.819  35.420  51.307  0.00  0.00     0.126 C 
ATOM     16  C   UNL d   1      46.245  35.973  51.488  0.00  0.00     0.029 C 
ENDBRANCH  14  15
ENDBRANCH  12  14
ENDBRANCH  11  12
ENDBRANCH   9  11
ENDBRANCH   7   8
ENDBRANCH   6   7
ENDBRANCH   4   6
BRANCH   2  17
ATOM     17  C   UNL d   1      52.902  31.737  53.219  0.00  0.00     0.036 A 
ATOM     18  C   UNL d   1      52.508  31.104  52.851  0.00  0.00     0.003 A 
ATOM     19  C   UNL d   1      52.779  30.340  52.932  0.00  0.00     0.000 A 
ATOM     20  C   UNL d   1      53.450  30.194  53.383  0.00  0.00     0.000 A 
ATOM     21  C   UNL d   1      53.848  30.820  53.753  0.00  0.00     0.000 A 
ATOM     22  C   UNL d   1      53.567  31.583  53.665  0.00  0.00     0.003 A 
ENDBRANCH   2  17
TORSDOF 8
ENDMDL
MODEL 4
REMARK VINA RESULT:      -6.3      3.078      5.965
REMARK  8 active torsions:
REMARK  status: ('A' for Active; 'I' for Inactive)
REMARK    1  A    between atoms: C_9  and  C_2 
REMARK    2  A    between atoms: S_7  and  C_4 
REMARK    3  A    between atoms: C_6  and  C_13 
REMARK       I    between atoms: N_10  and  C_6 
REMARK    4  A    between atoms: C_13  and  S_7 
REMARK    5  A    between atoms: C_8  and  C_14 
REMARK    6  A    between atoms: O_15  and  C_8 
REMARK    7  A    between atoms: C_14  and  N_10 
REMARK    8  A    between atoms: C_18  and  O_15 
ROOT
ATOM      1  N   UNL d   1      51.505  33.591  53.047  0.00  0.00    -0.212 NA
ATOM      2  C   UNL d   1      51.181  34.326  52.893  0.00  0.00     0.171 A 
ATOM      3  N   UNL d   1      51.742  34.901  53.087  0.00  0.00    -0.188 NA
ATOM      4  C   UNL d   1      52.269  33.695  53.338  0.00  0.00     0.160 A 
ATOM      5  S   UNL d   1      52.415  34.511  53.363  0.00  0.00     0.041 SA
ENDROOT
BRANCH   4   6
ATOM      6  S   UNL d   1      52.797  33.103  53.566  0.00  0.00    -0.054 SA
BRANCH   6   7
ATOM      7  C   UNL d   1      52.954  32.479  53.062  0.00  0.00     0.100 C 
BRANCH   7   8
ATOM      8  C   UNL d   1      53.384  31.820  53.325  0.00  0.00     0.286 C 
ATOM      9  N   UNL d   1      53.039  31.072  53.309  0.00  0.00    -0.200 NA
ATOM     10  O   UNL d   1      54.152  31.923  53.599  0.00  0.00    -0.265 OA
BRANCH   9  11
ATOM     11  C   UNL d   1      53.474  30.424  53.572  0.00  0.00     0.171 C 
BRANCH  11  12
ATOM     12  C   UNL d   1      53.080  29.705  53.718  0.00  0.00     0.320 C 
ATOM     13  O   UNL d   1      52.714  29.299  53.097  0.00  0.00    -0.257 OA
BRANCH  12  14
ATOM     14  O   UNL d   1      53.059  29.404  54.492  0.00  0.00    -0.270 OA
BRANCH  14  15
ATOM     15  C   UNL d   1      53.435  28.679  54.656  0.00  0.00     0.126 C 
ATOM     16  C   UNL d   1      53.452  28.398  55.423  0.00  0.00     0.029 C 
ENDBRANCH  14  15
ENDBRANCH  12  14
ENDBRANCH  11  12
ENDBRANCH   9  11
ENDBRANCH   7   8
ENDBRANCH   6   7
ENDBRANCH   4   6
BRANCH   2  17
ATOM     17  C   UNL d   1      50.426  34.478  52.595  0.00  0.00     0.036 A 
ATOM     18  C   UNL d   1      50.227  34.282  51.811  0.00  0.00     0.003 A 
ATOM     19  C   UNL d   1      49.481  34.433  51.520  0.00  0.00     0.000 A 
ATOM     20  C   UNL d   1      48.920  34.784  52.006  0.00  0.00     0.000 A 
ATOM     21  C   UNL d   1      49.111  34.983  52.788  0.00  0.00     0.000 A 
ATOM     22  C   UNL d   1      49.863  34.826  53.070  0.00  0.00     0.003 A 
ENDBRANCH   2  17
TORSDOF 8
ENDMDL
MODEL 5
REMARK VINA RESULT:      -5.9      2.258      5.991
REMARK  8 active torsions:
REMARK  status: ('A' for Active; 'I' for Inactive)
REMARK    1  A    between atoms: C_9  and  C_2 
REMARK    2  A    between atoms: S_7  and  C_4 
REMARK    3  A    between atoms: C_6  and  C_13 
REMARK       I    between atoms: N_10  and  C_6 
REMARK    4  A    between atoms: C_13  and  S_7 
REMARK    5  A    between atoms: C_8  and  C_14 
REMARK    6  A    between atoms: O_15  and  C_8 
REMARK    7  A    between atoms: C_14  and  N_10 
REMARK    8  A    between atoms: C_18  and  O_15 
ROOT
ATOM      1  N   UNL d   1      49.652  34.904  53.064  0.00  0.00    -0.212 NA
ATOM      2  C   UNL d   1      49.085  35.088  52.505  0.00  0.00     0.171 A 
ATOM      3  N   UNL d   1      49.282  34.706  51.800  0.00  0.00    -0.188 NA
ATOM      4  C   UNL d   1      50.211  34.405  52.719  0.00  0.00     0.160 A 
ATOM      5  S   UNL d   1      49.979  34.283  51.932  0.00  0.00     0.041 SA
ENDROOT
BRANCH   4   6
ATOM      6  S   UNL d   1      50.879  34.083  53.081  0.00  0.00    -0.054 SA
BRANCH   6   7
ATOM      7  C   UNL d   1      51.432  33.680  52.635  0.00  0.00     0.100 C 
BRANCH   7   8
ATOM      8  C   UNL d   1      52.064  33.285  53.000  0.00  0.00     0.286 C 
ATOM      9  N   UNL d   1      52.237  32.507  52.791  0.00  0.00    -0.200 NA
ATOM     10  O   UNL d   1      52.511  33.677  53.567  0.00  0.00    -0.265 OA
BRANCH   9  11
ATOM     11  C   UNL d   1      52.866  32.123  53.158  0.00  0.00     0.171 C 
BRANCH  11  12
ATOM     12  C   UNL d   1      52.985  31.312  53.012  0.00  0.00     0.320 C 
ATOM     13  O   UNL d   1      52.892  31.010  52.248  0.00  0.00    -0.257 OA
BRANCH  12  14
ATOM     14  O   UNL d   1      53.198  30.814  53.642  0.00  0.00    -0.270 OA
BRANCH  14  15
ATOM     15  C   UNL d   1      53.256  29.994  53.510  0.00  0.00     0.126 C 
ATOM     16  C   UNL d   1      53.382  29.491  54.141  0.00  0.00     0.029 C 
ENDBRANCH  14  15
ENDBRANCH  12  14
ENDBRANCH  11  12
ENDBRANCH   9  11
ENDBRANCH   7   8
ENDBRANCH   6   7
ENDBRANCH   4   6
BRANCH   2  17
ATOM     17  C   UNL d   1      48.425  35.572  52.616  0.00  0.00     0.036 A 
ATOM     18  C   UNL d   1      47.858  35.670  52.014  0.00  0.00     0.003 A 
ATOM     19  C   UNL d   1      47.209  36.148  52.126  0.00  0.00     0.000 A 
ATOM     20  C   UNL d   1      47.112  36.538  52.842  0.00  0.00     0.000 A 
ATOM     21  C   UNL d   1      47.672  36.447  53.446  0.00  0.00     0.000 A 
ATOM     22  C   UNL d   1      48.320  35.964  53.323  0.00  0.00     0.003 A 
ENDBRANCH   2  17
TORSDOF 8
ENDMDL
MODEL 6
REMARK VINA RESULT:      -5.5      1.851      5.837
REMARK  8 active torsions:
REMARK  status: ('A' for Active; 'I' for Inactive)
REMARK    1  A    between atoms: C_9  and  C_2 
REMARK    2  A    between atoms: S_7  and  C_4 
REMARK    3  A    between atoms: C_6  and  C_13 
REMARK       I    between atoms: N_10  and  C_6 
REMARK    4  A    between atoms: C_13  and  S_7 
REMARK    5  A    between atoms: C_8  and  C_14 
REMARK    6  A    between atoms: O_15  and  C_8 
REMARK    7  A    between atoms: C_14  and  N_10 
REMARK    8  A    between atoms: C_18  and  O_15 
ROOT
ATOM      1  N   UNL d   1      49.101  34.975  52.669  0.00  0.00    -0.212 NA
ATOM      2  C   UNL d   1      48.545  35.216  52.120  0.00  0.00     0.171 A 
ATOM      3  N   UNL d   1      48.751  34.896  51.386  0.00  0.00    -0.188 NA
ATOM      4  C   UNL d   1      49.660  34.503  52.289  0.00  0.00     0.160 A 
ATOM      5  S   UNL d   1      49.440  34.455  51.491  0.00  0.00     0.041 SA
ENDROOT
BRANCH   4   6
ATOM      6  S   UNL d   1      50.319  34.142  52.632  0.00  0.00    -0.054 SA
BRANCH   6   7
ATOM      7  C   UNL d   1      51.060  34.473  52.541  0.00  0.00     0.100 C 
BRANCH   7   8
ATOM      8  C   UNL d   1      51.729  34.111  52.875  0.00  0.00     0.286 C 
ATOM      9  N   UNL d   1      52.182  34.519  53.428  0.00  0.00    -0.200 NA
ATOM     10  O   UNL d   1      51.930  33.348  52.645  0.00  0.00    -0.265 OA
BRANCH   9  11
ATOM     11  C   UNL d   1      52.844  34.153  53.754  0.00  0.00     0.171 C 
BRANCH  11  12
ATOM     12  C   UNL d   1      53.257  34.535  54.368  0.00  0.00     0.320 C 
ATOM     13  O   UNL d   1      53.305  35.360  54.384  0.00  0.00    -0.257 OA
BRANCH  12  14
ATOM     14  O   UNL d   1      53.617  34.077  54.960  0.00  0.00    -0.270 OA
BRANCH  14  15
ATOM     15  C   UNL d   1      54.442  33.967  54.942  0.00  0.00     0.126 C 
ATOM     16  C   UNL d   1      54.792  33.451  55.470  0.00  0.00     0.029 C 
ENDBRANCH  14  15
ENDBRANCH  12  14
ENDBRANCH  11  12
ENDBRANCH   9  11
ENDBRANCH   7   8
ENDBRANCH   6   7
ENDBRANCH   4   6
BRANCH   2  17
ATOM     17  C   UNL d   1      47.889  35.696  52.263  0.00  0.00     0.036 A 
ATOM     18  C   UNL d   1      47.866  36.209  52.919  0.00  0.00     0.003 A 
ATOM     19  C   UNL d   1      47.217  36.681  53.057  0.00  0.00     0.000 A 
ATOM     20  C   UNL d   1      46.577  36.650  52.544  0.00  0.00     0.000 A 
ATOM     21  C   UNL d   1      46.592  36.143  51.889  0.00  0.00     0.000 A 
ATOM     22  C   UNL d   1      47.249  35.673  51.759  0.00  0.00     0.003 A 
ENDBRANCH   2  17
TORSDOF 8
ENDMDL
MODEL 7
REMARK VINA RESULT:      -4.6      2.648      3.299
REMARK  8 active torsions:
REMARK  status: ('A' for Active; 'I' for Inactive)
REMARK    1  A    between atoms: C_9  and  C_2 
REMARK    2  A    between atoms: S_7  and  C_4 
REMARK    3  A    between atoms: C_6  and  C_13 
REMARK       I    between atoms: N_10  and  C_6 
REMARK    4  A    between atoms: C_13  and  S_7 
REMARK    5  A    between atoms: C_8  and  C_14 
REMARK    6  A    between atoms: O_15  and  C_8 
REMARK    7  A    between atoms: C_14  and  N_10 
REMARK    8  A    between atoms: C_18  and  O_15 
ROOT
ATOM      1  N   UNL d   1      53.009  31.172  53.920  0.00  0.00    -0.212 NA
ATOM      2  C   UNL d   1      53.109  30.398  53.675  0.00  0.00     0.171 A 
ATOM      3  N   UNL d   1      53.053  30.379  52.851  0.00  0.00    -0.188 NA
ATOM      4  C   UNL d   1      52.891  31.646  53.256  0.00  0.00     0.160 A 
ATOM      5  S   UNL d   1      52.919  31.150  52.591  0.00  0.00     0.041 SA
ENDROOT
BRANCH   4   6
ATOM      6  S   UNL d   1      52.768  32.462  53.245  0.00  0.00    -0.054 SA
BRANCH   6   7
ATOM      7  C   UNL d   1      52.285  32.795  52.676  0.00  0.00     0.100 C 
BRANCH   7   8
ATOM      8  C   UNL d   1      51.974  33.558  52.778  0.00  0.00     0.286 C 
ATOM      9  N   UNL d   1      51.176  33.697  52.635  0.00  0.00    -0.200 NA
ATOM     10  O   UNL d   1      52.471  34.166  53.022  0.00  0.00    -0.265 OA
BRANCH   9  11
ATOM     11  C   UNL d   1      50.875  34.458  52.739  0.00  0.00     0.171 C 
BRANCH  11  12
ATOM     12  C   UNL d   1      50.058  34.586  52.644  0.00  0.00     0.320 C 
ATOM     13  O   UNL d   1      49.602  34.840  53.285  0.00  0.00    -0.257 OA
BRANCH  12  14
ATOM     14  O   UNL d   1      49.711  34.457  51.901  0.00  0.00    -0.270 OA
BRANCH  14  15
ATOM     15  C   UNL d   1      48.975  34.806  51.731  0.00  0.00     0.126 C 
ATOM     16  C   UNL d   1      48.654  34.728  50.983  0.00  0.00     0.029 C 
ENDBRANCH  14  15
ENDBRANCH  12  14
ENDBRANCH  11  12
ENDBRANCH   9  11
ENDBRANCH   7   8
ENDBRANCH   6   7
ENDBRANCH   4   6
BRANCH   2  17
ATOM     17  C   UNL d   1      53.241  29.743  54.159  0.00  0.00     0.036 A 
ATOM     18  C   UNL d   1      53.618  29.061  53.865  0.00  0.00     0.003 A 
ATOM     19  C   UNL d   1      53.748  28.416  54.346  0.00  0.00     0.000 A 
ATOM     20  C   UNL d   1      53.503  28.439  55.129  0.00  0.00     0.000 A 
ATOM     21  C   UNL d   1      53.127  29.114  55.430  0.00  0.00     0.000 A 
ATOM     22  C   UNL d   1      53.002  29.756  54.938  0.00  0.00     0.003 A 
ENDBRANCH   2  17
TORSDOF 8
ENDMDL
MODEL 8
REMARK VINA RESULT:      -4.4     11.314     12.053
REMARK  8 active torsions:
REMARK  status: ('A' for Active; 'I' for Inactive)
REMARK    1  A    between atoms: C_9  and  C_2 
REMARK    2  A    between atoms: S_7  and  C_4 
REMARK    3  A    between atoms: C_6  and  C_13 
REMARK       I    between atoms: N_10  and  C_6 
REMARK    4  A    between atoms: C_13  and  S_7 
REMARK    5  A    between atoms: C_8  and  C_14 
REMARK    6  A    between atoms: O_15  and  C_8 
REMARK    7  A    between atoms: C_14  and  N_10 
REMARK    8  A    between atoms: C_18  and  O_15 
ROOT
ATOM      1  N   UNL d   1      44.805  23.889  53.928  0.00  0.00    -0.212 NA
ATOM      2  C   UNL d   1      45.036  23.251  53.471  0.00  0.00     0.171 A 
ATOM      3  N   UNL d   1      45.160  22.605  53.973  0.00  0.00    -0.188 NA
ATOM      4  C   UNL d   1      44.781  23.653  54.718  0.00  0.00     0.160 A 
ATOM      5  S   UNL d   1      45.002  22.854  54.744  0.00  0.00     0.041 SA
ENDROOT
BRANCH   4   6
ATOM      6  S   UNL d   1      44.576  24.119  55.368  0.00  0.00    -0.054 SA
BRANCH   6   7
ATOM      7  C   UNL d   1      45.048  24.750  55.584  0.00  0.00     0.100 C 
BRANCH   7   8
ATOM      8  C   UNL d   1      44.844  25.231  56.228  0.00  0.00     0.286 C 
ATOM      9  N   UNL d   1      45.170  25.984  56.297  0.00  0.00    -0.200 NA
ATOM     10  O   UNL d   1      44.315  24.948  56.790  0.00  0.00    -0.265 OA
BRANCH   9  11
ATOM     11  C   UNL d   1      44.962  26.455  56.940  0.00  0.00     0.171 C 
BRANCH  11  12
ATOM     12  C   UNL d   1      45.328  27.196  57.035  0.00  0.00     0.320 C 
ATOM     13  O   UNL d   1      45.601  27.611  56.374  0.00  0.00    -0.257 OA
BRANCH  12  14
ATOM     14  O   UNL d   1      45.415  27.511  57.799  0.00  0.00    -0.270 OA
BRANCH  14  15
ATOM     15  C   UNL d   1      45.251  28.317  57.927  0.00  0.00     0.126 C 
ATOM     16  C   UNL d   1      45.159  28.594  58.690  0.00  0.00     0.029 C 
ENDBRANCH  14  15
ENDBRANCH  12  14
ENDBRANCH  11  12
ENDBRANCH   9  11
ENDBRANCH   7   8
ENDBRANCH   6   7
ENDBRANCH   4   6
BRANCH   2  17
ATOM     17  C   UNL d   1      45.132  23.242  52.651  0.00  0.00     0.036 A 
ATOM     18  C   UNL d   1      44.582  23.616  52.151  0.00  0.00     0.003 A 
ATOM     19  C   UNL d   1      44.680  23.606  51.343  0.00  0.00     0.000 A 
ATOM     20  C   UNL d   1      45.328  23.221  51.017  0.00  0.00     0.000 A 
ATOM     21  C   UNL d   1      45.881  22.846  51.509  0.00  0.00     0.000 A 
ATOM     22  C   UNL d   1      45.773  22.863  52.320  0.00  0.00     0.003 A 
ENDBRANCH   2  17
TORSDOF 8
ENDMDL
