MODEL 1
REMARK VINA RESULT:      23.5      0.000      0.000
REMARK  8 active torsions:
REMARK  status: ('A' for Active; 'I' for Inactive)
REMARK    1  A    between atoms: N_2  and  C_1 
REMARK    2  A    between atoms: N_3  and  C_1 
REMARK    3  A    between atoms: C_6  and  C_1 
REMARK       I    between atoms: C_4  and  N_2 
REMARK       I    between atoms: C_5  and  N_3 
REMARK    4  A    between atoms: O_11  and  C_4 
REMARK    5  A    between atoms: O_12  and  C_5 
REMARK    6  A    between atoms: C_10  and  C_6 
REMARK    7  A    between atoms: C_15  and  O_11 
REMARK    8  A    between atoms: C_16  and  O_12 
ROOT
ATOM      1  C   UNL d   1      46.065 -18.303  42.699  0.00  0.00     0.211 C 
ENDROOT
BRANCH   1   2
ATOM      2  N   UNL d   1      46.392 -17.733  43.182  0.00  0.00    -0.163 NA
ATOM      3  C   UNL d   1      45.920 -17.137  43.493  0.00  0.00     0.394 C 
ATOM      4  O   UNL d   1      45.111 -17.096  43.329  0.00  0.00    -0.236 OA
BRANCH   3   5
ATOM      5  O   UNL d   1      46.251 -16.560  43.981  0.00  0.00    -0.256 OA
BRANCH   5   6
ATOM      6  C   UNL d   1      45.808 -16.240  44.612  0.00  0.00     0.128 C 
ATOM      7  C   UNL d   1      46.019 -15.518  44.947  0.00  0.00     0.029 C 
ENDBRANCH   5   6
ENDBRANCH   3   5
ENDBRANCH   1   2
BRANCH   1   8
ATOM      8  N   UNL d   1      45.519 -18.094  42.093  0.00  0.00    -0.163 NA
ATOM      9  C   UNL d   1      45.751 -18.059  41.304  0.00  0.00     0.394 C 
ATOM     10  O   UNL d   1      46.529 -18.231  41.122  0.00  0.00    -0.236 OA
BRANCH   9  11
ATOM     11  O   UNL d   1      45.206 -17.851  40.702  0.00  0.00    -0.256 OA
BRANCH  11  12
ATOM     12  C   UNL d   1      45.334 -18.109  40.097  0.00  0.00     0.128 C 
ATOM     13  C   UNL d   1      44.812 -17.882  39.467  0.00  0.00     0.029 C 
ENDBRANCH  11  12
ENDBRANCH   9  11
ENDBRANCH   1   8
BRANCH   1  14
ATOM     14  C   UNL d   1      46.270 -19.106  42.802  0.00  0.00     0.231 C 
ATOM     15  O   UNL d   1      46.641 -19.520  42.191  0.00  0.00    -0.283 OA
BRANCH  14  16
ATOM     16  C   UNL d   1      46.101 -19.505  43.528  0.00  0.00     0.042 A 
ATOM     17  C   UNL d   1      46.645 -19.479  44.142  0.00  0.00     0.003 A 
ATOM     18  C   UNL d   1      46.496 -19.862  44.853  0.00  0.00     0.000 A 
ATOM     19  C   UNL d   1      45.775 -20.287  44.954  0.00  0.00     0.000 A 
ATOM     20  C   UNL d   1      45.242 -20.306  44.339  0.00  0.00     0.000 A 
ATOM     21  C   UNL d   1      45.399 -19.919  43.626  0.00  0.00     0.003 A 
ENDBRANCH  14  16
ENDBRANCH   1  14
TORSDOF 8
ENDMDL
MODEL 2
REMARK VINA RESULT:      24.8      1.040      3.020
REMARK  8 active torsions:
REMARK  status: ('A' for Active; 'I' for Inactive)
REMARK    1  A    between atoms: N_2  and  C_1 
REMARK    2  A    between atoms: N_3  and  C_1 
REMARK    3  A    between atoms: C_6  and  C_1 
REMARK       I    between atoms: C_4  and  N_2 
REMARK       I    between atoms: C_5  and  N_3 
REMARK    4  A    between atoms: O_11  and  C_4 
REMARK    5  A    between atoms: O_12  and  C_5 
REMARK    6  A    between atoms: C_10  and  C_6 
REMARK    7  A    between atoms: C_15  and  O_11 
REMARK    8  A    between atoms: C_16  and  O_12 
ROOT
ATOM      1  C   UNL d   1      46.105 -17.417  43.573  0.00  0.00     0.211 C 
ENDROOT
BRANCH   1   2
ATOM      2  N   UNL d   1      46.436 -17.640  42.863  0.00  0.00    -0.163 NA
ATOM      3  C   UNL d   1      45.956 -17.799  42.216  0.00  0.00     0.394 C 
ATOM      4  O   UNL d   1      45.133 -17.739  42.264  0.00  0.00    -0.236 OA
BRANCH   3   5
ATOM      5  O   UNL d   1      46.292 -18.025  41.497  0.00  0.00    -0.256 OA
BRANCH   5   6
ATOM      6  C   UNL d   1      45.983 -18.678  41.077  0.00  0.00     0.128 C 
ATOM      7  C   UNL d   1      46.485 -19.265  40.790  0.00  0.00     0.029 C 
ENDBRANCH   5   6
ENDBRANCH   3   5
ENDBRANCH   1   2
BRANCH   1   8
ATOM      8  N   UNL d   1      45.558 -16.777  43.613  0.00  0.00    -0.163 NA
ATOM      9  C   UNL d   1      45.731 -16.095  44.040  0.00  0.00     0.394 C 
ATOM     10  O   UNL d   1      46.450 -16.052  44.427  0.00  0.00    -0.236 OA
BRANCH   9  11
ATOM     11  O   UNL d   1      45.185 -15.459  44.078  0.00  0.00    -0.256 OA
BRANCH  11  12
ATOM     12  C   UNL d   1      45.432 -14.859  43.910  0.00  0.00     0.128 C 
ATOM     13  C   UNL d   1      44.866 -14.259  43.704  0.00  0.00     0.029 C 
ENDBRANCH  11  12
ENDBRANCH   9  11
ENDBRANCH   1   8
BRANCH   1  14
ATOM     14  C   UNL d   1      46.305 -17.823  44.275  0.00  0.00     0.231 C 
ATOM     15  O   UNL d   1      46.508 -17.400  44.955  0.00  0.00    -0.283 OA
BRANCH  14  16
ATOM     16  C   UNL d   1      46.303 -18.668  44.300  0.00  0.00     0.042 A 
ATOM     17  C   UNL d   1      46.639 -19.095  43.684  0.00  0.00     0.003 A 
ATOM     18  C   UNL d   1      46.645 -19.915  43.694  0.00  0.00     0.000 A 
ATOM     19  C   UNL d   1      46.302 -20.326  44.346  0.00  0.00     0.000 A 
ATOM     20  C   UNL d   1      45.972 -19.893  44.951  0.00  0.00     0.000 A 
ATOM     21  C   UNL d   1      45.970 -19.068  44.935  0.00  0.00     0.003 A 
ENDBRANCH  14  16
ENDBRANCH   1  14
TORSDOF 8
ENDMDL
