MODEL 1
REMARK VINA RESULT:      20.8      0.000      0.000
REMARK  1 active torsions:
REMARK  status: ('A' for Active; 'I' for Inactive)
REMARK    1  A    between atoms: C_10  and  N_2 
ROOT
ATOM      1  C   UNL d   1      46.035 -18.340  43.852  0.00  0.00     0.166 A 
ATOM      2  N   UNL d   1      46.114 -19.167  43.812  0.00  0.00    -0.291 N 
ATOM      3  C   UNL d   1      46.174 -18.057  43.091  0.00  0.00     0.117 A 
ATOM      4  C   UNL d   1      46.294 -19.373  43.046  0.00  0.00     0.067 A 
ATOM      5  N   UNL d   1      45.857 -17.823  44.482  0.00  0.00    -0.225 NA
ATOM      6  C   UNL d   1      46.332 -18.682  42.597  0.00  0.00     0.037 A 
ATOM      7  N   UNL d   1      46.129 -17.236  42.976  0.00  0.00    -0.241 NA
ATOM      8  C   UNL d   1      45.818 -17.025  44.351  0.00  0.00     0.101 A 
ATOM      9  C   UNL d   1      45.956 -16.734  43.585  0.00  0.00     0.099 A 
ATOM     10  C   UNL d   1      46.433 -20.109  42.688  0.00  0.00     0.018 A 
ATOM     11  C   UNL d   1      46.508 -18.726  41.790  0.00  0.00     0.003 A 
ATOM     12  C   UNL d   1      45.918 -15.929  43.447  0.00  0.00     0.021 A 
ATOM     13  C   UNL d   1      45.646 -16.518  44.954  0.00  0.00     0.021 A 
ATOM     14  C   UNL d   1      46.609 -20.149  41.878  0.00  0.00     0.002 A 
ATOM     15  C   UNL d   1      46.647 -19.458  41.429  0.00  0.00     0.000 A 
ATOM     16  C   UNL d   1      45.608 -15.689  44.802  0.00  0.00     0.002 A 
ATOM     17  C   UNL d   1      45.741 -15.387  44.060  0.00  0.00     0.002 A 
ENDROOT
BRANCH   2  18
ATOM     18  C   UNL d   1      46.024 -19.677  44.433  0.00  0.00     0.066 C 
ATOM     19  C   UNL d   1      45.283 -20.075  44.526  0.00  0.00     0.019 C 
ATOM     20  C   UNL d   1      46.647 -19.797  44.954  0.00  0.00     0.019 C 
ENDBRANCH   2  18
TORSDOF 1
ENDMDL
