MODEL 1
REMARK VINA RESULT:      45.6      0.000      0.000
REMARK  3 active torsions:
REMARK  status: ('A' for Active; 'I' for Inactive)
REMARK    1  A    between atoms: N_2  and  C_1 
REMARK    2  A    between atoms: N_3  and  C_1 
REMARK       I    between atoms: C_4  and  N_3 
REMARK    3  A    between atoms: C_7  and  C_4 
ROOT
ATOM      1  C   UNL d   1      58.672  49.454  49.950  0.00  0.00     0.209 C 
ATOM      2  S   UNL d   1      59.167  49.473  49.281  0.00  0.00    -0.038 SA
ENDROOT
BRANCH   1   3
ATOM      3  N   UNL d   1      57.857  49.425  49.863  0.00  0.00    -0.282 N 
ATOM      4  C   UNL d   1      57.369  49.505  50.530  0.00  0.00     0.066 A 
ATOM      5  C   UNL d   1      56.553  49.476  50.443  0.00  0.00     0.016 A 
ATOM      6  C   UNL d   1      57.695  49.612  51.273  0.00  0.00     0.018 A 
ATOM      7  C   UNL d   1      56.065  49.554  51.097  0.00  0.00     0.001 A 
ATOM      8  C   UNL d   1      56.217  49.368  49.699  0.00  0.00     0.003 A 
ATOM      9  C   UNL d   1      56.394  49.662  51.841  0.00  0.00     0.000 A 
ATOM     10  C   UNL d   1      57.206  49.691  51.935  0.00  0.00     0.002 A 
ATOM     11  C   UNL d   1      56.707  49.289  49.037  0.00  0.00     0.019 A 
ATOM     12  C   UNL d   1      57.524  49.318  49.121  0.00  0.00     0.082 A 
ENDBRANCH   1   3
BRANCH   1  13
ATOM     13  N   UNL d   1      59.009  49.464  50.709  0.00  0.00    -0.180 NA
ATOM     14  C   UNL d   1      59.828  49.580  50.792  0.00  0.00     0.281 C 
ATOM     15  O   UNL d   1      60.303  49.683  50.130  0.00  0.00    -0.265 OA
BRANCH  14  16
ATOM     16  C   UNL d   1      60.168  49.590  51.558  0.00  0.00     0.058 A 
ATOM     17  C   UNL d   1      59.678  49.694  52.220  0.00  0.00     0.005 A 
ATOM     18  C   UNL d   1      60.014  49.705  52.980  0.00  0.00     0.007 A 
ATOM     19  C   UNL d   1      60.831  49.613  53.073  0.00  0.00     0.035 A 
ATOM     20  C   UNL d   1      61.317  49.508  52.399  0.00  0.00     0.007 A 
ATOM     21 BR   UNL d   1      61.168  49.623  53.832  0.00  0.00    -0.049 Br
ATOM     22  C   UNL d   1      60.983  49.498  51.647  0.00  0.00     0.005 A 
ENDBRANCH  14  16
ENDBRANCH   1  13
TORSDOF 3
ENDMDL
