MODEL 1
REMARK VINA RESULT:      47.8      0.000      0.000
REMARK  1 active torsions:
REMARK  status: ('A' for Active; 'I' for Inactive)
REMARK    1  A    between atoms: C_12  and  C_8 
ROOT
ATOM      1  N   UNL d   1     -58.571 -99.094 -45.108  0.00  0.00    -0.123 N 
ATOM      2  N   UNL d   1     -59.271 -98.957 -43.878  0.00  0.00    -0.180 NA
ATOM      3  C   UNL d   1     -59.267 -98.945 -44.691  0.00  0.00     0.217 A 
ATOM      4  N   UNL d   1     -57.871 -99.256 -44.698  0.00  0.00    -0.141 NA
ATOM      5  N   UNL d   1     -58.555 -99.085 -45.927  0.00  0.00    -0.146 NA
ATOM      6  C   UNL d   1     -58.586 -99.116 -43.465  0.00  0.00     0.300 A 
ATOM      7  C   UNL d   1     -57.886 -99.265 -43.875  0.00  0.00     0.161 A 
ATOM      8  C   UNL d   1     -59.259 -98.922 -46.344  0.00  0.00     0.110 A 
ATOM      9  S   UNL d   1     -59.955 -98.786 -45.107  0.00  0.00    -0.045 SA
ATOM     10  C   UNL d   1     -59.959 -98.772 -45.934  0.00  0.00     0.059 A 
ATOM     11  O   UNL d   1     -58.590 -99.127 -42.638  0.00  0.00    -0.263 OA
ATOM     12  C   UNL d   1     -57.191 -99.427 -43.459  0.00  0.00     0.028 C 
ENDROOT
BRANCH   8  13
ATOM     13  C   UNL d   1     -59.253 -98.911 -47.166  0.00  0.00     0.020 A 
ATOM     14  C   UNL d   1     -59.960 -99.009 -47.581  0.00  0.00     0.002 A 
ATOM     15  C   UNL d   1     -59.956 -98.998 -48.409  0.00  0.00     0.000 A 
ATOM     16  C   UNL d   1     -59.247 -98.889 -48.815  0.00  0.00     0.000 A 
ATOM     17  C   UNL d   1     -58.541 -98.791 -48.394  0.00  0.00     0.000 A 
ATOM     18  C   UNL d   1     -58.547 -98.802 -47.571  0.00  0.00     0.002 A 
ENDBRANCH   8  13
TORSDOF 1
ENDMDL
MODEL 2
REMARK VINA RESULT:      49.7      1.840      2.774
REMARK  1 active torsions:
REMARK  status: ('A' for Active; 'I' for Inactive)
REMARK    1  A    between atoms: C_12  and  C_8 
ROOT
ATOM      1  N   UNL d   1     -56.668 -99.854 -44.402  0.00  0.00    -0.123 N 
ATOM      2  N   UNL d   1     -55.942 -99.604 -43.206  0.00  0.00    -0.180 NA
ATOM      3  C   UNL d   1     -56.587 -99.463 -43.680  0.00  0.00     0.217 A 
ATOM      4  N   UNL d   1     -56.090-100.393 -44.647  0.00  0.00    -0.141 NA
ATOM      5  N   UNL d   1     -57.313 -99.721 -44.890  0.00  0.00    -0.146 NA
ATOM      6  C   UNL d   1     -55.367-100.134 -43.438  0.00  0.00     0.300 A 
ATOM      7  C   UNL d   1     -55.441-100.528 -44.158  0.00  0.00     0.161 A 
ATOM      8  C   UNL d   1     -57.898 -99.178 -44.647  0.00  0.00     0.110 A 
ATOM      9  S   UNL d   1     -57.165 -98.931 -43.449  0.00  0.00    -0.045 SA
ATOM     10  C   UNL d   1     -57.824 -98.783 -43.926  0.00  0.00     0.059 A 
ATOM     11  O   UNL d   1     -54.712-100.276 -42.954  0.00  0.00    -0.263 OA
ATOM     12  C   UNL d   1     -54.860-101.065 -44.395  0.00  0.00     0.028 C 
ENDROOT
BRANCH   8  13
ATOM     13  C   UNL d   1     -58.550 -99.037 -45.128  0.00  0.00     0.020 A 
ATOM     14  C   UNL d   1     -59.303 -98.994 -44.794  0.00  0.00     0.002 A 
ATOM     15  C   UNL d   1     -59.960 -98.852 -45.277  0.00  0.00     0.000 A 
ATOM     16  C   UNL d   1     -59.859 -98.755 -46.090  0.00  0.00     0.000 A 
ATOM     17  C   UNL d   1     -59.102 -98.799 -46.420  0.00  0.00     0.000 A 
ATOM     18  C   UNL d   1     -58.449 -98.940 -45.938  0.00  0.00     0.002 A 
ENDBRANCH   8  13
TORSDOF 1
ENDMDL
MODEL 3
REMARK VINA RESULT:      50.5      2.768      3.518
REMARK  1 active torsions:
REMARK  status: ('A' for Active; 'I' for Inactive)
REMARK    1  A    between atoms: C_12  and  C_8 
ROOT
ATOM      1  N   UNL d   1     -57.748 -98.770 -42.808  0.00  0.00    -0.123 N 
ATOM      2  N   UNL d   1     -59.167 -98.769 -42.890  0.00  0.00    -0.180 NA
ATOM      3  C   UNL d   1     -58.441 -98.771 -43.256  0.00  0.00     0.217 A 
ATOM      4  N   UNL d   1     -57.790 -98.766 -41.982  0.00  0.00    -0.141 NA
ATOM      5  N   UNL d   1     -57.010 -98.772 -43.165  0.00  0.00    -0.146 NA
ATOM      6  C   UNL d   1     -59.219 -98.765 -42.076  0.00  0.00     0.300 A 
ATOM      7  C   UNL d   1     -58.530 -98.763 -41.622  0.00  0.00     0.161 A 
ATOM      8  C   UNL d   1     -56.963 -98.776 -43.998  0.00  0.00     0.110 A 
ATOM      9  S   UNL d   1     -58.387 -98.775 -44.073  0.00  0.00    -0.045 SA
ATOM     10  C   UNL d   1     -57.652 -98.777 -44.452  0.00  0.00     0.059 A 
ATOM     11  O   UNL d   1     -59.958 -98.763 -41.706  0.00  0.00    -0.263 OA
ATOM     12  C   UNL d   1     -58.581 -98.760 -40.797  0.00  0.00     0.028 C 
ENDROOT
BRANCH   8  13
ATOM     13  C   UNL d   1     -56.227 -98.778 -44.365  0.00  0.00     0.020 A 
ATOM     14  C   UNL d   1     -56.183 -98.759 -45.190  0.00  0.00     0.002 A 
ATOM     15  C   UNL d   1     -55.443 -98.761 -45.561  0.00  0.00     0.000 A 
ATOM     16  C   UNL d   1     -54.755 -98.783 -45.107  0.00  0.00     0.000 A 
ATOM     17  C   UNL d   1     -54.806 -98.802 -44.282  0.00  0.00     0.000 A 
ATOM     18  C   UNL d   1     -55.542 -98.800 -43.913  0.00  0.00     0.002 A 
ENDBRANCH   8  13
TORSDOF 1
ENDMDL
