MODEL 1
REMARK VINA RESULT:      64.2      0.000      0.000
REMARK  5 active torsions:
REMARK  status: ('A' for Active; 'I' for Inactive)
REMARK    1  A    between atoms: C_3  and  N_1 
REMARK       I    between atoms: C_2  and  N_4 
REMARK    2  A    between atoms: C_10  and  C_2 
REMARK    3  A    between atoms: N_4  and  C_9 
REMARK    4  A    between atoms: C_13  and  C_10 
REMARK    5  A    between atoms: C_16  and  C_13 
ROOT
ATOM      1  C   UNL d   1      61.409  46.339  49.744  0.00  0.00     0.064 A 
ATOM      2  C   UNL d   1      61.781  47.036  49.487  0.00  0.00     0.020 A 
ATOM      3  C   UNL d   1      60.793  46.381  50.291  0.00  0.00     0.020 A 
ATOM      4  C   UNL d   1      60.925  47.809  50.318  0.00  0.00     0.135 A 
ATOM      5  C   UNL d   1      60.548  47.121  50.581  0.00  0.00     0.034 A 
ATOM      6  C   UNL d   1      61.536  47.767  49.777  0.00  0.00     0.034 A 
ENDROOT
BRANCH   4   7
ATOM      7  N   UNL d   1      60.684  48.543  50.605  0.00  0.00    -0.365 NA
ATOM      8  C   UNL d   1      60.442  49.283  50.895  0.00  0.00     0.328 C 
ATOM      9  O   UNL d   1      60.928  49.697  51.417  0.00  0.00    -0.251 OA
BRANCH   8  10
ATOM     10  C   UNL d   1      59.719  49.602  50.661  0.00  0.00     0.076 C 
BRANCH  10  11
ATOM     11  C   UNL d   1      59.105  49.673  51.198  0.00  0.00     0.006 C 
BRANCH  11  12
ATOM     12  C   UNL d   1      58.323  49.683  50.935  0.00  0.00     0.000 A 
ATOM     13  C   UNL d   1      58.162  49.685  50.125  0.00  0.00     0.000 A 
ATOM     14  C   UNL d   1      57.378  49.695  49.853  0.00  0.00     0.000 A 
ATOM     15  C   UNL d   1      56.756  49.702  50.396  0.00  0.00     0.000 A 
ATOM     16  C   UNL d   1      56.920  49.700  51.211  0.00  0.00     0.000 A 
ATOM     17  C   UNL d   1      57.702  49.690  51.478  0.00  0.00     0.000 A 
ENDBRANCH  11  12
ENDBRANCH  10  11
ENDBRANCH   8  10
ENDBRANCH   4   7
BRANCH   1  18
ATOM     18  N   UNL d   1      61.654  45.609  49.455  0.00  0.00    -0.300 N 
ATOM     19  C   UNL d   1      61.090  45.038  49.263  0.00  0.00     0.107 A 
ATOM     20  C   UNL d   1      61.334  44.307  48.974  0.00  0.00     0.142 A 
ATOM     21  O   UNL d   1      62.133  44.147  48.876  0.00  0.00    -0.300 OA
ATOM     22  C   UNL d   1      62.696  44.718  49.068  0.00  0.00     0.142 A 
ATOM     23  C   UNL d   1      62.456  45.454  49.359  0.00  0.00     0.107 A 
ENDBRANCH   1  18
TORSDOF 5
ENDMDL
