MODEL 1
REMARK VINA RESULT:      36.7      0.000      0.000
REMARK  4 active torsions:
REMARK  status: ('A' for Active; 'I' for Inactive)
REMARK    1  A    between atoms: C_10  and  C_3 
REMARK    2  A    between atoms: C_12  and  C_5 
REMARK    3  A    between atoms: C_15  and  C_12 
REMARK    4  A    between atoms: C_18  and  C_15 
ROOT
ATOM      1  C   UNL d   1      13.750  12.851  -2.853  0.00  0.00     0.152 A 
ATOM      2  N   UNL d   1      14.010  13.624  -2.670  0.00  0.00    -0.258 N 
ATOM      3  C   UNL d   1      13.379  12.702  -3.573  0.00  0.00     0.056 A 
ATOM      4  C   UNL d   1      13.895  14.235  -3.209  0.00  0.00     0.266 A 
ATOM      5  C   UNL d   1      13.521  14.089  -3.937  0.00  0.00     0.057 A 
ATOM      6  N   UNL d   1      13.869  12.237  -2.305  0.00  0.00    -0.227 NA
ATOM      7  C   UNL d   1      13.261  13.316  -4.121  0.00  0.00     0.009 A 
ATOM      8  C   UNL d   1      14.501  13.158  -1.398  0.00  0.00     0.086 A 
ATOM      9  C   UNL d   1      14.246  12.380  -1.569  0.00  0.00     0.099 A 
ATOM     10  O   UNL d   1      14.159  15.022  -3.023  0.00  0.00    -0.267 OA
ATOM     11  C   UNL d   1      12.890  13.161  -4.838  0.00  0.00     0.000 C 
ATOM     12  C   UNL d   1      14.875  13.304  -0.670  0.00  0.00     0.019 A 
ATOM     13  C   UNL d   1      14.362  11.779  -1.031  0.00  0.00     0.021 A 
ATOM     14  C   UNL d   1      14.984  12.682  -0.138  0.00  0.00     0.002 A 
ATOM     15  C   UNL d   1      14.732  11.931  -0.316  0.00  0.00     0.002 A 
ENDROOT
BRANCH   5  16
ATOM     16  C   UNL d   1      13.403  14.698  -4.482  0.00  0.00     0.005 C 
BRANCH  16  17
ATOM     17  C   UNL d   1      13.996  15.246  -4.625  0.00  0.00     0.000 C 
BRANCH  17  18
ATOM     18  C   UNL d   1      13.950  15.731  -5.284  0.00  0.00     0.000 C 
ATOM     19  C   UNL d   1      13.226  16.083  -5.479  0.00  0.00     0.000 C 
ATOM     20  C   UNL d   1      14.618  15.869  -5.750  0.00  0.00     0.000 C 
ENDBRANCH  17  18
ENDBRANCH  16  17
ENDBRANCH   5  16
BRANCH   3  21
ATOM     21  C   UNL d   1      13.125  11.940  -3.749  0.00  0.00     0.125 C 
ATOM     22  N   UNL d   1      12.769  11.779  -4.469  0.00  0.00    -0.146 N 
ENDBRANCH   3  21
TORSDOF 4
ENDMDL
MODEL 2
REMARK VINA RESULT:      39.2      1.342      2.502
REMARK  4 active torsions:
REMARK  status: ('A' for Active; 'I' for Inactive)
REMARK    1  A    between atoms: C_10  and  C_3 
REMARK    2  A    between atoms: C_12  and  C_5 
REMARK    3  A    between atoms: C_15  and  C_12 
REMARK    4  A    between atoms: C_18  and  C_15 
ROOT
ATOM      1  C   UNL d   1      14.017  13.964  -2.580  0.00  0.00     0.152 A 
ATOM      2  N   UNL d   1      13.931  13.134  -2.532  0.00  0.00    -0.258 N 
ATOM      3  C   UNL d   1      13.711  14.372  -3.226  0.00  0.00     0.056 A 
ATOM      4  C   UNL d   1      13.542  12.726  -3.131  0.00  0.00     0.266 A 
ATOM      5  C   UNL d   1      13.231  13.134  -3.785  0.00  0.00     0.057 A 
ATOM      6  N   UNL d   1      14.412  14.373  -1.972  0.00  0.00    -0.227 NA
ATOM      7  C   UNL d   1      13.316  13.964  -3.833  0.00  0.00     0.009 A 
ATOM      8  C   UNL d   1      14.635  13.134  -1.274  0.00  0.00     0.086 A 
ATOM      9  C   UNL d   1      14.727  13.965  -1.310  0.00  0.00     0.099 A 
ATOM     10  O   UNL d   1      13.455  11.881  -3.082  0.00  0.00    -0.267 OA
ATOM     11  C   UNL d   1      13.013  14.377  -4.476  0.00  0.00     0.000 C 
ATOM     12  C   UNL d   1      14.945  12.726  -0.619  0.00  0.00     0.019 A 
ATOM     13  C   UNL d   1      15.114  14.364  -0.714  0.00  0.00     0.021 A 
ATOM     14  C   UNL d   1      15.334  13.149  -0.026  0.00  0.00     0.002 A 
ATOM     15  C   UNL d   1      15.417  13.955  -0.072  0.00  0.00     0.002 A 
ENDROOT
BRANCH   5  16
ATOM     16  C   UNL d   1      12.839  12.730  -4.389  0.00  0.00     0.005 C 
BRANCH  16  17
ATOM     17  C   UNL d   1      13.128  12.012  -4.661  0.00  0.00     0.000 C 
BRANCH  17  18
ATOM     18  C   UNL d   1      13.342  11.934  -5.449  0.00  0.00     0.000 C 
ATOM     19  C   UNL d   1      14.139  12.003  -5.661  0.00  0.00     0.000 C 
ATOM     20  C   UNL d   1      12.769  11.788  -6.026  0.00  0.00     0.000 C 
ENDBRANCH  17  18
ENDBRANCH  16  17
ENDBRANCH   5  16
BRANCH   3  21
ATOM     21  C   UNL d   1      13.797  15.189  -3.269  0.00  0.00     0.125 C 
ATOM     22  N   UNL d   1      14.456  15.517  -3.628  0.00  0.00    -0.146 N 
ENDBRANCH   3  21
TORSDOF 4
ENDMDL
