MODEL 1
REMARK VINA RESULT:      15.3      0.000      0.000
REMARK  1 active torsions:
REMARK  status: ('A' for Active; 'I' for Inactive)
REMARK    1  A    between atoms: C_4  and  C_1 
ROOT
ATOM      1  C   UNL d   1     -57.509 -98.767 -44.270  0.00  0.00     0.168 A 
ATOM      2  N   UNL d   1     -56.959 -98.781 -43.658  0.00  0.00    -0.225 NA
ATOM      3  N   UNL d   1     -57.092 -98.756 -44.988  0.00  0.00    -0.225 NA
ATOM      4  C   UNL d   1     -56.200 -98.780 -43.994  0.00  0.00     0.101 A 
ATOM      5  C   UNL d   1     -56.284 -98.764 -44.815  0.00  0.00     0.101 A 
ATOM      6  C   UNL d   1     -55.444 -98.790 -43.654  0.00  0.00     0.021 A 
ATOM      7  C   UNL d   1     -55.602 -98.759 -45.296  0.00  0.00     0.021 A 
ATOM      8  C   UNL d   1     -54.774 -98.785 -44.132  0.00  0.00     0.002 A 
ATOM      9  C   UNL d   1     -54.853 -98.770 -44.953  0.00  0.00     0.002 A 
ENDROOT
BRANCH   1  10
ATOM     10  C   UNL d   1     -58.329 -98.764 -44.191  0.00  0.00     0.065 A 
ATOM     11  S   UNL d   1     -58.888 -98.764 -44.648  0.00  0.00    -0.083 SA
ATOM     12  C   UNL d   1     -59.558 -98.760 -44.386  0.00  0.00     0.035 A 
ATOM     13  C   UNL d   1     -59.678 -98.756 -43.679  0.00  0.00     0.008 A 
ATOM     14  C   UNL d   1     -59.119 -98.756 -43.223  0.00  0.00     0.010 A 
ENDBRANCH   1  10
TORSDOF 1
ENDMDL
