MODEL 1
REMARK VINA RESULT:      -5.5      0.000      0.000
REMARK  1 active torsions:
REMARK  status: ('A' for Active; 'I' for Inactive)
REMARK    1  A    between atoms: C_6  and  C_1 
ROOT
ATOM      1  C   UNL d   1     -41.557-123.030 -53.303  0.00  0.00     0.148 A 
ATOM      2  N   UNL d   1     -41.429-122.550 -52.643  0.00  0.00    -0.289 N 
ATOM      3  N   UNL d   1     -41.484-123.814 -53.082  0.00  0.00    -0.225 NA
ATOM      4  C   UNL d   1     -41.277-123.035 -52.014  0.00  0.00     0.085 A 
ATOM      5  C   UNL d   1     -41.310-123.817 -52.283  0.00  0.00     0.118 A 
ATOM      6  C   UNL d   1     -41.439-121.729 -52.563  0.00  0.00     0.082 A 
ATOM      7  C   UNL d   1     -41.123-122.736 -51.259  0.00  0.00     0.019 A 
ATOM      8  C   UNL d   1     -41.282-121.404 -51.794  0.00  0.00     0.019 A 
ATOM      9  C   UNL d   1     -41.130-121.889 -51.165  0.00  0.00     0.003 A 
ENDROOT
BRANCH   1  10
ATOM     10  C   UNL d   1     -41.727-122.679 -54.032  0.00  0.00     0.035 A 
ATOM     11  C   UNL d   1     -42.480-122.325 -54.201  0.00  0.00     0.004 A 
ATOM     12  C   UNL d   1     -42.641-121.980 -54.923  0.00  0.00     0.011 A 
ATOM     13  C   UNL d   1     -42.059-121.979 -55.486  0.00  0.00     0.058 A 
ATOM     14  C   UNL d   1     -41.322-122.314 -55.349  0.00  0.00     0.011 A 
ATOM     15 CL   UNL d   1     -42.243-121.612 -56.242  0.00  0.00    -0.082 Cl
ATOM     16  C   UNL d   1     -41.155-122.663 -54.626  0.00  0.00     0.004 A 
ENDBRANCH   1  10
TORSDOF 1
ENDMDL
MODEL 2
REMARK VINA RESULT:      -4.7      1.691      3.243
REMARK  1 active torsions:
REMARK  status: ('A' for Active; 'I' for Inactive)
REMARK    1  A    between atoms: C_6  and  C_1 
ROOT
ATOM      1  C   UNL d   1     -41.429-123.145 -53.301  0.00  0.00     0.148 A 
ATOM      2  N   UNL d   1     -41.760-122.659 -53.881  0.00  0.00    -0.289 N 
ATOM      3  N   UNL d   1     -41.126-123.817 -53.655  0.00  0.00    -0.225 NA
ATOM      4  C   UNL d   1     -41.662-123.028 -54.594  0.00  0.00     0.085 A 
ATOM      5  C   UNL d   1     -41.270-123.745 -54.457  0.00  0.00     0.118 A 
ATOM      6  C   UNL d   1     -42.134-121.927 -53.822  0.00  0.00     0.082 A 
ATOM      7  C   UNL d   1     -41.930-122.693 -55.301  0.00  0.00     0.019 A 
ATOM      8  C   UNL d   1     -42.417-121.566 -54.538  0.00  0.00     0.019 A 
ATOM      9  C   UNL d   1     -42.319-121.936 -55.251  0.00  0.00     0.003 A 
ENDROOT
BRANCH   1  10
ATOM     10  C   UNL d   1     -41.450-122.903 -52.511  0.00  0.00     0.035 A 
ATOM     11  C   UNL d   1     -41.129-122.161 -52.255  0.00  0.00     0.004 A 
ATOM     12  C   UNL d   1     -41.153-121.928 -51.473  0.00  0.00     0.011 A 
ATOM     13  C   UNL d   1     -41.494-122.427 -50.934  0.00  0.00     0.058 A 
ATOM     14  C   UNL d   1     -41.812-123.151 -51.155  0.00  0.00     0.011 A 
ATOM     15 CL   UNL d   1     -41.512-122.168 -50.114  0.00  0.00    -0.082 Cl
ATOM     16  C   UNL d   1     -41.791-123.390 -51.939  0.00  0.00     0.004 A 
ENDBRANCH   1  10
TORSDOF 1
ENDMDL
MODEL 3
REMARK VINA RESULT:      -4.5      0.771      1.641
REMARK  1 active torsions:
REMARK  status: ('A' for Active; 'I' for Inactive)
REMARK    1  A    between atoms: C_6  and  C_1 
ROOT
ATOM      1  C   UNL d   1     -41.427-121.910 -52.514  0.00  0.00     0.148 A 
ATOM      2  N   UNL d   1     -41.440-122.523 -51.961  0.00  0.00    -0.289 N 
ATOM      3  N   UNL d   1     -41.232-121.212 -52.137  0.00  0.00    -0.225 NA
ATOM      4  C   UNL d   1     -41.252-122.205 -51.241  0.00  0.00     0.085 A 
ATOM      5  C   UNL d   1     -41.123-121.394 -51.347  0.00  0.00     0.118 A 
ATOM      6  C   UNL d   1     -41.602-123.326 -52.049  0.00  0.00     0.082 A 
ATOM      7  C   UNL d   1     -41.212-122.667 -50.556  0.00  0.00     0.019 A 
ATOM      8  C   UNL d   1     -41.567-123.817 -51.356  0.00  0.00     0.019 A 
ATOM      9  C   UNL d   1     -41.379-123.499 -50.636  0.00  0.00     0.003 A 
ENDROOT
BRANCH   1  10
ATOM     10  C   UNL d   1     -41.601-122.076 -53.305  0.00  0.00     0.035 A 
ATOM     11  C   UNL d   1     -41.123-122.598 -53.774  0.00  0.00     0.004 A 
ATOM     12  C   UNL d   1     -41.300-122.759 -54.555  0.00  0.00     0.011 A 
ATOM     13  C   UNL d   1     -41.951-122.404 -54.881  0.00  0.00     0.058 A 
ATOM     14  C   UNL d   1     -42.429-121.894 -54.451  0.00  0.00     0.011 A 
ATOM     15 CL   UNL d   1     -42.124-122.582 -55.705  0.00  0.00    -0.082 Cl
ATOM     16  C   UNL d   1     -42.257-121.730 -53.666  0.00  0.00     0.004 A 
ENDBRANCH   1  10
TORSDOF 1
ENDMDL
MODEL 4
REMARK VINA RESULT:      -4.2      3.154      4.309
REMARK  1 active torsions:
REMARK  status: ('A' for Active; 'I' for Inactive)
REMARK    1  A    between atoms: C_6  and  C_1 
ROOT
ATOM      1  C   UNL d   1     -42.560-123.348 -49.238  0.00  0.00     0.148 A 
ATOM      2  N   UNL d   1     -42.150-123.270 -48.525  0.00  0.00    -0.289 N 
ATOM      3  N   UNL d   1     -43.290-123.686 -49.092  0.00  0.00    -0.225 NA
ATOM      4  C   UNL d   1     -42.625-123.560 -47.938  0.00  0.00     0.085 A 
ATOM      5  C   UNL d   1     -43.330-123.817 -48.286  0.00  0.00     0.118 A 
ATOM      6  C   UNL d   1     -41.400-122.967 -48.365  0.00  0.00     0.082 A 
ATOM      7  C   UNL d   1     -42.385-123.568 -47.146  0.00  0.00     0.019 A 
ATOM      8  C   UNL d   1     -41.137-122.967 -47.557  0.00  0.00     0.019 A 
ATOM      9  C   UNL d   1     -41.612-123.256 -46.969  0.00  0.00     0.003 A 
ENDROOT
BRANCH   1  10
ATOM     10  C   UNL d   1     -42.203-123.094 -49.939  0.00  0.00     0.035 A 
ATOM     11  C   UNL d   1     -42.331-122.318 -50.258  0.00  0.00     0.004 A 
ATOM     12  C   UNL d   1     -41.976-122.074 -50.951  0.00  0.00     0.011 A 
ATOM     13  C   UNL d   1     -41.490-122.594 -51.337  0.00  0.00     0.058 A 
ATOM     14  C   UNL d   1     -41.349-123.350 -51.051  0.00  0.00     0.011 A 
ATOM     15 CL   UNL d   1     -41.123-122.322 -52.066  0.00  0.00    -0.082 Cl
ATOM     16  C   UNL d   1     -41.704-123.601 -50.355  0.00  0.00     0.004 A 
ENDBRANCH   1  10
TORSDOF 1
ENDMDL
MODEL 5
REMARK VINA RESULT:      -3.6      2.120      3.020
REMARK  1 active torsions:
REMARK  status: ('A' for Active; 'I' for Inactive)
REMARK    1  A    between atoms: C_6  and  C_1 
ROOT
ATOM      1  C   UNL d   1     -41.556-123.322 -50.398  0.00  0.00     0.148 A 
ATOM      2  N   UNL d   1     -42.204-123.013 -49.987  0.00  0.00    -0.289 N 
ATOM      3  N   UNL d   1     -41.123-123.798 -49.894  0.00  0.00    -0.225 NA
ATOM      4  C   UNL d   1     -42.171-123.298 -49.230  0.00  0.00     0.085 A 
ATOM      5  C   UNL d   1     -41.503-123.784 -49.171  0.00  0.00     0.118 A 
ATOM      6  C   UNL d   1     -42.807-122.508 -50.232  0.00  0.00     0.082 A 
ATOM      7  C   UNL d   1     -42.738-123.099 -48.663  0.00  0.00     0.019 A 
ATOM      8  C   UNL d   1     -43.400-122.292 -49.663  0.00  0.00     0.019 A 
ATOM      9  C   UNL d   1     -43.367-122.577 -48.906  0.00  0.00     0.003 A 
ENDROOT
BRANCH   1  10
ATOM     10  C   UNL d   1     -41.449-123.121 -51.192  0.00  0.00     0.035 A 
ATOM     11  C   UNL d   1     -41.243-122.336 -51.438  0.00  0.00     0.004 A 
ATOM     12  C   UNL d   1     -41.138-122.145 -52.225  0.00  0.00     0.011 A 
ATOM     13  C   UNL d   1     -41.237-122.728 -52.778  0.00  0.00     0.058 A 
ATOM     14  C   UNL d   1     -41.437-123.496 -52.567  0.00  0.00     0.011 A 
ATOM     15 CL   UNL d   1     -41.124-122.512 -53.603  0.00  0.00    -0.082 Cl
ATOM     16  C   UNL d   1     -41.543-123.694 -51.778  0.00  0.00     0.004 A 
ENDBRANCH   1  10
TORSDOF 1
ENDMDL
