MODEL 1
REMARK VINA RESULT:      62.6      0.000      0.000
REMARK  7 active torsions:
REMARK  status: ('A' for Active; 'I' for Inactive)
REMARK    1  A    between atoms: N_4  and  S_1 
REMARK    2  A    between atoms: C_2  and  N_4 
REMARK    3  A    between atoms: C_3  and  C_2 
REMARK    4  A    between atoms: N_5  and  C_3 
REMARK    5  A    between atoms: C_7  and  C_3 
REMARK    6  A    between atoms: C_9  and  N_6 
REMARK    7  A    between atoms: O_26  and  C_22 
ROOT
ATOM      1  N   UNL d   1     -50.603  25.911  33.852  0.00  0.00    -0.300 N 
ATOM      2  N   UNL d   1     -49.714  27.258  34.261  0.00  0.00    -0.301 N 
ATOM      3  C   UNL d   1     -50.015  25.869  34.440  0.00  0.00     0.100 A 
ATOM      4  C   UNL d   1     -50.734  26.630  33.481  0.00  0.00     0.100 A 
ATOM      5  C   UNL d   1     -49.572  26.533  34.645  0.00  0.00     0.100 A 
ATOM      6  C   UNL d   1     -50.299  27.299  33.676  0.00  0.00     0.100 A 
ENDROOT
BRANCH   1   7
ATOM      7  C   UNL d   1     -51.042  25.248  33.651  0.00  0.00     0.089 C 
BRANCH   7   8
ATOM      8  C   UNL d   1     -51.848  25.313  33.499  0.00  0.00     0.110 C 
ATOM      9  C   UNL d   1     -52.182  26.055  33.362  0.00  0.00     0.023 C 
BRANCH   8  10
ATOM     10  N   UNL d   1     -52.317  24.643  33.485  0.00  0.00    -0.161 NA
BRANCH  10  11
ATOM     11  S   UNL d   1     -53.136  24.703  33.427  0.00  0.00     0.266 S 
ATOM     12  O   UNL d   1     -53.146  23.879  33.532  0.00  0.00    -0.203 OA
ATOM     13  O   UNL d   1     -53.854  24.295  33.435  0.00  0.00    -0.203 OA
ATOM     14  C   UNL d   1     -53.195  25.514  33.319  0.00  0.00     0.165 C 
ENDBRANCH  10  11
ENDBRANCH   8  10
ENDBRANCH   7   8
BRANCH   7  15
ATOM     15  C   UNL d   1     -50.674  24.512  33.599  0.00  0.00     0.047 A 
ATOM     16  S   UNL d   1     -50.999  23.786  33.830  0.00  0.00    -0.085 SA
ATOM     17  C   UNL d   1     -50.436  23.200  33.679  0.00  0.00     0.035 A 
ATOM     18  C   UNL d   1     -49.770  23.548  33.359  0.00  0.00     0.007 A 
ATOM     19  C   UNL d   1     -49.914  24.366  33.308  0.00  0.00     0.009 A 
ENDBRANCH   7  15
ENDBRANCH   1   7
BRANCH   2  20
ATOM     20  C   UNL d   1     -49.269  27.925  34.467  0.00  0.00     0.064 A 
ATOM     21  C   UNL d   1     -48.788  27.906  35.131  0.00  0.00     0.020 A 
ATOM     22  C   UNL d   1     -48.345  28.575  35.334  0.00  0.00     0.026 A 
ATOM     23  C   UNL d   1     -48.388  29.259  34.868  0.00  0.00     0.094 A 
ATOM     24  C   UNL d   1     -48.880  29.260  34.200  0.00  0.00     0.026 A 
ATOM     25  C   UNL d   1     -49.324  28.591  33.995  0.00  0.00     0.020 A 
BRANCH  23  26
ATOM     26  O   UNL d   1     -47.946  29.934  35.066  0.00  0.00    -0.328 OA
ATOM     27  C   UNL d   1     -47.173  29.835  35.330  0.00  0.00     0.181 C 
ENDBRANCH  23  26
ENDBRANCH   2  20
TORSDOF 7
ENDMDL
