MODEL 1
REMARK VINA RESULT:      -4.2      0.000      0.000
REMARK  6 active torsions:
REMARK  status: ('A' for Active; 'I' for Inactive)
REMARK    1  A    between atoms: N_3  and  C_1 
REMARK    2  A    between atoms: S_2  and  C_10 
REMARK    3  A    between atoms: N_8  and  S_2 
REMARK       I    between atoms: C_9  and  N_3 
REMARK    4  A    between atoms: C_23  and  N_4 
REMARK    5  A    between atoms: C_13  and  C_9 
REMARK    6  A    between atoms: O_25  and  C_14 
ROOT
ATOM      1  N   UNL d   1     -45.043  13.203  22.189  0.00  0.00    -0.184 NA
ATOM      2  C   UNL d   1     -44.383  12.718  22.040  0.00  0.00     0.281 C 
ATOM      3  O   UNL d   1     -44.417  11.913  22.223  0.00  0.00    -0.265 OA
ENDROOT
BRANCH   2   4
ATOM      4  C   UNL d   1     -43.696  13.042  21.711  0.00  0.00     0.058 A 
ATOM      5  C   UNL d   1     -43.698  13.824  21.456  0.00  0.00     0.005 A 
ATOM      6  C   UNL d   1     -43.013  14.148  21.127  0.00  0.00     0.013 A 
ATOM      7  C   UNL d   1     -42.328  13.690  21.054  0.00  0.00     0.104 A 
ATOM      8  C   UNL d   1     -42.335  12.898  21.315  0.00  0.00     0.013 A 
ATOM      9  C   UNL d   1     -43.019  12.570  21.645  0.00  0.00     0.005 A 
BRANCH   7  10
ATOM     10  S   UNL d   1     -41.643  14.013  20.726  0.00  0.00     0.272 S 
ATOM     11  O   UNL d   1     -41.550  13.295  20.307  0.00  0.00    -0.200 OA
ATOM     12  O   UNL d   1     -41.738  14.715  21.138  0.00  0.00    -0.200 OA
BRANCH  10  13
ATOM     13  N   UNL d   1     -40.959  14.333  20.397  0.00  0.00    -0.225 N 
ATOM     14  C   UNL d   1     -40.862  14.324  19.584  0.00  0.00     0.118 A 
ATOM     15  C   UNL d   1     -40.178  14.644  19.251  0.00  0.00     0.142 A 
ATOM     16  O   UNL d   1     -39.595  14.971  19.735  0.00  0.00    -0.300 OA
ATOM     17  C   UNL d   1     -39.699  14.976  20.553  0.00  0.00     0.142 A 
ATOM     18  C   UNL d   1     -40.383  14.656  20.886  0.00  0.00     0.118 A 
ENDBRANCH  10  13
ENDBRANCH   7  10
ENDBRANCH   2   4
BRANCH   1  19
ATOM     19  C   UNL d   1     -45.734  12.871  22.522  0.00  0.00     0.182 A 
ATOM     20  N   UNL d   1     -46.470  13.227  22.543  0.00  0.00    -0.283 N 
ATOM     21  C   UNL d   1     -47.000  12.717  22.918  0.00  0.00     0.094 A 
ATOM     22  C   UNL d   1     -47.816  12.784  23.095  0.00  0.00     0.111 A 
ATOM     23  C   UNL d   1     -46.591  12.039  23.131  0.00  0.00     0.050 A 
ATOM     24  C   UNL d   1     -48.195  12.167  23.481  0.00  0.00     0.026 A 
ATOM     25  C   UNL d   1     -47.792  11.483  23.698  0.00  0.00     0.003 A 
ATOM     26  C   UNL d   1     -46.985  11.419  23.522  0.00  0.00     0.008 A 
ATOM     27  S   UNL d   1     -45.806  12.124  22.890  0.00  0.00    -0.048 SA
BRANCH  20  28
ATOM     28  C   UNL d   1     -46.660  13.972  22.243  0.00  0.00     0.082 C 
ATOM     29  C   UNL d   1     -46.464  14.690  22.597  0.00  0.00     0.021 C 
ENDBRANCH  20  28
BRANCH  22  30
ATOM     30  O   UNL d   1     -48.224  13.456  22.884  0.00  0.00    -0.327 OA
ATOM     31  C   UNL d   1     -49.039  13.482  22.951  0.00  0.00     0.181 C 
ENDBRANCH  22  30
ENDBRANCH   1  19
TORSDOF 6
ENDMDL
MODEL 2
REMARK VINA RESULT:      -3.5      1.596      2.851
REMARK  6 active torsions:
REMARK  status: ('A' for Active; 'I' for Inactive)
REMARK    1  A    between atoms: N_3  and  C_1 
REMARK    2  A    between atoms: S_2  and  C_10 
REMARK    3  A    between atoms: N_8  and  S_2 
REMARK       I    between atoms: C_9  and  N_3 
REMARK    4  A    between atoms: C_23  and  N_4 
REMARK    5  A    between atoms: C_13  and  C_9 
REMARK    6  A    between atoms: O_25  and  C_14 
ROOT
ATOM      1  N   UNL d   1     -47.595  13.365  22.406  0.00  0.00    -0.184 NA
ATOM      2  C   UNL d   1     -47.054  12.766  22.608  0.00  0.00     0.281 C 
ATOM      3  O   UNL d   1     -47.313  12.103  23.027  0.00  0.00    -0.265 OA
ENDROOT
BRANCH   2   4
ATOM      4  C   UNL d   1     -46.258  12.835  22.388  0.00  0.00     0.058 A 
ATOM      5  C   UNL d   1     -45.719  13.165  22.915  0.00  0.00     0.005 A 
ATOM      6  C   UNL d   1     -44.926  13.234  22.697  0.00  0.00     0.013 A 
ATOM      7  C   UNL d   1     -44.673  12.974  21.952  0.00  0.00     0.104 A 
ATOM      8  C   UNL d   1     -45.226  12.641  21.425  0.00  0.00     0.013 A 
ATOM      9  C   UNL d   1     -46.022  12.570  21.640  0.00  0.00     0.005 A 
BRANCH   7  10
ATOM     10  S   UNL d   1     -43.880  13.043  21.733  0.00  0.00     0.272 S 
ATOM     11  O   UNL d   1     -43.979  13.871  21.776  0.00  0.00    -0.200 OA
ATOM     12  O   UNL d   1     -43.787  12.229  21.693  0.00  0.00    -0.200 OA
BRANCH  10  13
ATOM     13  N   UNL d   1     -43.089  13.114  21.515  0.00  0.00    -0.225 N 
ATOM     14  C   UNL d   1     -42.544  12.572  21.796  0.00  0.00     0.118 A 
ATOM     15  C   UNL d   1     -41.750  12.641  21.579  0.00  0.00     0.142 A 
ATOM     16  O   UNL d   1     -41.509  13.253  21.081  0.00  0.00    -0.300 OA
ATOM     17  C   UNL d   1     -42.063  13.796  20.802  0.00  0.00     0.142 A 
ATOM     18  C   UNL d   1     -42.856  13.727  21.019  0.00  0.00     0.118 A 
ENDBRANCH  10  13
ENDBRANCH   7  10
ENDBRANCH   2   4
BRANCH   1  19
ATOM     19  C   UNL d   1     -48.397  13.290  22.631  0.00  0.00     0.182 A 
ATOM     20  N   UNL d   1     -48.886  13.904  22.862  0.00  0.00    -0.283 N 
ATOM     21  C   UNL d   1     -49.631  13.596  23.037  0.00  0.00     0.094 A 
ATOM     22  C   UNL d   1     -50.342  13.957  23.297  0.00  0.00     0.111 A 
ATOM     23  C   UNL d   1     -49.607  12.787  22.915  0.00  0.00     0.050 A 
ATOM     24  C   UNL d   1     -51.005  13.491  23.425  0.00  0.00     0.026 A 
ATOM     25  C   UNL d   1     -50.988  12.677  23.304  0.00  0.00     0.003 A 
ATOM     26  C   UNL d   1     -50.285  12.323  23.048  0.00  0.00     0.008 A 
ATOM     27  S   UNL d   1     -48.847  12.586  22.663  0.00  0.00    -0.048 SA
BRANCH  20  28
ATOM     28  C   UNL d   1     -48.676  14.700  22.914  0.00  0.00     0.082 C 
ATOM     29  C   UNL d   1     -48.540  15.198  22.270  0.00  0.00     0.021 C 
ENDBRANCH  20  28
BRANCH  22  30
ATOM     30  O   UNL d   1     -50.368  14.762  23.419  0.00  0.00    -0.327 OA
ATOM     31  C   UNL d   1     -51.064  15.120  23.660  0.00  0.00     0.181 C 
ENDBRANCH  22  30
ENDBRANCH   1  19
TORSDOF 6
ENDMDL
MODEL 3
REMARK VINA RESULT:      -3.0      1.048      6.597
REMARK  6 active torsions:
REMARK  status: ('A' for Active; 'I' for Inactive)
REMARK    1  A    between atoms: N_3  and  C_1 
REMARK    2  A    between atoms: S_2  and  C_10 
REMARK    3  A    between atoms: N_8  and  S_2 
REMARK       I    between atoms: C_9  and  N_3 
REMARK    4  A    between atoms: C_23  and  N_4 
REMARK    5  A    between atoms: C_13  and  C_9 
REMARK    6  A    between atoms: O_25  and  C_14 
ROOT
ATOM      1  N   UNL d   1     -41.867  14.097  20.830  0.00  0.00    -0.184 NA
ATOM      2  C   UNL d   1     -42.329  13.433  20.636  0.00  0.00     0.281 C 
ATOM      3  O   UNL d   1     -42.105  12.947  20.006  0.00  0.00    -0.265 OA
ENDROOT
BRANCH   2   4
ATOM      4  C   UNL d   1     -43.011  13.260  21.074  0.00  0.00     0.058 A 
ATOM      5  C   UNL d   1     -43.062  12.547  21.481  0.00  0.00     0.005 A 
ATOM      6  C   UNL d   1     -43.741  12.374  21.918  0.00  0.00     0.013 A 
ATOM      7  C   UNL d   1     -44.368  12.913  21.945  0.00  0.00     0.104 A 
ATOM      8  C   UNL d   1     -44.308  13.634  21.529  0.00  0.00     0.013 A 
ATOM      9  C   UNL d   1     -43.629  13.810  21.091  0.00  0.00     0.005 A 
BRANCH   7  10
ATOM     10  S   UNL d   1     -45.048  12.741  22.381  0.00  0.00     0.272 S 
ATOM     11  O   UNL d   1     -45.439  13.326  21.931  0.00  0.00    -0.200 OA
ATOM     12  O   UNL d   1     -44.659  12.168  22.821  0.00  0.00    -0.200 OA
BRANCH  10  13
ATOM     13  N   UNL d   1     -45.727  12.571  22.815  0.00  0.00    -0.225 N 
ATOM     14  C   UNL d   1     -45.810  11.833  23.159  0.00  0.00     0.118 A 
ATOM     15  C   UNL d   1     -46.490  11.659  23.594  0.00  0.00     0.142 A 
ATOM     16  O   UNL d   1     -47.082  12.227  23.682  0.00  0.00    -0.300 OA
ATOM     17  C   UNL d   1     -46.991  12.969  23.333  0.00  0.00     0.142 A 
ATOM     18  C   UNL d   1     -46.312  13.143  22.898  0.00  0.00     0.118 A 
ENDBRANCH  10  13
ENDBRANCH   7  10
ENDBRANCH   2   4
BRANCH   1  19
ATOM     19  C   UNL d   1     -41.180  14.267  20.385  0.00  0.00     0.182 A 
ATOM     20  N   UNL d   1     -40.570  14.758  20.621  0.00  0.00    -0.283 N 
ATOM     21  C   UNL d   1     -40.000  14.776  20.025  0.00  0.00     0.094 A 
ATOM     22  C   UNL d   1     -39.267  15.177  19.959  0.00  0.00     0.111 A 
ATOM     23  C   UNL d   1     -40.255  14.294  19.414  0.00  0.00     0.050 A 
ATOM     24  C   UNL d   1     -38.815  15.080  19.281  0.00  0.00     0.026 A 
ATOM     25  C   UNL d   1     -39.066  14.598  18.663  0.00  0.00     0.003 A 
ATOM     26  C   UNL d   1     -39.790  14.202  18.731  0.00  0.00     0.008 A 
ATOM     27  S   UNL d   1     -40.986  13.973  19.627  0.00  0.00    -0.048 SA
BRANCH  20  28
ATOM     28  C   UNL d   1     -40.525  15.170  21.334  0.00  0.00     0.082 C 
ATOM     29  C   UNL d   1     -40.941  15.860  21.512  0.00  0.00     0.021 C 
ENDBRANCH  20  28
BRANCH  22  30
ATOM     30  O   UNL d   1     -39.011  15.657  20.565  0.00  0.00    -0.327 OA
ATOM     31  C   UNL d   1     -38.236  15.922  20.582  0.00  0.00     0.181 C 
ENDBRANCH  22  30
ENDBRANCH   1  19
TORSDOF 6
ENDMDL
MODEL 4
REMARK VINA RESULT:      -2.6      1.477      6.909
REMARK  6 active torsions:
REMARK  status: ('A' for Active; 'I' for Inactive)
REMARK    1  A    between atoms: N_3  and  C_1 
REMARK    2  A    between atoms: S_2  and  C_10 
REMARK    3  A    between atoms: N_8  and  S_2 
REMARK       I    between atoms: C_9  and  N_3 
REMARK    4  A    between atoms: C_23  and  N_4 
REMARK    5  A    between atoms: C_13  and  C_9 
REMARK    6  A    between atoms: O_25  and  C_14 
ROOT
ATOM      1  N   UNL d   1     -41.190  14.296  19.861  0.00  0.00    -0.184 NA
ATOM      2  C   UNL d   1     -41.223  13.989  20.634  0.00  0.00     0.281 C 
ATOM      3  O   UNL d   1     -40.531  13.932  21.082  0.00  0.00    -0.265 OA
ENDROOT
BRANCH   2   4
ATOM      4  C   UNL d   1     -41.946  13.741  20.952  0.00  0.00     0.058 A 
ATOM      5  C   UNL d   1     -42.523  14.300  21.133  0.00  0.00     0.005 A 
ATOM      6  C   UNL d   1     -43.244  14.054  21.450  0.00  0.00     0.013 A 
ATOM      7  C   UNL d   1     -43.389  13.250  21.586  0.00  0.00     0.104 A 
ATOM      8  C   UNL d   1     -42.799  12.691  21.399  0.00  0.00     0.013 A 
ATOM      9  C   UNL d   1     -42.075  12.933  21.082  0.00  0.00     0.005 A 
BRANCH   7  10
ATOM     10  S   UNL d   1     -44.110  13.004  21.902  0.00  0.00     0.272 S 
ATOM     11  O   UNL d   1     -43.774  12.242  21.975  0.00  0.00    -0.200 OA
ATOM     12  O   UNL d   1     -44.435  13.753  21.829  0.00  0.00    -0.200 OA
BRANCH  10  13
ATOM     13  N   UNL d   1     -44.828  12.755  22.219  0.00  0.00    -0.225 N 
ATOM     14  C   UNL d   1     -45.499  13.210  22.100  0.00  0.00     0.118 A 
ATOM     15  C   UNL d   1     -46.221  12.964  22.416  0.00  0.00     0.142 A 
ATOM     16  O   UNL d   1     -46.266  12.263  22.849  0.00  0.00    -0.300 OA
ATOM     17  C   UNL d   1     -45.587  11.809  22.964  0.00  0.00     0.142 A 
ATOM     18  C   UNL d   1     -44.865  12.055  22.649  0.00  0.00     0.118 A 
ENDBRANCH  10  13
ENDBRANCH   7  10
ENDBRANCH   2   4
BRANCH   1  19
ATOM     19  C   UNL d   1     -40.457  14.544  19.545  0.00  0.00     0.182 A 
ATOM     20  N   UNL d   1     -40.274  14.592  18.749  0.00  0.00    -0.283 N 
ATOM     21  C   UNL d   1     -39.497  14.860  18.673  0.00  0.00     0.094 A 
ATOM     22  C   UNL d   1     -39.019  15.013  18.002  0.00  0.00     0.111 A 
ATOM     23  C   UNL d   1     -39.194  14.978  19.425  0.00  0.00     0.050 A 
ATOM     24  C   UNL d   1     -38.250  15.281  18.110  0.00  0.00     0.026 A 
ATOM     25  C   UNL d   1     -37.940  15.402  18.862  0.00  0.00     0.003 A 
ATOM     26  C   UNL d   1     -38.414  15.250  19.523  0.00  0.00     0.008 A 
ATOM     27  S   UNL d   1     -39.781  14.785  19.972  0.00  0.00    -0.048 SA
BRANCH  20  28
ATOM     28  C   UNL d   1     -40.777  14.407  18.122  0.00  0.00     0.082 C 
ATOM     29  C   UNL d   1     -41.388  14.887  17.845  0.00  0.00     0.021 C 
ENDBRANCH  20  28
BRANCH  22  30
ATOM     30  O   UNL d   1     -39.318  14.896  17.254  0.00  0.00    -0.327 OA
ATOM     31  C   UNL d   1     -38.834  14.981  16.599  0.00  0.00     0.181 C 
ENDBRANCH  22  30
ENDBRANCH   1  19
TORSDOF 6
ENDMDL
