MODEL 1
REMARK VINA RESULT:       0.1      0.000      0.000
REMARK  6 active torsions:
REMARK  status: ('A' for Active; 'I' for Inactive)
REMARK    1  A    between atoms: C_6  and  C_1 
REMARK    2  A    between atoms: C_9  and  N_3 
REMARK    3  A    between atoms: C_17  and  C_9 
REMARK    4  A    between atoms: O_15  and  C_10 
REMARK    5  A    between atoms: O_16  and  C_17 
REMARK    6  A    between atoms: C_18  and  O_16 
ROOT
ATOM      1  C   UNL d   1     -41.725-123.173 -51.976  0.00  0.00     0.148 A 
ATOM      2  N   UNL d   1     -41.795-123.749 -52.575  0.00  0.00    -0.227 NA
ATOM      3  N   UNL d   1     -41.561-122.443 -52.326  0.00  0.00    -0.287 N 
ATOM      4  C   UNL d   1     -41.527-122.554 -53.146  0.00  0.00     0.083 A 
ATOM      5  C   UNL d   1     -41.670-123.357 -53.298  0.00  0.00     0.099 A 
ATOM      6  C   UNL d   1     -41.385-122.037 -53.784  0.00  0.00     0.019 A 
ATOM      7  C   UNL d   1     -41.672-123.639 -54.081  0.00  0.00     0.021 A 
ATOM      8  C   UNL d   1     -41.386-122.318 -54.559  0.00  0.00     0.002 A 
ATOM      9  C   UNL d   1     -41.530-123.121 -54.707  0.00  0.00     0.002 A 
ENDROOT
BRANCH   1  10
ATOM     10  C   UNL d   1     -41.807-123.315 -51.167  0.00  0.00     0.035 A 
ATOM     11  C   UNL d   1     -42.548-123.250 -50.812  0.00  0.00     0.005 A 
ATOM     12  C   UNL d   1     -42.629-123.391 -50.007  0.00  0.00     0.024 A 
ATOM     13  C   UNL d   1     -41.974-123.596 -49.550  0.00  0.00     0.094 A 
ATOM     14  C   UNL d   1     -41.219-123.662 -49.910  0.00  0.00     0.024 A 
ATOM     15  C   UNL d   1     -41.144-123.520 -50.717  0.00  0.00     0.005 A 
BRANCH  13  16
ATOM     16  O   UNL d   1     -42.049-123.739 -48.740  0.00  0.00    -0.328 OA
ATOM     17  C   UNL d   1     -41.408-123.591 -48.243  0.00  0.00     0.181 C 
ENDBRANCH  13  16
ENDBRANCH   1  10
BRANCH   3  18
ATOM     18  C   UNL d   1     -41.478-121.822 -51.795  0.00  0.00     0.108 C 
BRANCH  18  19
ATOM     19  C   UNL d   1     -41.148-121.110 -52.043  0.00  0.00     0.142 C 
BRANCH  19  20
ATOM     20  O   UNL d   1     -41.281-120.423 -51.612  0.00  0.00    -0.302 OA
BRANCH  20  21
ATOM     21  C   UNL d   1     -41.154-119.690 -51.962  0.00  0.00     0.123 C 
ATOM     22  C   UNL d   1     -41.123-119.011 -51.491  0.00  0.00     0.029 C 
ENDBRANCH  20  21
ENDBRANCH  19  20
ENDBRANCH  18  19
ENDBRANCH   3  18
TORSDOF 6
ENDMDL
