MODEL 1
REMARK VINA RESULT:      85.4      0.000      0.000
REMARK  5 active torsions:
REMARK  status: ('A' for Active; 'I' for Inactive)
REMARK    1  A    between atoms: N_10  and  C_4 
REMARK    2  A    between atoms: C_20  and  N_5 
REMARK    3  A    between atoms: C_12  and  S_19 
REMARK    4  A    between atoms: S_19  and  C_23 
REMARK    5  A    between atoms: C_23  and  C_20 
ROOT
ATOM      1  C   UNL d   1     -58.361 -98.769 -45.296  0.00  0.00     0.191 A 
ATOM      2  C   UNL d   1     -57.537 -98.766 -45.276  0.00  0.00     0.174 A 
ATOM      3  N   UNL d   1     -58.632 -98.769 -44.519  0.00  0.00    -0.042 NA
ATOM      4  C   UNL d   1     -57.984 -98.765 -44.022  0.00  0.00     0.722 A 
ATOM      5  N   UNL d   1     -57.299 -98.763 -44.487  0.00  0.00    -0.132 N 
ATOM      6  N   UNL d   1     -58.756 -98.772 -46.021  0.00  0.00    -0.239 N 
ATOM      7  C   UNL d   1     -58.326 -98.772 -46.725  0.00  0.00     0.358 A 
ATOM      8  N   UNL d   1     -57.503 -98.769 -46.706  0.00  0.00    -0.152 NA
ATOM      9  C   UNL d   1     -57.107 -98.766 -45.981  0.00  0.00     0.303 A 
ATOM     10  O   UNL d   1     -58.726 -98.776 -47.449  0.00  0.00    -0.244 OA
ATOM     11  O   UNL d   1     -56.283 -98.762 -45.961  0.00  0.00    -0.263 OA
ATOM     12  C   UNL d   1     -59.571 -98.776 -46.040  0.00  0.00     0.105 C 
ENDROOT
BRANCH   5  13
ATOM     13  C   UNL d   1     -56.517 -98.759 -44.212  0.00  0.00     0.105 C 
BRANCH  13  14
ATOM     14  C   UNL d   1     -55.939 -99.213 -44.597  0.00  0.00     0.058 C 
BRANCH  14  15
ATOM     15  S   UNL d   1     -55.219 -99.381 -44.207  0.00  0.00    -0.041 SA
BRANCH  15  16
ATOM     16  C   UNL d   1     -55.113-100.126 -43.862  0.00  0.00     0.215 A 
ATOM     17  N   UNL d   1     -55.221-100.809 -44.300  0.00  0.00    -0.214 NA
ATOM     18  C   UNL d   1     -55.080-101.446 -43.817  0.00  0.00     0.107 A 
ATOM     19  C   UNL d   1     -55.108-102.261 -43.971  0.00  0.00     0.021 A 
ATOM     20  C   UNL d   1     -54.883-101.180 -43.078  0.00  0.00     0.120 A 
ATOM     21  C   UNL d   1     -54.935-102.800 -43.366  0.00  0.00     0.002 A 
ATOM     22  C   UNL d   1     -54.739-102.530 -42.628  0.00  0.00     0.002 A 
ATOM     23  C   UNL d   1     -54.713-101.717 -42.484  0.00  0.00     0.026 A 
ATOM     24  O   UNL d   1     -54.903-100.346 -43.102  0.00  0.00    -0.283 OA
ENDBRANCH  15  16
ENDBRANCH  14  15
ENDBRANCH  13  14
ENDBRANCH   5  13
BRANCH   4  25
ATOM     25  N   UNL d   1     -58.045 -98.763 -43.204  0.00  0.00    -0.139 N 
ATOM     26  C   UNL d   1     -58.787 -98.765 -42.849  0.00  0.00     0.098 A 
ATOM     27  C   UNL d   1     -58.857 -98.764 -42.026  0.00  0.00     0.018 A 
ATOM     28  C   UNL d   1     -59.597 -98.766 -41.648  0.00  0.00     0.002 C 
ATOM     29  C   UNL d   1     -58.182 -98.760 -41.559  0.00  0.00     0.003 A 
ATOM     30  C   UNL d   1     -57.432 -98.758 -41.909  0.00  0.00     0.020 A 
ATOM     31  C   UNL d   1     -57.369 -98.760 -42.742  0.00  0.00     0.098 A 
ENDBRANCH   4  25
TORSDOF 5
ENDMDL
