MODEL 1
REMARK VINA RESULT:      42.5      0.000      0.000
REMARK  6 active torsions:
REMARK  status: ('A' for Active; 'I' for Inactive)
REMARK    1  A    between atoms: S_15  and  C_4 
REMARK    2  A    between atoms: C_7  and  N_13 
REMARK    3  A    between atoms: S_20  and  C_11 
REMARK       I    between atoms: N_13  and  C_16 
REMARK    4  A    between atoms: C_21  and  S_15 
REMARK    5  A    between atoms: C_16  and  C_21 
REMARK    6  A    between atoms: C_23  and  S_20 
ROOT
ATOM      1  S   UNL d   1     -55.425 -98.795 -44.289  0.00  0.00    -0.044 SA
ENDROOT
BRANCH   1   2
ATOM      2  C   UNL d   1     -56.257 -98.785 -44.335  0.00  0.00     0.182 A 
ATOM      3  N   UNL d   1     -56.712 -98.785 -43.637  0.00  0.00    -0.222 NA
ATOM      4  C   UNL d   1     -57.525 -98.775 -43.683  0.00  0.00     0.095 A 
ATOM      5  C   UNL d   1     -57.902 -98.765 -44.417  0.00  0.00     0.104 A 
ATOM      6  C   UNL d   1     -58.104 -98.773 -43.096  0.00  0.00     0.026 A 
ATOM      7  C   UNL d   1     -57.466 -98.765 -45.104  0.00  0.00     0.274 A 
ATOM      8  S   UNL d   1     -58.714 -98.757 -44.283  0.00  0.00    -0.081 SA
ATOM      9  N   UNL d   1     -56.634 -98.775 -45.069  0.00  0.00    -0.251 N 
ATOM     10  O   UNL d   1     -57.844 -98.755 -45.838  0.00  0.00    -0.266 OA
ATOM     11  C   UNL d   1     -56.185 -98.775 -45.768  0.00  0.00     0.104 C 
ATOM     12  C   UNL d   1     -58.834 -98.761 -43.463  0.00  0.00     0.031 A 
ATOM     13  C   UNL d   1     -59.562 -98.756 -43.073  0.00  0.00     0.007 C 
ENDBRANCH   1   2
BRANCH   1  14
ATOM     14  C   UNL d   1     -55.043 -99.447 -43.956  0.00  0.00     0.101 C 
BRANCH  14  15
ATOM     15  C   UNL d   1     -54.875 -99.459 -43.148  0.00  0.00     0.288 C 
ATOM     16  N   UNL d   1     -54.712-100.175 -42.771  0.00  0.00    -0.181 NA
ATOM     17  O   UNL d   1     -54.871 -98.755 -42.717  0.00  0.00    -0.265 OA
BRANCH  16  18
ATOM     18  C   UNL d   1     -54.716-100.878 -43.203  0.00  0.00     0.219 A 
ATOM     19  S   UNL d   1     -54.711-101.035 -44.008  0.00  0.00    -0.019 SA
ATOM     20  C   UNL d   1     -54.720-101.848 -44.115  0.00  0.00     0.165 A 
ATOM     21  N   UNL d   1     -54.729-102.190 -43.381  0.00  0.00    -0.133 NA
ATOM     22  N   UNL d   1     -54.727-101.599 -42.811  0.00  0.00    -0.120 NA
BRANCH  20  23
ATOM     23  S   UNL d   1     -54.718-102.255 -44.833  0.00  0.00    -0.059 SA
BRANCH  23  24
ATOM     24  C   UNL d   1     -55.397-102.643 -45.080  0.00  0.00     0.037 C 
ATOM     25  C   UNL d   1     -55.484-102.851 -45.883  0.00  0.00     0.008 C 
ENDBRANCH  23  24
ENDBRANCH  20  23
ENDBRANCH  16  18
ENDBRANCH  14  15
ENDBRANCH   1  14
TORSDOF 6
ENDMDL
