MODEL 1
REMARK VINA RESULT:      -6.0      0.000      0.000
REMARK  1 active torsions:
REMARK  status: ('A' for Active; 'I' for Inactive)
REMARK    1  A    between atoms: C_4  and  C_1 
ROOT
ATOM      1  C   UNL d   1     -41.524-122.536 -53.230  0.00  0.00     0.163 A 
ATOM      2  N   UNL d   1     -41.350-121.947 -52.679  0.00  0.00    -0.225 NA
ATOM      3  N   UNL d   1     -41.580-123.260 -52.824  0.00  0.00    -0.225 NA
ATOM      4  C   UNL d   1     -41.297-122.298 -51.932  0.00  0.00     0.101 A 
ATOM      5  C   UNL d   1     -41.440-123.114 -52.022  0.00  0.00     0.101 A 
ATOM      6  C   UNL d   1     -41.138-121.987 -51.179  0.00  0.00     0.021 A 
ATOM      7  C   UNL d   1     -41.422-123.610 -51.357  0.00  0.00     0.021 A 
ATOM      8  C   UNL d   1     -41.264-123.299 -50.613  0.00  0.00     0.002 A 
ATOM      9  C   UNL d   1     -41.123-122.491 -50.524  0.00  0.00     0.002 A 
ENDROOT
BRANCH   1  10
ATOM     10  C   UNL d   1     -41.625-122.430 -54.041  0.00  0.00     0.046 A 
ATOM     11  C   UNL d   1     -42.226-121.946 -54.314  0.00  0.00     0.061 A 
ATOM     12 CL   UNL d   1     -42.727-121.568 -53.770  0.00  0.00    -0.082 Cl
ATOM     13  C   UNL d   1     -42.326-121.840 -55.113  0.00  0.00     0.011 A 
ATOM     14  C   UNL d   1     -41.826-122.217 -55.653  0.00  0.00     0.001 A 
ATOM     15  C   UNL d   1     -41.224-122.702 -55.375  0.00  0.00     0.000 A 
ATOM     16  C   UNL d   1     -41.123-122.809 -54.565  0.00  0.00     0.004 A 
ENDBRANCH   1  10
TORSDOF 1
ENDMDL
MODEL 2
REMARK VINA RESULT:      -5.5      1.738      2.617
REMARK  1 active torsions:
REMARK  status: ('A' for Active; 'I' for Inactive)
REMARK    1  A    between atoms: C_4  and  C_1 
ROOT
ATOM      1  C   UNL d   1     -41.627-123.145 -50.843  0.00  0.00     0.163 A 
ATOM      2  N   UNL d   1     -42.321-122.891 -50.475  0.00  0.00    -0.225 NA
ATOM      3  N   UNL d   1     -41.124-123.454 -50.256  0.00  0.00    -0.225 NA
ATOM      4  C   UNL d   1     -42.254-123.039 -49.665  0.00  0.00     0.101 A 
ATOM      5  C   UNL d   1     -41.511-123.389 -49.528  0.00  0.00     0.101 A 
ATOM      6  C   UNL d   1     -42.770-122.903 -49.027  0.00  0.00     0.021 A 
ATOM      7  C   UNL d   1     -41.291-123.599 -48.756  0.00  0.00     0.021 A 
ATOM      8  C   UNL d   1     -41.803-123.464 -48.128  0.00  0.00     0.002 A 
ATOM      9  C   UNL d   1     -42.539-123.118 -48.263  0.00  0.00     0.002 A 
ENDROOT
BRANCH   1  10
ATOM     10  C   UNL d   1     -41.459-123.101 -51.648  0.00  0.00     0.046 A 
ATOM     11  C   UNL d   1     -41.290-122.376 -51.988  0.00  0.00     0.061 A 
ATOM     12 CL   UNL d   1     -41.290-121.692 -51.516  0.00  0.00    -0.082 Cl
ATOM     13  C   UNL d   1     -41.124-122.333 -52.782  0.00  0.00     0.011 A 
ATOM     14  C   UNL d   1     -41.125-123.015 -53.249  0.00  0.00     0.001 A 
ATOM     15  C   UNL d   1     -41.294-123.741 -52.905  0.00  0.00     0.000 A 
ATOM     16  C   UNL d   1     -41.462-123.784 -52.100  0.00  0.00     0.004 A 
ENDBRANCH   1  10
TORSDOF 1
ENDMDL
MODEL 3
REMARK VINA RESULT:      -5.4      1.933      4.296
REMARK  1 active torsions:
REMARK  status: ('A' for Active; 'I' for Inactive)
REMARK    1  A    between atoms: C_4  and  C_1 
ROOT
ATOM      1  C   UNL d   1     -41.602-123.042 -50.224  0.00  0.00     0.163 A 
ATOM      2  N   UNL d   1     -41.514-122.323 -50.619  0.00  0.00    -0.225 NA
ATOM      3  N   UNL d   1     -41.517-123.654 -50.781  0.00  0.00    -0.225 NA
ATOM      4  C   UNL d   1     -41.376-122.482 -51.419  0.00  0.00     0.101 A 
ATOM      5  C   UNL d   1     -41.378-123.309 -51.519  0.00  0.00     0.101 A 
ATOM      6  C   UNL d   1     -41.247-121.987 -52.073  0.00  0.00     0.021 A 
ATOM      7  C   UNL d   1     -41.251-123.632 -52.273  0.00  0.00     0.021 A 
ATOM      8  C   UNL d   1     -41.125-123.139 -52.918  0.00  0.00     0.002 A 
ATOM      9  C   UNL d   1     -41.123-122.320 -52.819  0.00  0.00     0.002 A 
ENDROOT
BRANCH   1  10
ATOM     10  C   UNL d   1     -41.747-123.139 -49.418  0.00  0.00     0.046 A 
ATOM     11  C   UNL d   1     -42.494-122.986 -49.120  0.00  0.00     0.061 A 
ATOM     12 CL   UNL d   1     -43.096-122.734 -49.634  0.00  0.00    -0.082 Cl
ATOM     13  C   UNL d   1     -42.637-123.082 -48.327  0.00  0.00     0.011 A 
ATOM     14  C   UNL d   1     -42.036-123.333 -47.818  0.00  0.00     0.001 A 
ATOM     15  C   UNL d   1     -41.288-123.486 -48.121  0.00  0.00     0.000 A 
ATOM     16  C   UNL d   1     -41.143-123.389 -48.925  0.00  0.00     0.004 A 
ENDBRANCH   1  10
TORSDOF 1
ENDMDL
