MODEL 1
REMARK VINA RESULT:      30.1      0.000      0.000
REMARK  3 active torsions:
REMARK  status: ('A' for Active; 'I' for Inactive)
REMARK    1  A    between atoms: C_6  and  C_2 
REMARK    2  A    between atoms: O_7  and  C_6 
REMARK    3  A    between atoms: C_8  and  O_7 
ROOT
ATOM      1  N   UNL d   1     -54.714-102.559 -39.501  0.00  0.00    -0.224 NA
ATOM      2  C   UNL d   1     -55.243-102.562 -40.140  0.00  0.00     0.188 A 
ATOM      3  N   UNL d   1     -55.999-102.666 -39.815  0.00  0.00    -0.224 NA
ATOM      4  C   UNL d   1     -55.132-102.659 -38.812  0.00  0.00     0.101 A 
ATOM      5  C   UNL d   1     -55.933-102.725 -39.007  0.00  0.00     0.101 A 
ATOM      6  C   UNL d   1     -54.921-102.702 -38.021  0.00  0.00     0.021 A 
ATOM      7  C   UNL d   1     -56.501-102.833 -38.407  0.00  0.00     0.021 A 
ATOM      8  C   UNL d   1     -56.254-102.870 -37.643  0.00  0.00     0.002 A 
ATOM      9  C   UNL d   1     -55.453-102.804 -37.447  0.00  0.00     0.002 A 
ENDROOT
BRANCH   2  10
ATOM     10  C   UNL d   1     -54.854-102.465 -40.837  0.00  0.00     0.161 C 
BRANCH  10  11
ATOM     11  O   UNL d   1     -54.983-101.780 -41.303  0.00  0.00    -0.302 OA
BRANCH  11  12
ATOM     12  C   UNL d   1     -54.915-101.809 -42.133  0.00  0.00     0.100 A 
ATOM     13  C   UNL d   1     -54.960-101.118 -42.569  0.00  0.00     0.025 A 
ATOM     14  C   UNL d   1     -54.896-101.118 -43.392  0.00  0.00     0.002 A 
ATOM     15  C   UNL d   1     -54.783-101.850 -43.756  0.00  0.00     0.000 A 
ATOM     16  C   UNL d   1     -54.737-102.546 -43.321  0.00  0.00     0.002 A 
ATOM     17  C   UNL d   1     -54.714-101.878 -44.586  0.00  0.00     0.000 C 
ATOM     18  C   UNL d   1     -54.802-102.539 -42.502  0.00  0.00     0.025 A 
ENDBRANCH  11  12
ENDBRANCH  10  11
ENDBRANCH   2  10
TORSDOF 3
ENDMDL
