MODEL 1
REMARK VINA RESULT:      -2.1      0.000      0.000
REMARK  7 active torsions:
REMARK  status: ('A' for Active; 'I' for Inactive)
REMARK    1  A    between atoms: C_4  and  C_1 
REMARK    2  A    between atoms: C_6  and  C_3 
REMARK       I    between atoms: N_13  and  C_6 
REMARK    3  A    between atoms: O_18  and  C_8 
REMARK    4  A    between atoms: O_19  and  C_10 
REMARK    5  A    between atoms: C_20  and  N_13 
REMARK    6  A    between atoms: C_15  and  C_22 
REMARK    7  A    between atoms: C_22  and  C_20 
ROOT
ATOM      1  C   UNL d   1      59.124  -9.212  33.850  0.00  0.00     0.302 C 
ATOM      2  O   UNL d   1      58.337  -9.406  33.710  0.00  0.00    -0.263 OA
ATOM      3  N   UNL d   1      59.696  -9.417  33.299  0.00  0.00    -0.205 NA
ENDROOT
BRANCH   1   4
ATOM      4  C   UNL d   1      59.335  -8.813  34.540  0.00  0.00     0.158 A 
ATOM      5  O   UNL d   1      59.615  -8.041  34.590  0.00  0.00    -0.302 OA
ATOM      6  C   UNL d   1      59.754  -7.873  35.385  0.00  0.00     0.101 A 
ATOM      7  C   UNL d   1      59.558  -8.544  35.833  0.00  0.00     0.027 A 
ATOM      8  C   UNL d   1      59.297  -9.128  35.304  0.00  0.00     0.032 A 
BRANCH   6   9
ATOM      9  C   UNL d   1      60.037  -7.165  35.683  0.00  0.00     0.033 A 
ATOM     10  C   UNL d   1      59.506  -6.595  35.963  0.00  0.00     0.060 A 
ATOM     11 CL   UNL d   1      58.692  -6.737  35.944  0.00  0.00    -0.082 Cl
ATOM     12  C   UNL d   1      59.794  -5.882  36.262  0.00  0.00     0.011 A 
ATOM     13  C   UNL d   1      60.605  -5.734  36.284  0.00  0.00     0.001 A 
ATOM     14  C   UNL d   1      61.132  -6.298  36.006  0.00  0.00     0.000 A 
ATOM     15  C   UNL d   1      60.854  -7.016  35.704  0.00  0.00     0.003 A 
ENDBRANCH   6   9
ENDBRANCH   1   4
BRANCH   3  16
ATOM     16  C   UNL d   1      59.486  -9.817  32.607  0.00  0.00     0.102 C 
BRANCH  16  17
ATOM     17  C   UNL d   1      59.971  -9.792  31.954  0.00  0.00     0.021 C 
BRANCH  17  18
ATOM     18  C   UNL d   1      59.644  -9.676  31.205  0.00  0.00     0.004 A 
ATOM     19  C   UNL d   1      60.135  -9.631  30.540  0.00  0.00     0.026 A 
ATOM     20  C   UNL d   1      59.813  -9.517  29.798  0.00  0.00     0.116 A 
ATOM     21  C   UNL d   1      58.990  -9.445  29.715  0.00  0.00     0.116 A 
ATOM     22  C   UNL d   1      58.502  -9.489  30.377  0.00  0.00     0.026 A 
ATOM     23  C   UNL d   1      58.829  -9.605  31.122  0.00  0.00     0.002 A 
BRANCH  20  24
ATOM     24  O   UNL d   1      60.307  -9.473  29.140  0.00  0.00    -0.326 OA
ATOM     25  C   UNL d   1      61.133  -9.473  29.246  0.00  0.00     0.181 C 
ENDBRANCH  20  24
BRANCH  21  26
ATOM     26  O   UNL d   1      58.666  -9.328  28.954  0.00  0.00    -0.326 OA
ATOM     27  C   UNL d   1      57.860  -9.180  28.888  0.00  0.00     0.181 C 
ENDBRANCH  21  26
ENDBRANCH  17  18
ENDBRANCH  16  17
ENDBRANCH   3  16
TORSDOF 7
ENDMDL
MODEL 2
REMARK VINA RESULT:      -1.9      8.231      8.997
REMARK  7 active torsions:
REMARK  status: ('A' for Active; 'I' for Inactive)
REMARK    1  A    between atoms: C_4  and  C_1 
REMARK    2  A    between atoms: C_6  and  C_3 
REMARK       I    between atoms: N_13  and  C_6 
REMARK    3  A    between atoms: O_18  and  C_8 
REMARK    4  A    between atoms: O_19  and  C_10 
REMARK    5  A    between atoms: C_20  and  N_13 
REMARK    6  A    between atoms: C_15  and  C_22 
REMARK    7  A    between atoms: C_22  and  C_20 
ROOT
ATOM      1  C   UNL d   1      57.196  -0.284  31.654  0.00  0.00     0.302 C 
ATOM      2  O   UNL d   1      57.224  -1.100  31.556  0.00  0.00    -0.263 OA
ATOM      3  N   UNL d   1      57.384   0.206  31.024  0.00  0.00    -0.205 NA
ENDROOT
BRANCH   1   4
ATOM      4  C   UNL d   1      56.979   0.038  32.382  0.00  0.00     0.158 A 
ATOM      5  O   UNL d   1      56.235  -0.003  32.730  0.00  0.00    -0.302 OA
ATOM      6  C   UNL d   1      56.271   0.393  33.452  0.00  0.00     0.101 A 
ATOM      7  C   UNL d   1      57.042   0.682  33.554  0.00  0.00     0.027 A 
ATOM      8  C   UNL d   1      57.482   0.459  32.886  0.00  0.00     0.032 A 
BRANCH   6   9
ATOM      9  C   UNL d   1      55.651   0.485  33.979  0.00  0.00     0.033 A 
ATOM     10  C   UNL d   1      55.807   0.553  34.790  0.00  0.00     0.060 A 
ATOM     11 CL   UNL d   1      56.584   0.528  35.069  0.00  0.00    -0.082 Cl
ATOM     12  C   UNL d   1      55.181   0.646  35.318  0.00  0.00     0.011 A 
ATOM     13  C   UNL d   1      54.403   0.672  35.045  0.00  0.00     0.001 A 
ATOM     14  C   UNL d   1      54.247   0.605  34.243  0.00  0.00     0.000 A 
ATOM     15  C   UNL d   1      54.868   0.511  33.705  0.00  0.00     0.003 A 
ENDBRANCH   6   9
ENDBRANCH   1   4
BRANCH   3  16
ATOM     16  C   UNL d   1      57.602  -0.115  30.294  0.00  0.00     0.102 C 
BRANCH  16  17
ATOM     17  C   UNL d   1      58.302   0.102  29.942  0.00  0.00     0.021 C 
BRANCH  17  18
ATOM     18  C   UNL d   1      58.772  -0.470  29.578  0.00  0.00     0.004 A 
ATOM     19  C   UNL d   1      59.546  -0.287  29.347  0.00  0.00     0.026 A 
ATOM     20  C   UNL d   1      60.013  -0.852  28.987  0.00  0.00     0.116 A 
ATOM     21  C   UNL d   1      59.706  -1.612  28.852  0.00  0.00     0.116 A 
ATOM     22  C   UNL d   1      58.936  -1.794  29.081  0.00  0.00     0.026 A 
ATOM     23  C   UNL d   1      58.469  -1.223  29.444  0.00  0.00     0.002 A 
BRANCH  20  24
ATOM     24  O   UNL d   1      60.782  -0.664  28.760  0.00  0.00    -0.326 OA
ATOM     25  C   UNL d   1      61.062   0.114  28.863  0.00  0.00     0.181 C 
ENDBRANCH  20  24
BRANCH  21  26
ATOM     26  O   UNL d   1      60.187  -2.186  28.483  0.00  0.00    -0.326 OA
ATOM     27  C   UNL d   1      59.936  -2.970  28.483  0.00  0.00     0.181 C 
ENDBRANCH  21  26
ENDBRANCH  17  18
ENDBRANCH  16  17
ENDBRANCH   3  16
TORSDOF 7
ENDMDL
