MODEL 1
REMARK VINA RESULT:      59.9      0.000      0.000
REMARK  6 active torsions:
REMARK  status: ('A' for Active; 'I' for Inactive)
REMARK    1  A    between atoms: C_3  and  N_1 
REMARK       I    between atoms: C_2  and  N_10 
REMARK    2  A    between atoms: C_9  and  C_2 
REMARK    3  A    between atoms: C_15  and  N_4 
REMARK    4  A    between atoms: O_14  and  C_8 
REMARK    5  A    between atoms: N_10  and  C_13 
REMARK    6  A    between atoms: C_13  and  C_15 
ROOT
ATOM      1  N   UNL d   1      58.495  49.535  50.854  0.00  0.00    -0.300 N 
ATOM      2  N   UNL d   1      60.139  49.419  50.819  0.00  0.00    -0.299 N 
ATOM      3  C   UNL d   1      58.934  49.708  51.526  0.00  0.00     0.100 A 
ATOM      4  C   UNL d   1      58.880  49.301  50.157  0.00  0.00     0.100 A 
ATOM      5  C   UNL d   1      59.753  49.650  51.509  0.00  0.00     0.100 A 
ATOM      6  C   UNL d   1      59.695  49.244  50.140  0.00  0.00     0.100 A 
ENDROOT
BRANCH   2   7
ATOM      7  C   UNL d   1      60.959  49.361  50.801  0.00  0.00     0.101 C 
BRANCH   7   8
ATOM      8  C   UNL d   1      61.339  48.967  50.183  0.00  0.00     0.121 C 
BRANCH   8   9
ATOM      9  N   UNL d   1      61.243  48.165  50.082  0.00  0.00    -0.205 NA
ATOM     10  C   UNL d   1      61.899  47.681  49.989  0.00  0.00     0.279 C 
ATOM     11  O   UNL d   1      62.651  47.999  49.996  0.00  0.00    -0.265 OA
BRANCH  10  12
ATOM     12  C   UNL d   1      61.801  46.858  49.886  0.00  0.00     0.058 A 
ATOM     13  C   UNL d   1      61.214  46.477  50.260  0.00  0.00     0.005 A 
ATOM     14  C   UNL d   1      61.115  45.654  50.157  0.00  0.00     0.000 A 
ATOM     15  C   UNL d   1      61.626  45.237  49.667  0.00  0.00     0.000 A 
ATOM     16  C   UNL d   1      62.243  45.651  49.277  0.00  0.00     0.000 A 
ATOM     17  C   UNL d   1      62.331  46.449  49.383  0.00  0.00     0.005 A 
ENDBRANCH  10  12
ENDBRANCH   8   9
ENDBRANCH   7   8
ENDBRANCH   2   7
BRANCH   1  18
ATOM     18  C   UNL d   1      57.674  49.592  50.872  0.00  0.00     0.086 A 
ATOM     19  C   UNL d   1      57.242  49.648  50.170  0.00  0.00     0.110 A 
ATOM     20  C   UNL d   1      56.418  49.706  50.188  0.00  0.00     0.026 A 
ATOM     21  C   UNL d   1      56.034  49.708  50.907  0.00  0.00     0.002 A 
ATOM     22  C   UNL d   1      56.457  49.652  51.615  0.00  0.00     0.002 A 
ATOM     23  C   UNL d   1      57.269  49.595  51.598  0.00  0.00     0.019 A 
BRANCH  19  24
ATOM     24  O   UNL d   1      57.647  49.646  49.439  0.00  0.00    -0.327 OA
ATOM     25  C   UNL d   1      57.465  49.063  48.881  0.00  0.00     0.181 C 
ENDBRANCH  19  24
ENDBRANCH   1  18
TORSDOF 6
ENDMDL
