MODEL 1
REMARK VINA RESULT:     100.7      0.000      0.000
REMARK  6 active torsions:
REMARK  status: ('A' for Active; 'I' for Inactive)
REMARK    1  A    between atoms: N_5  and  S_1 
REMARK    2  A    between atoms: C_6  and  S_1 
REMARK    3  A    between atoms: C_2  and  C_14 
REMARK    4  A    between atoms: C_8  and  N_5 
REMARK    5  A    between atoms: C_7  and  C_8 
REMARK       I    between atoms: N_11  and  C_7 
REMARK    6  A    between atoms: C_20  and  N_11 
ROOT
ATOM      1  C   UNL d   1      60.491  48.346  50.700  0.00  0.00     0.298 C 
ATOM      2  N   UNL d   1      60.712  47.904  50.046  0.00  0.00    -0.207 NA
ATOM      3  O   UNL d   1      60.554  48.027  51.457  0.00  0.00    -0.264 OA
ENDROOT
BRANCH   1   4
ATOM      4  C   UNL d   1      60.205  49.109  50.592  0.00  0.00     0.151 C 
ATOM      5  C   UNL d   1      60.408  49.707  51.130  0.00  0.00     0.027 C 
BRANCH   4   6
ATOM      6  N   UNL d   1      59.722  49.289  49.959  0.00  0.00    -0.153 NA
BRANCH   6   7
ATOM      7  S   UNL d   1      58.910  49.392  50.063  0.00  0.00     0.285 S 
ATOM      8  O   UNL d   1      59.044  49.678  50.825  0.00  0.00    -0.198 OA
ATOM      9  O   UNL d   1      58.775  49.107  49.301  0.00  0.00    -0.198 OA
BRANCH   7  10
ATOM     10  C   UNL d   1      58.102  49.496  50.167  0.00  0.00     0.105 A 
ATOM     11  C   UNL d   1      57.801  49.586  50.925  0.00  0.00     0.012 A 
ATOM     12  C   UNL d   1      56.982  49.691  51.034  0.00  0.00     0.001 A 
ATOM     13  C   UNL d   1      58.318  49.572  51.583  0.00  0.00     0.001 C 
ATOM     14  C   UNL d   1      56.479  49.704  50.388  0.00  0.00     0.000 A 
ATOM     15  C   UNL d   1      56.783  49.613  49.625  0.00  0.00     0.001 A 
ATOM     16  C   UNL d   1      57.599  49.508  49.521  0.00  0.00     0.013 A 
ATOM     17  C   UNL d   1      56.272  49.626  48.968  0.00  0.00     0.000 C 
ENDBRANCH   7  10
ENDBRANCH   6   7
ENDBRANCH   4   6
ENDBRANCH   1   4
BRANCH   2  18
ATOM     18  C   UNL d   1      61.000  47.138  50.150  0.00  0.00     0.085 A 
ATOM     19  C   UNL d   1      60.613  46.629  50.668  0.00  0.00     0.019 A 
ATOM     20  C   UNL d   1      60.892  45.852  50.783  0.00  0.00     0.004 A 
ATOM     21  C   UNL d   1      61.557  45.590  50.377  0.00  0.00     0.024 A 
ATOM     22  C   UNL d   1      61.946  46.099  49.856  0.00  0.00     0.004 A 
ATOM     23  C   UNL d   1      61.674  46.870  49.739  0.00  0.00     0.019 A 
BRANCH  21  24
ATOM     24  C   UNL d   1      61.824  44.814  50.500  0.00  0.00     0.111 A 
ATOM     25  N   UNL d   1      61.515  44.323  51.080  0.00  0.00    -0.239 NA
ATOM     26  C   UNL d   1      61.908  43.597  51.045  0.00  0.00     0.088 A 
ATOM     27  C   UNL d   1      61.834  42.904  51.483  0.00  0.00     0.020 A 
ATOM     28  C   UNL d   1      62.465  43.643  50.438  0.00  0.00     0.049 A 
ATOM     29  C   UNL d   1      62.315  42.258  51.315  0.00  0.00     0.002 A 
ATOM     30  C   UNL d   1      62.872  42.304  50.708  0.00  0.00     0.001 A 
ATOM     31  C   UNL d   1      62.947  42.998  50.269  0.00  0.00     0.008 A 
ATOM     32  S   UNL d   1      62.412  44.398  50.101  0.00  0.00    -0.066 SA
ENDBRANCH  21  24
ENDBRANCH   2  18
TORSDOF 6
ENDMDL
