MODEL 1
REMARK VINA RESULT:     100.5      0.000      0.000
REMARK  9 active torsions:
REMARK  status: ('A' for Active; 'I' for Inactive)
REMARK    1  A    between atoms: C_12  and  C_3 
REMARK    2  A    between atoms: S_14  and  C_7 
REMARK       I    between atoms: C_9  and  N_18 
REMARK    3  A    between atoms: C_13  and  C_9 
REMARK    4  A    between atoms: C_11  and  C_21 
REMARK       I    between atoms: N_15  and  C_11 
REMARK    5  A    between atoms: C_22  and  C_12 
REMARK    6  A    between atoms: C_21  and  S_14 
REMARK    7  A    between atoms: C_23  and  N_15 
REMARK    8  A    between atoms: N_18  and  C_22 
REMARK    9  A    between atoms: C_25  and  C_23 
ROOT
ATOM      1  N   UNL d   1      59.676  49.593  50.950  0.00  0.00    -0.191 N 
ATOM      2  C   UNL d   1      60.001  49.582  51.714  0.00  0.00     0.187 A 
ATOM      3  C   UNL d   1      58.854  49.670  51.020  0.00  0.00     0.188 A 
ATOM      4  N   UNL d   1      60.170  49.532  50.290  0.00  0.00    -0.156 NA
ATOM      5  N   UNL d   1      59.375  49.653  52.251  0.00  0.00    -0.127 NA
ATOM      6  N   UNL d   1      58.670  49.707  51.828  0.00  0.00    -0.127 NA
ATOM      7  C   UNL d   1      60.990  49.459  50.396  0.00  0.00     0.131 A 
ATOM      8  C   UNL d   1      60.812  49.510  51.809  0.00  0.00     0.043 A 
ATOM      9  C   UNL d   1      61.310  49.448  51.154  0.00  0.00     0.031 A 
ENDROOT
BRANCH   7  10
ATOM     10  S   UNL d   1      61.483  49.398  49.729  0.00  0.00    -0.061 SA
BRANCH  10  11
ATOM     11  C   UNL d   1      61.752  48.649  49.482  0.00  0.00     0.099 C 
BRANCH  11  12
ATOM     12  C   UNL d   1      61.316  47.973  49.683  0.00  0.00     0.286 C 
ATOM     13  N   UNL d   1      61.629  47.423  50.188  0.00  0.00    -0.206 NA
ATOM     14  O   UNL d   1      60.561  47.854  49.371  0.00  0.00    -0.265 OA
BRANCH  13  15
ATOM     15  C   UNL d   1      61.195  46.745  50.391  0.00  0.00     0.102 C 
BRANCH  15  16
ATOM     16  C   UNL d   1      61.404  46.028  50.074  0.00  0.00     0.019 A 
ATOM     17  C   UNL d   1      61.097  45.320  50.368  0.00  0.00     0.004 A 
ATOM     18  C   UNL d   1      61.309  44.597  50.046  0.00  0.00     0.030 A 
ATOM     19  C   UNL d   1      61.840  44.574  49.415  0.00  0.00     0.140 A 
ATOM     20  C   UNL d   1      62.144  45.280  49.124  0.00  0.00     0.030 A 
ATOM     21  F   UNL d   1      62.060  43.853  49.083  0.00  0.00    -0.204 F 
ATOM     22  C   UNL d   1      61.934  45.991  49.442  0.00  0.00     0.004 A 
ENDBRANCH  15  16
ENDBRANCH  13  15
ENDBRANCH  11  12
ENDBRANCH  10  11
ENDBRANCH   7  10
BRANCH   3  23
ATOM     23  C   UNL d   1      58.319  49.704  50.390  0.00  0.00     0.061 C 
BRANCH  23  24
ATOM     24  C   UNL d   1      57.566  49.364  50.463  0.00  0.00     0.105 C 
BRANCH  24  25
ATOM     25  N   UNL d   1      57.449  48.580  50.233  0.00  0.00    -0.206 NA
ATOM     26  C   UNL d   1      56.689  48.323  50.011  0.00  0.00     0.279 C 
ATOM     27  O   UNL d   1      56.056  48.862  50.025  0.00  0.00    -0.265 OA
BRANCH  26  28
ATOM     28  C   UNL d   1      56.571  47.542  49.781  0.00  0.00     0.058 A 
ATOM     29  C   UNL d   1      56.838  46.930  50.266  0.00  0.00     0.005 A 
ATOM     30  C   UNL d   1      56.722  46.145  50.041  0.00  0.00     0.000 A 
ATOM     31  C   UNL d   1      56.337  45.977  49.328  0.00  0.00     0.000 A 
ATOM     32  C   UNL d   1      56.070  46.590  48.843  0.00  0.00     0.000 A 
ATOM     33  C   UNL d   1      56.221  45.196  49.102  0.00  0.00     0.000 C 
ATOM     34  C   UNL d   1      56.189  47.376  49.075  0.00  0.00     0.005 A 
ENDBRANCH  26  28
ENDBRANCH  24  25
ENDBRANCH  23  24
ENDBRANCH   3  23
TORSDOF 9
ENDMDL
MODEL 2
REMARK VINA RESULT:     103.0      4.951      7.020
REMARK  9 active torsions:
REMARK  status: ('A' for Active; 'I' for Inactive)
REMARK    1  A    between atoms: C_12  and  C_3 
REMARK    2  A    between atoms: S_14  and  C_7 
REMARK       I    between atoms: C_9  and  N_18 
REMARK    3  A    between atoms: C_13  and  C_9 
REMARK    4  A    between atoms: C_11  and  C_21 
REMARK       I    between atoms: N_15  and  C_11 
REMARK    5  A    between atoms: C_22  and  C_12 
REMARK    6  A    between atoms: C_21  and  S_14 
REMARK    7  A    between atoms: C_23  and  N_15 
REMARK    8  A    between atoms: N_18  and  C_22 
REMARK    9  A    between atoms: C_25  and  C_23 
ROOT
ATOM      1  N   UNL d   1      61.725  43.400  51.295  0.00  0.00    -0.191 N 
ATOM      2  C   UNL d   1      62.257  42.839  50.990  0.00  0.00     0.187 A 
ATOM      3  C   UNL d   1      61.646  44.009  50.741  0.00  0.00     0.188 A 
ATOM      4  N   UNL d   1      61.382  43.281  52.038  0.00  0.00    -0.156 NA
ATOM      5  N   UNL d   1      62.502  43.109  50.248  0.00  0.00    -0.127 NA
ATOM      6  N   UNL d   1      62.129  43.827  50.091  0.00  0.00    -0.127 NA
ATOM      7  C   UNL d   1      61.572  42.602  52.475  0.00  0.00     0.131 A 
ATOM      8  C   UNL d   1      62.438  42.171  51.429  0.00  0.00     0.043 A 
ATOM      9  C   UNL d   1      62.099  42.048  52.172  0.00  0.00     0.031 A 
ENDROOT
BRANCH   7  10
ATOM     10  S   UNL d   1      61.225  42.487  53.222  0.00  0.00    -0.061 SA
BRANCH  10  11
ATOM     11  C   UNL d   1      60.674  41.872  53.331  0.00  0.00     0.099 C 
BRANCH  11  12
ATOM     12  C   UNL d   1      60.442  41.663  54.100  0.00  0.00     0.286 C 
ATOM     13  N   UNL d   1      60.119  40.936  54.243  0.00  0.00    -0.206 NA
ATOM     14  O   UNL d   1      60.539  42.194  54.725  0.00  0.00    -0.265 OA
BRANCH  13  15
ATOM     15  C   UNL d   1      59.886  40.723  55.011  0.00  0.00     0.102 C 
BRANCH  15  16
ATOM     16  C   UNL d   1      59.348  40.126  55.114  0.00  0.00     0.019 A 
ATOM     17  C   UNL d   1      59.153  39.843  55.865  0.00  0.00     0.004 A 
ATOM     18  C   UNL d   1      58.609  39.240  55.966  0.00  0.00     0.030 A 
ATOM     19  C   UNL d   1      58.245  38.905  55.305  0.00  0.00     0.140 A 
ATOM     20  C   UNL d   1      58.440  39.188  54.558  0.00  0.00     0.030 A 
ATOM     21  F   UNL d   1      57.697  38.299  55.395  0.00  0.00    -0.204 F 
ATOM     22  C   UNL d   1      58.977  39.783  54.461  0.00  0.00     0.004 A 
ENDBRANCH  15  16
ENDBRANCH  13  15
ENDBRANCH  11  12
ENDBRANCH  10  11
ENDBRANCH   7  10
BRANCH   3  23
ATOM     23  C   UNL d   1      61.168  44.679  50.827  0.00  0.00     0.061 C 
BRANCH  23  24
ATOM     24  C   UNL d   1      61.341  45.373  50.407  0.00  0.00     0.105 C 
BRANCH  24  25
ATOM     25  N   UNL d   1      61.088  46.101  50.703  0.00  0.00    -0.206 NA
ATOM     26  C   UNL d   1      61.387  46.806  50.376  0.00  0.00     0.279 C 
ATOM     27  O   UNL d   1      61.938  46.766  49.754  0.00  0.00    -0.265 OA
BRANCH  26  28
ATOM     28  C   UNL d   1      61.137  47.533  50.669  0.00  0.00     0.058 A 
ATOM     29  C   UNL d   1      60.884  47.591  51.453  0.00  0.00     0.005 A 
ATOM     30  C   UNL d   1      60.632  48.316  51.753  0.00  0.00     0.000 A 
ATOM     31  C   UNL d   1      60.634  48.984  51.263  0.00  0.00     0.000 A 
ATOM     32  C   UNL d   1      60.887  48.925  50.479  0.00  0.00     0.000 A 
ATOM     33  C   UNL d   1      60.384  49.707  51.559  0.00  0.00     0.000 C 
ATOM     34  C   UNL d   1      61.140  48.193  50.184  0.00  0.00     0.005 A 
ENDBRANCH  26  28
ENDBRANCH  24  25
ENDBRANCH  23  24
ENDBRANCH   3  23
TORSDOF 9
ENDMDL
