MODEL 1
REMARK VINA RESULT:      -6.8      0.000      0.000
REMARK  3 active torsions:
REMARK  status: ('A' for Active; 'I' for Inactive)
REMARK    1  A    between atoms: S_8  and  C_1 
REMARK       I    between atoms: N_4  and  C_5 
REMARK    2  A    between atoms: C_5  and  C_9 
REMARK    3  A    between atoms: C_9  and  S_8 
ROOT
ATOM      1  S   UNL d   1     -47.587  14.131  22.570  0.00  0.00    -0.056 SA
ENDROOT
BRANCH   1   2
ATOM      2  C   UNL d   1     -48.360  14.384  22.607  0.00  0.00     0.141 A 
ATOM      3  N   UNL d   1     -48.669  14.938  23.130  0.00  0.00    -0.232 NA
ATOM      4  C   UNL d   1     -49.469  15.027  22.974  0.00  0.00     0.088 A 
ATOM      5  C   UNL d   1     -50.045  15.500  23.321  0.00  0.00     0.020 A 
ATOM      6  C   UNL d   1     -49.666  14.517  22.339  0.00  0.00     0.049 A 
ATOM      7  C   UNL d   1     -50.832  15.463  23.027  0.00  0.00     0.002 A 
ATOM      8  C   UNL d   1     -51.021  14.974  22.419  0.00  0.00     0.001 A 
ATOM      9  C   UNL d   1     -50.437  14.490  22.062  0.00  0.00     0.008 A 
ATOM     10  S   UNL d   1     -48.982  14.130  22.124  0.00  0.00    -0.060 SA
ENDBRANCH   1   2
BRANCH   1  11
ATOM     11  C   UNL d   1     -47.363  13.426  22.930  0.00  0.00     0.098 C 
BRANCH  11  12
ATOM     12  C   UNL d   1     -46.573  13.146  22.888  0.00  0.00     0.271 C 
ATOM     13  N   UNL d   1     -46.376  12.369  23.146  0.00  0.00    -0.272 N 
ATOM     14  C   UNL d   1     -45.602  12.109  23.099  0.00  0.00     0.083 A 
ATOM     15  C   UNL d   1     -46.963  11.888  23.441  0.00  0.00     0.083 A 
ATOM     16  C   UNL d   1     -45.406  11.364  23.346  0.00  0.00     0.019 A 
ATOM     17  C   UNL d   1     -46.012  10.862  23.652  0.00  0.00     0.003 A 
ATOM     18  C   UNL d   1     -46.764  11.115  23.698  0.00  0.00     0.019 A 
ATOM     19  O   UNL d   1     -45.998  13.657  22.584  0.00  0.00    -0.266 OA
ENDBRANCH  11  12
ENDBRANCH   1  11
TORSDOF 3
ENDMDL
MODEL 2
REMARK VINA RESULT:      -6.4      1.003      4.554
REMARK  3 active torsions:
REMARK  status: ('A' for Active; 'I' for Inactive)
REMARK    1  A    between atoms: S_8  and  C_1 
REMARK       I    between atoms: N_4  and  C_5 
REMARK    2  A    between atoms: C_5  and  C_9 
REMARK    3  A    between atoms: C_9  and  S_8 
ROOT
ATOM      1  S   UNL d   1     -47.576  14.000  22.568  0.00  0.00    -0.056 SA
ENDROOT
BRANCH   1   2
ATOM      2  C   UNL d   1     -47.143  13.345  22.788  0.00  0.00     0.141 A 
ATOM      3  N   UNL d   1     -47.417  12.700  23.216  0.00  0.00    -0.232 NA
ATOM      4  C   UNL d   1     -46.799  12.170  23.314  0.00  0.00     0.088 A 
ATOM      5  C   UNL d   1     -46.758  11.440  23.691  0.00  0.00     0.020 A 
ATOM      6  C   UNL d   1     -46.122  12.491  22.938  0.00  0.00     0.049 A 
ATOM      7  C   UNL d   1     -46.026  11.025  23.693  0.00  0.00     0.002 A 
ATOM      8  C   UNL d   1     -45.377  11.333  23.334  0.00  0.00     0.001 A 
ATOM      9  C   UNL d   1     -45.416  12.077  22.947  0.00  0.00     0.008 A 
ATOM     10  S   UNL d   1     -46.345  13.208  22.622  0.00  0.00    -0.060 SA
ENDBRANCH   1   2
BRANCH   1  11
ATOM     11  C   UNL d   1     -48.346  14.099  22.839  0.00  0.00     0.098 C 
BRANCH  11  12
ATOM     12  C   UNL d   1     -48.725  14.847  22.813  0.00  0.00     0.271 C 
ATOM     13  N   UNL d   1     -49.519  14.938  23.076  0.00  0.00    -0.272 N 
ATOM     14  C   UNL d   1     -49.877  15.673  23.045  0.00  0.00     0.083 A 
ATOM     15  C   UNL d   1     -49.921  14.288  23.358  0.00  0.00     0.083 A 
ATOM     16  C   UNL d   1     -50.640  15.767  23.296  0.00  0.00     0.019 A 
ATOM     17  C   UNL d   1     -51.059  15.096  23.589  0.00  0.00     0.003 A 
ATOM     18  C   UNL d   1     -50.712  14.381  23.619  0.00  0.00     0.019 A 
ATOM     19  O   UNL d   1     -48.292  15.489  22.522  0.00  0.00    -0.266 OA
ENDBRANCH  11  12
ENDBRANCH   1  11
TORSDOF 3
ENDMDL
MODEL 3
REMARK VINA RESULT:      -6.0      1.431      1.650
REMARK  3 active torsions:
REMARK  status: ('A' for Active; 'I' for Inactive)
REMARK    1  A    between atoms: S_8  and  C_1 
REMARK       I    between atoms: N_4  and  C_5 
REMARK    2  A    between atoms: C_5  and  C_9 
REMARK    3  A    between atoms: C_9  and  S_8 
ROOT
ATOM      1  S   UNL d   1     -49.151  12.200  23.440  0.00  0.00    -0.056 SA
ENDROOT
BRANCH   1   2
ATOM      2  C   UNL d   1     -49.552  12.859  23.178  0.00  0.00     0.141 A 
ATOM      3  N   UNL d   1     -49.496  13.619  23.483  0.00  0.00    -0.232 NA
ATOM      4  C   UNL d   1     -49.993  14.111  23.055  0.00  0.00     0.088 A 
ATOM      5  C   UNL d   1     -50.156  14.914  23.117  0.00  0.00     0.020 A 
ATOM      6  C   UNL d   1     -50.369  13.647  22.466  0.00  0.00     0.049 A 
ATOM      7  C   UNL d   1     -50.704  15.260  22.582  0.00  0.00     0.002 A 
ATOM      8  C   UNL d   1     -51.064  14.816  22.018  0.00  0.00     0.001 A 
ATOM      9  C   UNL d   1     -50.901  13.996  21.951  0.00  0.00     0.008 A 
ATOM     10  S   UNL d   1     -50.091  12.885  22.552  0.00  0.00    -0.060 SA
ENDBRANCH   1   2
BRANCH   1  11
ATOM     11  C   UNL d   1     -48.333  12.155  23.368  0.00  0.00     0.098 C 
BRANCH  11  12
ATOM     12  C   UNL d   1     -47.919  11.443  23.528  0.00  0.00     0.271 C 
ATOM     13  N   UNL d   1     -47.077  11.421  23.517  0.00  0.00    -0.272 N 
ATOM     14  C   UNL d   1     -46.687  10.720  23.675  0.00  0.00     0.083 A 
ATOM     15  C   UNL d   1     -46.665  12.102  23.348  0.00  0.00     0.083 A 
ATOM     16  C   UNL d   1     -45.879  10.692  23.666  0.00  0.00     0.019 A 
ATOM     17  C   UNL d   1     -45.447  11.396  23.492  0.00  0.00     0.003 A 
ATOM     18  C   UNL d   1     -45.827  12.077  23.338  0.00  0.00     0.019 A 
ATOM     19  O   UNL d   1     -48.365  10.766  23.697  0.00  0.00    -0.266 OA
ENDBRANCH  11  12
ENDBRANCH   1  11
TORSDOF 3
ENDMDL
MODEL 4
REMARK VINA RESULT:      -5.8      1.694      4.358
REMARK  3 active torsions:
REMARK  status: ('A' for Active; 'I' for Inactive)
REMARK    1  A    between atoms: S_8  and  C_1 
REMARK       I    between atoms: N_4  and  C_5 
REMARK    2  A    between atoms: C_5  and  C_9 
REMARK    3  A    between atoms: C_9  and  S_8 
ROOT
ATOM      1  S   UNL d   1     -47.575  13.892  22.951  0.00  0.00    -0.056 SA
ENDROOT
BRANCH   1   2
ATOM      2  C   UNL d   1     -46.857  13.541  22.789  0.00  0.00     0.141 A 
ATOM      3  N   UNL d   1     -46.554  12.863  23.141  0.00  0.00    -0.232 NA
ATOM      4  C   UNL d   1     -45.818  12.706  22.815  0.00  0.00     0.088 A 
ATOM      5  C   UNL d   1     -45.273  12.107  22.957  0.00  0.00     0.020 A 
ATOM      6  C   UNL d   1     -45.656  13.299  22.246  0.00  0.00     0.049 A 
ATOM      7  C   UNL d   1     -44.554  12.101  22.521  0.00  0.00     0.002 A 
ATOM      8  C   UNL d   1     -44.399  12.669  21.976  0.00  0.00     0.001 A 
ATOM      9  C   UNL d   1     -44.952  13.282  21.828  0.00  0.00     0.008 A 
ATOM     10  S   UNL d   1     -46.297  13.803  22.239  0.00  0.00    -0.060 SA
ENDBRANCH   1   2
BRANCH   1  11
ATOM     11  C   UNL d   1     -48.261  13.439  22.980  0.00  0.00     0.098 C 
BRANCH  11  12
ATOM     12  C   UNL d   1     -49.001  13.781  23.178  0.00  0.00     0.271 C 
ATOM     13  N   UNL d   1     -49.687  13.302  23.272  0.00  0.00    -0.272 N 
ATOM     14  C   UNL d   1     -50.402  13.649  23.464  0.00  0.00     0.083 A 
ATOM     15  C   UNL d   1     -49.626  12.497  23.168  0.00  0.00     0.083 A 
ATOM     16  C   UNL d   1     -51.064  13.194  23.556  0.00  0.00     0.019 A 
ATOM     17  C   UNL d   1     -51.005  12.359  23.449  0.00  0.00     0.003 A 
ATOM     18  C   UNL d   1     -50.310  12.022  23.261  0.00  0.00     0.019 A 
ATOM     19  O   UNL d   1     -49.033  14.602  23.277  0.00  0.00    -0.266 OA
ENDBRANCH  11  12
ENDBRANCH   1  11
TORSDOF 3
ENDMDL
MODEL 5
REMARK VINA RESULT:      -5.6      1.219      1.609
REMARK  3 active torsions:
REMARK  status: ('A' for Active; 'I' for Inactive)
REMARK    1  A    between atoms: S_8  and  C_1 
REMARK       I    between atoms: N_4  and  C_5 
REMARK    2  A    between atoms: C_5  and  C_9 
REMARK    3  A    between atoms: C_9  and  S_8 
ROOT
ATOM      1  S   UNL d   1     -48.047  12.756  23.316  0.00  0.00    -0.056 SA
ENDROOT
BRANCH   1   2
ATOM      2  C   UNL d   1     -48.727  13.102  23.028  0.00  0.00     0.141 A 
ATOM      3  N   UNL d   1     -48.998  13.859  23.195  0.00  0.00    -0.232 NA
ATOM      4  C   UNL d   1     -49.700  13.981  22.790  0.00  0.00     0.088 A 
ATOM      5  C   UNL d   1     -50.206  14.628  22.753  0.00  0.00     0.020 A 
ATOM      6  C   UNL d   1     -49.874  13.283  22.360  0.00  0.00     0.049 A 
ATOM      7  C   UNL d   1     -50.898  14.575  22.277  0.00  0.00     0.002 A 
ATOM      8  C   UNL d   1     -51.064  13.907  21.865  0.00  0.00     0.001 A 
ATOM      9  C   UNL d   1     -50.551  13.244  21.901  0.00  0.00     0.008 A 
ATOM     10  S   UNL d   1     -49.273  12.754  22.514  0.00  0.00    -0.060 SA
ENDBRANCH   1   2
BRANCH   1  11
ATOM     11  C   UNL d   1     -47.329  12.870  22.931  0.00  0.00     0.098 C 
BRANCH  11  12
ATOM     12  C   UNL d   1     -46.657  12.401  23.114  0.00  0.00     0.271 C 
ATOM     13  N   UNL d   1     -45.918  12.542  22.738  0.00  0.00    -0.272 N 
ATOM     14  C   UNL d   1     -45.271  12.077  22.925  0.00  0.00     0.083 A 
ATOM     15  C   UNL d   1     -45.858  13.141  22.190  0.00  0.00     0.083 A 
ATOM     16  C   UNL d   1     -44.558  12.207  22.567  0.00  0.00     0.019 A 
ATOM     17  C   UNL d   1     -44.492  12.828  21.998  0.00  0.00     0.003 A 
ATOM     18  C   UNL d   1     -45.121  13.279  21.816  0.00  0.00     0.019 A 
ATOM     19  O   UNL d   1     -46.747  11.799  23.675  0.00  0.00    -0.266 OA
ENDBRANCH  11  12
ENDBRANCH   1  11
TORSDOF 3
ENDMDL
MODEL 6
REMARK VINA RESULT:      -5.2      8.606      9.598
REMARK  3 active torsions:
REMARK  status: ('A' for Active; 'I' for Inactive)
REMARK    1  A    between atoms: S_8  and  C_1 
REMARK       I    between atoms: N_4  and  C_5 
REMARK    2  A    between atoms: C_5  and  C_9 
REMARK    3  A    between atoms: C_9  and  S_8 
ROOT
ATOM      1  S   UNL d   1     -40.298  15.229  20.647  0.00  0.00    -0.056 SA
ENDROOT
BRANCH   1   2
ATOM      2  C   UNL d   1     -39.866  14.912  21.262  0.00  0.00     0.141 A 
ATOM      3  N   UNL d   1     -39.806  14.117  21.457  0.00  0.00    -0.232 NA
ATOM      4  C   UNL d   1     -39.317  14.045  22.111  0.00  0.00     0.088 A 
ATOM      5  C   UNL d   1     -39.066  13.388  22.538  0.00  0.00     0.020 A 
ATOM      6  C   UNL d   1     -39.065  14.813  22.331  0.00  0.00     0.049 A 
ATOM      7  C   UNL d   1     -38.555  13.502  23.195  0.00  0.00     0.002 A 
ATOM      8  C   UNL d   1     -38.313  14.239  23.406  0.00  0.00     0.001 A 
ATOM      9  C   UNL d   1     -38.567  14.911  22.973  0.00  0.00     0.008 A 
ATOM     10  S   UNL d   1     -39.407  15.334  21.805  0.00  0.00    -0.060 SA
ENDBRANCH   1   2
BRANCH   1  11
ATOM     11  C   UNL d   1     -40.140  15.008  19.871  0.00  0.00     0.098 C 
BRANCH  11  12
ATOM     12  C   UNL d   1     -40.556  15.347  19.227  0.00  0.00     0.271 C 
ATOM     13  N   UNL d   1     -40.395  15.110  18.435  0.00  0.00    -0.272 N 
ATOM     14  C   UNL d   1     -40.809  15.449  17.816  0.00  0.00     0.083 A 
ATOM     15  C   UNL d   1     -39.827  14.543  18.299  0.00  0.00     0.083 A 
ATOM     16  C   UNL d   1     -40.659  15.225  17.054  0.00  0.00     0.019 A 
ATOM     17  C   UNL d   1     -40.070  14.638  16.908  0.00  0.00     0.003 A 
ATOM     18  C   UNL d   1     -39.668  14.308  17.510  0.00  0.00     0.019 A 
ATOM     19  O   UNL d   1     -41.128  15.921  19.396  0.00  0.00    -0.266 OA
ENDBRANCH  11  12
ENDBRANCH   1  11
TORSDOF 3
ENDMDL
MODEL 7
REMARK VINA RESULT:      -5.1      9.025      9.381
REMARK  3 active torsions:
REMARK  status: ('A' for Active; 'I' for Inactive)
REMARK    1  A    between atoms: S_8  and  C_1 
REMARK       I    between atoms: N_4  and  C_5 
REMARK    2  A    between atoms: C_5  and  C_9 
REMARK    3  A    between atoms: C_9  and  S_8 
ROOT
ATOM      1  S   UNL d   1     -39.812  15.734  20.303  0.00  0.00    -0.056 SA
ENDROOT
BRANCH   1   2
ATOM      2  C   UNL d   1     -39.921  15.651  19.499  0.00  0.00     0.141 A 
ATOM      3  N   UNL d   1     -40.555  15.284  19.127  0.00  0.00    -0.232 NA
ATOM      4  C   UNL d   1     -40.442  15.326  18.316  0.00  0.00     0.088 A 
ATOM      5  C   UNL d   1     -40.894  15.055  17.685  0.00  0.00     0.020 A 
ATOM      6  C   UNL d   1     -39.720  15.729  18.177  0.00  0.00     0.049 A 
ATOM      7  C   UNL d   1     -40.619  15.189  16.902  0.00  0.00     0.002 A 
ATOM      8  C   UNL d   1     -39.928  15.575  16.768  0.00  0.00     0.001 A 
ATOM      9  C   UNL d   1     -39.464  15.853  17.409  0.00  0.00     0.008 A 
ATOM     10  S   UNL d   1     -39.412  15.922  18.906  0.00  0.00    -0.060 SA
ENDBRANCH   1   2
BRANCH   1  11
ATOM     11  C   UNL d   1     -39.451  15.135  20.736  0.00  0.00     0.098 C 
BRANCH  11  12
ATOM     12  C   UNL d   1     -39.355  15.196  21.568  0.00  0.00     0.271 C 
ATOM     13  N   UNL d   1     -39.011  14.568  22.010  0.00  0.00    -0.272 N 
ATOM     14  C   UNL d   1     -38.924  14.640  22.820  0.00  0.00     0.083 A 
ATOM     15  C   UNL d   1     -38.769  13.895  21.621  0.00  0.00     0.083 A 
ATOM     16  C   UNL d   1     -38.593  14.040  23.250  0.00  0.00     0.019 A 
ATOM     17  C   UNL d   1     -38.342  13.341  22.850  0.00  0.00     0.003 A 
ATOM     18  C   UNL d   1     -38.427  13.270  22.063  0.00  0.00     0.019 A 
ATOM     19  O   UNL d   1     -39.610  15.892  21.936  0.00  0.00    -0.266 OA
ENDBRANCH  11  12
ENDBRANCH   1  11
TORSDOF 3
ENDMDL
