MODEL 1
REMARK VINA RESULT:      -5.8      0.000      0.000
REMARK  4 active torsions:
REMARK  status: ('A' for Active; 'I' for Inactive)
REMARK    1  A    between atoms: C_4  and  C_10 
REMARK    2  A    between atoms: C_18  and  C_7 
REMARK       I    between atoms: C_10  and  N_17 
REMARK    3  A    between atoms: N_17  and  C_20 
REMARK    4  A    between atoms: C_20  and  C_18 
ROOT
ATOM      1  C   UNL d   1     -41.559-121.888 -51.554  0.00  0.00     0.042 C 
ENDROOT
BRANCH   1   2
ATOM      2  C   UNL d   1     -41.539-122.232 -52.309  0.00  0.00     0.102 A 
ATOM      3  N   UNL d   1     -41.830-121.895 -52.997  0.00  0.00    -0.227 NA
ATOM      4  C   UNL d   1     -41.702-122.412 -53.616  0.00  0.00     0.148 A 
ATOM      5  N   UNL d   1     -41.325-123.083 -53.317  0.00  0.00    -0.288 N 
ATOM      6  C   UNL d   1     -41.873-122.373 -54.422  0.00  0.00     0.035 A 
ATOM      7  C   UNL d   1     -41.225-122.969 -52.502  0.00  0.00     0.101 A 
ATOM      8  C   UNL d   1     -41.123-123.707 -53.813  0.00  0.00     0.082 A 
ATOM      9  C   UNL d   1     -41.296-123.663 -54.613  0.00  0.00     0.019 A 
ATOM     10  C   UNL d   1     -41.674-122.991 -54.924  0.00  0.00     0.004 A 
ATOM     11  C   UNL d   1     -42.254-121.698 -54.737  0.00  0.00     0.003 C 
ENDBRANCH   1   2
BRANCH   1  12
ATOM     12  C   UNL d   1     -41.896-122.300 -50.920  0.00  0.00     0.104 C 
BRANCH  12  13
ATOM     13  N   UNL d   1     -42.676-122.161 -50.707  0.00  0.00    -0.205 NA
ATOM     14  C   UNL d   1     -42.955-122.409 -49.968  0.00  0.00     0.302 C 
ATOM     15  O   UNL d   1     -43.729-122.268 -49.763  0.00  0.00    -0.263 OA
BRANCH  14  16
ATOM     16  C   UNL d   1     -42.443-122.796 -49.448  0.00  0.00     0.158 A 
ATOM     17  O   UNL d   1     -42.055-122.553 -48.768  0.00  0.00    -0.296 OA
ATOM     18  C   UNL d   1     -41.612-123.187 -48.478  0.00  0.00     0.134 A 
ATOM     19 BR   UNL d   1     -41.131-123.207 -47.806  0.00  0.00    -0.022 Br
ATOM     20  C   UNL d   1     -41.738-123.810 -48.990  0.00  0.00     0.034 A 
ATOM     21  C   UNL d   1     -42.245-123.584 -49.588  0.00  0.00     0.032 A 
ENDBRANCH  14  16
ENDBRANCH  12  13
ENDBRANCH   1  12
TORSDOF 4
ENDMDL
MODEL 2
REMARK VINA RESULT:      -4.4      2.371      4.555
REMARK  4 active torsions:
REMARK  status: ('A' for Active; 'I' for Inactive)
REMARK    1  A    between atoms: C_4  and  C_10 
REMARK    2  A    between atoms: C_18  and  C_7 
REMARK       I    between atoms: C_10  and  N_17 
REMARK    3  A    between atoms: N_17  and  C_20 
REMARK    4  A    between atoms: C_20  and  C_18 
ROOT
ATOM      1  C   UNL d   1     -41.757-121.550 -52.048  0.00  0.00     0.042 C 
ENDROOT
BRANCH   1   2
ATOM      2  C   UNL d   1     -41.813-122.032 -51.374  0.00  0.00     0.102 A 
ATOM      3  N   UNL d   1     -42.464-122.092 -50.882  0.00  0.00    -0.227 NA
ATOM      4  C   UNL d   1     -42.294-122.624 -50.286  0.00  0.00     0.148 A 
ATOM      5  N   UNL d   1     -41.526-122.904 -50.403  0.00  0.00    -0.288 N 
ATOM      6  C   UNL d   1     -42.729-122.902 -49.642  0.00  0.00     0.035 A 
ATOM      7  C   UNL d   1     -41.228-122.534 -51.083  0.00  0.00     0.101 A 
ATOM      8  C   UNL d   1     -41.196-123.453 -49.887  0.00  0.00     0.082 A 
ATOM      9  C   UNL d   1     -41.632-123.725 -49.250  0.00  0.00     0.019 A 
ATOM     10  C   UNL d   1     -42.407-123.450 -49.122  0.00  0.00     0.004 A 
ATOM     11  C   UNL d   1     -43.507-122.626 -49.513  0.00  0.00     0.003 C 
ENDBRANCH   1   2
BRANCH   1  12
ATOM     12  C   UNL d   1     -42.050-121.818 -52.775  0.00  0.00     0.104 C 
BRANCH  12  13
ATOM     13  N   UNL d   1     -42.567-121.352 -53.207  0.00  0.00    -0.205 NA
ATOM     14  C   UNL d   1     -42.614-121.436 -54.029  0.00  0.00     0.302 C 
ATOM     15  O   UNL d   1     -43.129-120.970 -54.452  0.00  0.00    -0.263 OA
BRANCH  14  16
ATOM     16  C   UNL d   1     -42.136-121.993 -54.409  0.00  0.00     0.158 A 
ATOM     17  O   UNL d   1     -41.969-122.781 -54.250  0.00  0.00    -0.296 OA
ATOM     18  C   UNL d   1     -41.448-123.059 -54.828  0.00  0.00     0.134 A 
ATOM     19 BR   UNL d   1     -41.124-123.816 -54.898  0.00  0.00    -0.022 Br
ATOM     20  C   UNL d   1     -41.306-122.434 -55.332  0.00  0.00     0.034 A 
ATOM     21  C   UNL d   1     -41.722-121.775 -55.088  0.00  0.00     0.032 A 
ENDBRANCH  14  16
ENDBRANCH  12  13
ENDBRANCH   1  12
TORSDOF 4
ENDMDL
MODEL 3
REMARK VINA RESULT:      -3.5      2.298      4.754
REMARK  4 active torsions:
REMARK  status: ('A' for Active; 'I' for Inactive)
REMARK    1  A    between atoms: C_4  and  C_10 
REMARK    2  A    between atoms: C_18  and  C_7 
REMARK       I    between atoms: C_10  and  N_17 
REMARK    3  A    between atoms: N_17  and  C_20 
REMARK    4  A    between atoms: C_20  and  C_18 
ROOT
ATOM      1  C   UNL d   1     -41.396-123.405 -51.415  0.00  0.00     0.042 C 
ENDROOT
BRANCH   1   2
ATOM      2  C   UNL d   1     -41.750-123.459 -50.666  0.00  0.00     0.102 A 
ATOM      3  N   UNL d   1     -41.382-123.301 -49.952  0.00  0.00    -0.227 NA
ATOM      4  C   UNL d   1     -41.921-123.420 -49.349  0.00  0.00     0.148 A 
ATOM      5  N   UNL d   1     -42.637-123.654 -49.686  0.00  0.00    -0.288 N 
ATOM      6  C   UNL d   1     -41.868-123.348 -48.528  0.00  0.00     0.035 A 
ATOM      7  C   UNL d   1     -42.528-123.678 -50.508  0.00  0.00     0.101 A 
ATOM      8  C   UNL d   1     -43.291-123.816 -49.214  0.00  0.00     0.082 A 
ATOM      9  C   UNL d   1     -43.232-123.743 -48.400  0.00  0.00     0.019 A 
ATOM     10  C   UNL d   1     -42.516-123.507 -48.050  0.00  0.00     0.004 A 
ATOM     11  C   UNL d   1     -41.148-123.112 -48.175  0.00  0.00     0.003 C 
ENDBRANCH   1   2
BRANCH   1  12
ATOM     12  C   UNL d   1     -41.688-122.866 -51.973  0.00  0.00     0.104 C 
BRANCH  12  13
ATOM     13  N   UNL d   1     -41.458-122.079 -51.943  0.00  0.00    -0.205 NA
ATOM     14  C   UNL d   1     -41.380-121.643 -52.642  0.00  0.00     0.302 C 
ATOM     15  O   UNL d   1     -41.152-120.863 -52.606  0.00  0.00    -0.263 OA
BRANCH  14  16
ATOM     16  C   UNL d   1     -41.534-122.005 -53.368  0.00  0.00     0.158 A 
ATOM     17  O   UNL d   1     -41.217-122.666 -53.737  0.00  0.00    -0.296 OA
ATOM     18  C   UNL d   1     -41.592-122.765 -54.466  0.00  0.00     0.134 A 
ATOM     19 BR   UNL d   1     -41.459-123.353 -55.032  0.00  0.00    -0.022 Br
ATOM     20  C   UNL d   1     -42.136-122.159 -54.530  0.00  0.00     0.034 A 
ATOM     21  C   UNL d   1     -42.110-121.687 -53.864  0.00  0.00     0.032 A 
ENDBRANCH  14  16
ENDBRANCH  12  13
ENDBRANCH   1  12
TORSDOF 4
ENDMDL
