MODEL 1
REMARK VINA RESULT:      77.5      0.000      0.000
REMARK  7 active torsions:
REMARK  status: ('A' for Active; 'I' for Inactive)
REMARK    1  A    between atoms: C_2  and  S_1 
REMARK    2  A    between atoms: N_3  and  S_1 
REMARK    3  A    between atoms: C_5  and  C_7 
REMARK       I    between atoms: N_9  and  C_5 
REMARK    4  A    between atoms: C_8  and  N_6 
REMARK    5  A    between atoms: C_21  and  N_9 
REMARK    6  A    between atoms: O_28  and  C_23 
REMARK    7  A    between atoms: C_31  and  O_28 
ROOT
ATOM      1  C   UNL d   1      14.017  15.212  -4.803  0.00  0.00     0.132 A 
ATOM      2  C   UNL d   1      14.162  16.017  -4.765  0.00  0.00     0.020 A 
ATOM      3  C   UNL d   1      14.100  16.475  -5.450  0.00  0.00     0.059 A 
ATOM      4  C   UNL d   1      13.808  14.856  -5.525  0.00  0.00     0.152 A 
ATOM      5  C   UNL d   1      13.891  16.119  -6.171  0.00  0.00     0.007 A 
ATOM      6  C   UNL d   1      13.745  15.307  -6.206  0.00  0.00     0.030 A 
ATOM      7  F   UNL d   1      13.663  14.045  -5.560  0.00  0.00    -0.203 F 
ENDROOT
BRANCH   1   8
ATOM      8  S   UNL d   1      14.081  14.758  -4.114  0.00  0.00     0.274 S 
ATOM      9  O   UNL d   1      14.874  14.974  -4.038  0.00  0.00    -0.200 OA
ATOM     10  O   UNL d   1      13.290  14.541  -4.190  0.00  0.00    -0.200 OA
BRANCH   8  11
ATOM     11  N   UNL d   1      14.140  14.304  -3.428  0.00  0.00    -0.226 N 
ATOM     12  C   UNL d   1      14.294  14.667  -2.708  0.00  0.00     0.111 A 
ATOM     13  C   UNL d   1      14.352  14.209  -2.024  0.00  0.00     0.101 A 
ATOM     14  N   UNL d   1      14.255  13.390  -2.064  0.00  0.00    -0.286 N 
ATOM     15  C   UNL d   1      14.102  13.040  -2.787  0.00  0.00     0.101 A 
ATOM     16  C   UNL d   1      14.043  13.485  -3.468  0.00  0.00     0.111 A 
BRANCH  14  17
ATOM     17  C   UNL d   1      14.314  12.939  -1.380  0.00  0.00     0.148 A 
ATOM     18  N   UNL d   1      14.794  13.187  -0.762  0.00  0.00    -0.227 NA
ATOM     19  C   UNL d   1      14.852  12.733  -0.075  0.00  0.00     0.101 A 
ATOM     20  C   UNL d   1      14.423  12.029  -0.015  0.00  0.00     0.021 A 
ATOM     21  C   UNL d   1      13.939  11.780  -0.637  0.00  0.00     0.005 A 
ATOM     22  C   UNL d   1      13.887  12.236  -1.316  0.00  0.00     0.037 A 
ENDBRANCH  14  17
ENDBRANCH   8  11
ENDBRANCH   1   8
BRANCH   3  23
ATOM     23  C   UNL d   1      14.243  17.288  -5.428  0.00  0.00     0.279 C 
ATOM     24  N   UNL d   1      13.913  17.772  -6.012  0.00  0.00    -0.208 NA
ATOM     25  O   UNL d   1      14.703  17.615  -4.840  0.00  0.00    -0.265 OA
BRANCH  24  26
ATOM     26  C   UNL d   1      14.051  18.586  -5.997  0.00  0.00     0.085 A 
ATOM     27  C   UNL d   1      14.820  18.877  -6.019  0.00  0.00     0.021 A 
ATOM     28  C   UNL d   1      14.957  19.689  -6.004  0.00  0.00     0.026 A 
ATOM     29  C   UNL d   1      14.318  20.229  -5.966  0.00  0.00     0.100 A 
ATOM     30  C   UNL d   1      13.543  19.927  -5.943  0.00  0.00     0.026 A 
ATOM     31  C   UNL d   1      13.405  19.118  -5.959  0.00  0.00     0.021 A 
BRANCH  29  32
ATOM     32  O   UNL d   1      14.457  21.033  -5.951  0.00  0.00    -0.305 OA
BRANCH  32  33
ATOM     33  C   UNL d   1      14.918  21.365  -5.352  0.00  0.00     0.123 C 
ATOM     34  C   UNL d   1      15.400  22.017  -5.515  0.00  0.00     0.029 C 
ENDBRANCH  32  33
ENDBRANCH  29  32
ENDBRANCH  24  26
ENDBRANCH   3  23
TORSDOF 7
ENDMDL
