MODEL 1
REMARK VINA RESULT:      -3.4      0.000      0.000
REMARK  4 active torsions:
REMARK  status: ('A' for Active; 'I' for Inactive)
REMARK    1  A    between atoms: N_2  and  S_1 
REMARK    2  A    between atoms: C_3  and  S_1 
REMARK    3  A    between atoms: C_5  and  N_4 
REMARK    4  A    between atoms: O_17  and  C_14 
ROOT
ATOM      1  N   UNL d   1     -41.702-121.958 -51.165  0.00  0.00    -0.226 N 
ATOM      2  N   UNL d   1     -42.276-122.677 -49.811  0.00  0.00    -0.299 N 
ATOM      3  C   UNL d   1     -41.177-122.188 -50.567  0.00  0.00     0.111 A 
ATOM      4  C   UNL d   1     -42.511-122.087 -51.083  0.00  0.00     0.111 A 
ATOM      5  C   UNL d   1     -41.471-122.551 -49.886  0.00  0.00     0.100 A 
ATOM      6  C   UNL d   1     -42.796-122.450 -50.399  0.00  0.00     0.100 A 
ENDROOT
BRANCH   1   7
ATOM      7  S   UNL d   1     -41.413-121.595 -51.847  0.00  0.00     0.272 S 
ATOM      8  O   UNL d   1     -41.126-121.232 -52.521  0.00  0.00    -0.200 OA
ATOM      9  O   UNL d   1     -41.327-120.888 -51.430  0.00  0.00    -0.200 OA
BRANCH   7  10
ATOM     10  C   UNL d   1     -41.502-122.305 -52.257  0.00  0.00     0.106 A 
ATOM     11  C   UNL d   1     -41.966-122.339 -52.941  0.00  0.00     0.037 A 
ATOM     12  C   UNL d   1     -42.050-123.053 -53.346  0.00  0.00     0.095 A 
ATOM     13  C   UNL d   1     -41.669-123.733 -53.067  0.00  0.00     0.024 A 
ATOM     14  C   UNL d   1     -41.207-123.696 -52.386  0.00  0.00     0.003 A 
ATOM     15  C   UNL d   1     -41.123-122.982 -51.981  0.00  0.00     0.013 A 
BRANCH  12  16
ATOM     16  O   UNL d   1     -42.512-123.090 -54.026  0.00  0.00    -0.328 OA
ATOM     17  C   UNL d   1     -42.162-123.009 -54.769  0.00  0.00     0.181 C 
ENDBRANCH  12  16
ENDBRANCH   7  10
ENDBRANCH   1   7
BRANCH   2  18
ATOM     18  C   UNL d   1     -42.569-123.040 -49.130  0.00  0.00     0.092 A 
ATOM     19  C   UNL d   1     -43.280-123.449 -49.160  0.00  0.00     0.156 A 
ATOM     20  F   UNL d   1     -43.666-123.472 -49.894  0.00  0.00    -0.203 F 
ATOM     21  C   UNL d   1     -43.584-123.816 -48.485  0.00  0.00     0.031 A 
ATOM     22  C   UNL d   1     -43.159-123.765 -47.771  0.00  0.00     0.002 A 
ATOM     23  C   UNL d   1     -42.443-123.352 -47.742  0.00  0.00     0.002 A 
ATOM     24  C   UNL d   1     -42.150-122.990 -48.423  0.00  0.00     0.020 A 
ENDBRANCH   2  18
TORSDOF 4
ENDMDL
