MODEL 1
REMARK VINA RESULT:      -1.8      0.000      0.000
REMARK  2 active torsions:
REMARK  status: ('A' for Active; 'I' for Inactive)
REMARK    1  A    between atoms: N_10  and  C_5 
REMARK    2  A    between atoms: C_22  and  N_12 
ROOT
ATOM      1  N   UNL d   1      32.867  20.801 -21.383  0.00  0.00    -0.175 N 
ATOM      2  C   UNL d   1      32.743  21.290 -22.044  0.00  0.00     0.167 A 
ATOM      3  N   UNL d   1      32.849  21.116 -20.610  0.00  0.00    -0.143 NA
ATOM      4  C   UNL d   1      33.011  19.988 -21.475  0.00  0.00     0.283 A 
ATOM      5  C   UNL d   1      32.706  21.928 -20.519  0.00  0.00     0.168 A 
ATOM      6  N   UNL d   1      32.764  20.962 -22.791  0.00  0.00    -0.227 NA
ATOM      7  C   UNL d   1      33.028  19.677 -22.245  0.00  0.00     0.076 A 
ATOM      8  C   UNL d   1      32.603  22.090 -21.926  0.00  0.00     0.039 A 
ATOM      9  C   UNL d   1      32.582  22.417 -21.179  0.00  0.00     0.039 A 
ATOM     10  C   UNL d   1      32.904  20.166 -22.906  0.00  0.00     0.088 A 
ATOM     11  O   UNL d   1      33.131  19.513 -20.834  0.00  0.00    -0.265 OA
ATOM     12  C   UNL d   1      33.171  18.865 -22.336  0.00  0.00     0.006 A 
ATOM     13  C   UNL d   1      32.479  22.579 -22.586  0.00  0.00     0.003 A 
ATOM     14  C   UNL d   1      32.442  23.213 -21.065  0.00  0.00     0.003 A 
ATOM     15  C   UNL d   1      32.925  19.839 -23.653  0.00  0.00     0.019 A 
ATOM     16  C   UNL d   1      33.188  18.555 -23.106  0.00  0.00     0.000 A 
ATOM     17  C   UNL d   1      32.341  23.370 -22.467  0.00  0.00     0.000 A 
ATOM     18  C   UNL d   1      32.319  23.702 -21.725  0.00  0.00     0.000 A 
ATOM     19  C   UNL d   1      33.065  19.044 -23.767  0.00  0.00     0.002 A 
ENDROOT
BRANCH   5  20
ATOM     20  N   UNL d   1      32.689  22.238 -19.749  0.00  0.00    -0.285 N 
ATOM     21  C   UNL d   1      32.158  22.811 -19.543  0.00  0.00     0.101 A 
ATOM     22  C   UNL d   1      32.157  23.105 -18.779  0.00  0.00     0.100 A 
ATOM     23  N   UNL d   1      32.686  22.825 -18.221  0.00  0.00    -0.300 N 
ATOM     24  C   UNL d   1      33.217  22.253 -18.426  0.00  0.00     0.100 A 
ATOM     25  C   UNL d   1      33.233  21.943 -19.196  0.00  0.00     0.101 A 
BRANCH  23  26
ATOM     26  C   UNL d   1      32.685  23.119 -17.456  0.00  0.00     0.080 C 
ATOM     27  C   UNL d   1      33.237  23.693 -17.240  0.00  0.00     0.021 C 
ENDBRANCH  23  26
ENDBRANCH   5  20
TORSDOF 2
ENDMDL
MODEL 2
REMARK VINA RESULT:      -1.5      0.969      4.390
REMARK  2 active torsions:
REMARK  status: ('A' for Active; 'I' for Inactive)
REMARK    1  A    between atoms: N_10  and  C_5 
REMARK    2  A    between atoms: C_22  and  N_12 
ROOT
ATOM      1  N   UNL d   1      33.225  21.669 -20.619  0.00  0.00    -0.175 N 
ATOM      2  C   UNL d   1      33.225  22.418 -20.979  0.00  0.00     0.167 A 
ATOM      3  N   UNL d   1      33.227  20.973 -21.081  0.00  0.00    -0.143 NA
ATOM      4  C   UNL d   1      33.223  21.593 -19.791  0.00  0.00     0.283 A 
ATOM      5  C   UNL d   1      33.230  21.050 -21.908  0.00  0.00     0.168 A 
ATOM      6  N   UNL d   1      33.222  23.086 -20.509  0.00  0.00    -0.227 NA
ATOM      7  C   UNL d   1      33.220  22.286 -19.335  0.00  0.00     0.076 A 
ATOM      8  C   UNL d   1      33.227  22.466 -21.798  0.00  0.00     0.039 A 
ATOM      9  C   UNL d   1      33.229  21.799 -22.268  0.00  0.00     0.039 A 
ATOM     10  C   UNL d   1      33.220  23.035 -19.694  0.00  0.00     0.088 A 
ATOM     11  O   UNL d   1      33.223  20.866 -19.442  0.00  0.00    -0.265 OA
ATOM     12  C   UNL d   1      33.218  22.210 -18.508  0.00  0.00     0.006 A 
ATOM     13  C   UNL d   1      33.226  23.215 -22.158  0.00  0.00     0.003 A 
ATOM     14  C   UNL d   1      33.232  21.849 -23.082  0.00  0.00     0.003 A 
ATOM     15  C   UNL d   1      33.217  23.702 -19.225  0.00  0.00     0.019 A 
ATOM     16  C   UNL d   1      33.215  22.903 -18.051  0.00  0.00     0.000 A 
ATOM     17  C   UNL d   1      33.229  23.259 -22.969  0.00  0.00     0.000 A 
ATOM     18  C   UNL d   1      33.231  22.598 -23.442  0.00  0.00     0.000 A 
ATOM     19  C   UNL d   1      33.215  23.652 -18.411  0.00  0.00     0.002 A 
ENDROOT
BRANCH   5  20
ATOM     20  N   UNL d   1      33.232  20.357 -22.365  0.00  0.00    -0.285 N 
ATOM     21  C   UNL d   1      33.238  20.391 -23.171  0.00  0.00     0.101 A 
ATOM     22  C   UNL d   1      33.240  19.697 -23.605  0.00  0.00     0.100 A 
ATOM     23  N   UNL d   1      33.237  18.968 -23.232  0.00  0.00    -0.300 N 
ATOM     24  C   UNL d   1      33.232  18.934 -22.425  0.00  0.00     0.100 A 
ATOM     25  C   UNL d   1      33.229  19.627 -21.969  0.00  0.00     0.101 A 
BRANCH  23  26
ATOM     26  C   UNL d   1      33.240  18.273 -23.666  0.00  0.00     0.080 C 
ATOM     27  C   UNL d   1      32.552  18.032 -24.052  0.00  0.00     0.021 C 
ENDBRANCH  23  26
ENDBRANCH   5  20
TORSDOF 2
ENDMDL
MODEL 3
REMARK VINA RESULT:      -0.8      2.833      4.307
REMARK  2 active torsions:
REMARK  status: ('A' for Active; 'I' for Inactive)
REMARK    1  A    between atoms: N_10  and  C_5 
REMARK    2  A    between atoms: C_22  and  N_12 
ROOT
ATOM      1  N   UNL d   1      32.986  18.807 -23.782  0.00  0.00    -0.175 N 
ATOM      2  C   UNL d   1      33.023  18.695 -22.959  0.00  0.00     0.167 A 
ATOM      3  N   UNL d   1      33.022  19.574 -24.111  0.00  0.00    -0.143 NA
ATOM      4  C   UNL d   1      32.913  18.160 -24.298  0.00  0.00     0.283 A 
ATOM      5  C   UNL d   1      33.095  20.221 -23.595  0.00  0.00     0.168 A 
ATOM      6  N   UNL d   1      32.986  17.937 -22.659  0.00  0.00    -0.227 NA
ATOM      7  C   UNL d   1      32.877  17.399 -23.969  0.00  0.00     0.076 A 
ATOM      8  C   UNL d   1      33.095  19.352 -22.471  0.00  0.00     0.039 A 
ATOM      9  C   UNL d   1      33.131  20.109 -22.772  0.00  0.00     0.039 A 
ATOM     10  C   UNL d   1      32.914  17.287 -23.146  0.00  0.00     0.088 A 
ATOM     11  O   UNL d   1      32.877  18.269 -25.097  0.00  0.00    -0.265 OA
ATOM     12  C   UNL d   1      32.804  16.752 -24.485  0.00  0.00     0.006 A 
ATOM     13  C   UNL d   1      33.132  19.240 -21.649  0.00  0.00     0.003 A 
ATOM     14  C   UNL d   1      33.203  20.759 -22.285  0.00  0.00     0.003 A 
ATOM     15  C   UNL d   1      32.878  16.530 -22.845  0.00  0.00     0.019 A 
ATOM     16  C   UNL d   1      32.769  15.991 -24.155  0.00  0.00     0.000 A 
ATOM     17  C   UNL d   1      33.203  19.891 -21.168  0.00  0.00     0.000 A 
ATOM     18  C   UNL d   1      33.240  20.647 -21.462  0.00  0.00     0.000 A 
ATOM     19  C   UNL d   1      32.806  15.879 -23.333  0.00  0.00     0.002 A 
ENDROOT
BRANCH   5  20
ATOM     20  N   UNL d   1      33.130  20.982 -23.924  0.00  0.00    -0.285 N 
ATOM     21  C   UNL d   1      33.102  21.639 -23.456  0.00  0.00     0.101 A 
ATOM     22  C   UNL d   1      33.138  22.381 -23.798  0.00  0.00     0.100 A 
ATOM     23  N   UNL d   1      33.202  22.466 -24.610  0.00  0.00    -0.300 N 
ATOM     24  C   UNL d   1      33.230  21.810 -25.078  0.00  0.00     0.100 A 
ATOM     25  C   UNL d   1      33.195  21.048 -24.749  0.00  0.00     0.101 A 
BRANCH  23  26
ATOM     26  C   UNL d   1      33.239  23.209 -24.954  0.00  0.00     0.080 C 
ATOM     27  C   UNL d   1      32.544  23.641 -25.064  0.00  0.00     0.021 C 
ENDBRANCH  23  26
ENDBRANCH   5  20
TORSDOF 2
ENDMDL
