MODEL 1
REMARK VINA RESULT:      -0.1      0.000      0.000
REMARK  7 active torsions:
REMARK  status: ('A' for Active; 'I' for Inactive)
REMARK    1  A    between atoms: N_3  and  S_1 
REMARK    2  A    between atoms: C_7  and  S_1 
REMARK    3  A    between atoms: N_2  and  C_6 
REMARK    4  A    between atoms: C_5  and  N_3 
REMARK    5  A    between atoms: C_10  and  N_4 
REMARK    6  A    between atoms: C_6  and  C_5 
REMARK    7  A    between atoms: C_11  and  C_6 
ROOT
ATOM      1  C   UNL d   1      58.150  -0.567  30.273  0.00  0.00     0.086 C 
ENDROOT
BRANCH   1   2
ATOM      2  N   UNL d   1      57.666  -0.425  30.946  0.00  0.00    -0.300 N 
ATOM      3  C   UNL d   1      57.473  -1.044  31.462  0.00  0.00     0.100 A 
ATOM      4  C   UNL d   1      57.000  -0.902  32.120  0.00  0.00     0.100 A 
ATOM      5  N   UNL d   1      56.718  -0.141  32.264  0.00  0.00    -0.301 N 
ATOM      6  C   UNL d   1      56.911   0.479  31.748  0.00  0.00     0.100 A 
ATOM      7  C   UNL d   1      57.385   0.335  31.090  0.00  0.00     0.100 A 
BRANCH   5   8
ATOM      8  C   UNL d   1      56.244   0.002  32.922  0.00  0.00     0.064 A 
ATOM      9  C   UNL d   1      56.567   0.365  33.588  0.00  0.00     0.020 A 
ATOM     10  C   UNL d   1      56.093   0.509  34.249  0.00  0.00     0.031 A 
ATOM     11  C   UNL d   1      55.298   0.289  34.243  0.00  0.00     0.140 A 
ATOM     12  C   UNL d   1      54.977  -0.076  33.574  0.00  0.00     0.031 A 
ATOM     13  F   UNL d   1      54.811   0.431  34.909  0.00  0.00    -0.204 F 
ATOM     14  C   UNL d   1      55.449  -0.219  32.916  0.00  0.00     0.020 A 
ENDBRANCH   5   8
ENDBRANCH   1   2
BRANCH   1  15
ATOM     15  C   UNL d   1      57.919  -1.119  29.698  0.00  0.00     0.130 C 
BRANCH  15  16
ATOM     16  N   UNL d   1      58.430  -1.745  29.492  0.00  0.00    -0.155 NA
BRANCH  16  17
ATOM     17  S   UNL d   1      58.156  -2.376  29.049  0.00  0.00     0.285 S 
ATOM     18  O   UNL d   1      57.877  -3.020  28.598  0.00  0.00    -0.198 OA
ATOM     19  O   UNL d   1      57.415  -2.013  28.981  0.00  0.00    -0.198 OA
BRANCH  17  20
ATOM     20  C   UNL d   1      58.901  -2.746  29.115  0.00  0.00     0.105 A 
ATOM     21  C   UNL d   1      59.393  -2.790  28.455  0.00  0.00     0.015 A 
ATOM     22  C   UNL d   1      60.130  -3.154  28.513  0.00  0.00     0.030 A 
ATOM     23  C   UNL d   1      60.377  -3.478  29.246  0.00  0.00     0.140 A 
ATOM     24  C   UNL d   1      59.879  -3.431  29.907  0.00  0.00     0.030 A 
ATOM     25  F   UNL d   1      61.128  -3.853  29.322  0.00  0.00    -0.204 F 
ATOM     26  C   UNL d   1      59.139  -3.064  29.840  0.00  0.00     0.015 A 
ENDBRANCH  17  20
ENDBRANCH  16  17
ENDBRANCH  15  16
ENDBRANCH   1  15
BRANCH   1  27
ATOM     27  C   UNL d   1      58.865  -0.148  30.185  0.00  0.00     0.037 A 
ATOM     28  C   UNL d   1      59.414  -0.156  30.799  0.00  0.00     0.100 A 
ATOM     29  N   UNL d   1      60.124   0.256  30.719  0.00  0.00    -0.242 NA
ATOM     30  C   UNL d   1      60.277   0.673  30.022  0.00  0.00     0.099 A 
ATOM     31  C   UNL d   1      59.729   0.681  29.409  0.00  0.00     0.021 A 
ATOM     32  C   UNL d   1      59.020   0.268  29.492  0.00  0.00     0.005 A 
ENDBRANCH   1  27
TORSDOF 7
ENDMDL
MODEL 2
REMARK VINA RESULT:       0.2      1.701      4.851
REMARK  7 active torsions:
REMARK  status: ('A' for Active; 'I' for Inactive)
REMARK    1  A    between atoms: N_3  and  S_1 
REMARK    2  A    between atoms: C_7  and  S_1 
REMARK    3  A    between atoms: N_2  and  C_6 
REMARK    4  A    between atoms: C_5  and  N_3 
REMARK    5  A    between atoms: C_10  and  N_4 
REMARK    6  A    between atoms: C_6  and  C_5 
REMARK    7  A    between atoms: C_11  and  C_6 
ROOT
ATOM      1  C   UNL d   1      58.902  -0.382  29.467  0.00  0.00     0.086 C 
ENDROOT
BRANCH   1   2
ATOM      2  N   UNL d   1      58.824  -1.206  29.319  0.00  0.00    -0.300 N 
ATOM      3  C   UNL d   1      58.434  -1.474  28.639  0.00  0.00     0.100 A 
ATOM      4  C   UNL d   1      58.359  -2.282  28.498  0.00  0.00     0.100 A 
ATOM      5  N   UNL d   1      58.673  -2.822  29.035  0.00  0.00    -0.301 N 
ATOM      6  C   UNL d   1      59.062  -2.553  29.715  0.00  0.00     0.100 A 
ATOM      7  C   UNL d   1      59.137  -1.745  29.856  0.00  0.00     0.100 A 
BRANCH   5   8
ATOM      8  C   UNL d   1      58.598  -3.630  28.894  0.00  0.00     0.064 A 
ATOM      9  C   UNL d   1      57.883  -3.932  28.615  0.00  0.00     0.020 A 
ATOM     10  C   UNL d   1      57.806  -4.743  28.473  0.00  0.00     0.031 A 
ATOM     11  C   UNL d   1      58.444  -5.248  28.610  0.00  0.00     0.140 A 
ATOM     12  C   UNL d   1      59.159  -4.942  28.889  0.00  0.00     0.031 A 
ATOM     13  F   UNL d   1      58.373  -6.070  28.468  0.00  0.00    -0.204 F 
ATOM     14  C   UNL d   1      59.235  -4.135  29.030  0.00  0.00     0.020 A 
ENDBRANCH   5   8
ENDBRANCH   1   2
BRANCH   1  15
ATOM     15  C   UNL d   1      58.239   0.076  29.665  0.00  0.00     0.130 C 
BRANCH  15  16
ATOM     16  N   UNL d   1      57.873  -0.019  30.409  0.00  0.00    -0.155 NA
BRANCH  16  17
ATOM     17  S   UNL d   1      57.131   0.296  30.550  0.00  0.00     0.285 S 
ATOM     18  O   UNL d   1      56.375   0.618  30.694  0.00  0.00    -0.198 OA
ATOM     19  O   UNL d   1      57.012   0.393  29.737  0.00  0.00    -0.198 OA
BRANCH  17  20
ATOM     20  C   UNL d   1      57.247   0.201  31.370  0.00  0.00     0.105 A 
ATOM     21  C   UNL d   1      56.765  -0.319  31.792  0.00  0.00     0.015 A 
ATOM     22  C   UNL d   1      56.874  -0.418  32.602  0.00  0.00     0.030 A 
ATOM     23  C   UNL d   1      57.477   0.012  32.996  0.00  0.00     0.140 A 
ATOM     24  C   UNL d   1      57.959   0.533  32.568  0.00  0.00     0.030 A 
ATOM     25  F   UNL d   1      57.602  -0.078  33.825  0.00  0.00    -0.204 F 
ATOM     26  C   UNL d   1      57.843   0.627  31.754  0.00  0.00     0.015 A 
ENDBRANCH  17  20
ENDBRANCH  16  17
ENDBRANCH  15  16
ENDBRANCH   1  15
BRANCH   1  27
ATOM     27  C   UNL d   1      59.653  -0.025  29.413  0.00  0.00     0.037 A 
ATOM     28  C   UNL d   1      60.072   0.137  30.103  0.00  0.00     0.100 A 
ATOM     29  N   UNL d   1      60.816   0.491  30.058  0.00  0.00    -0.242 NA
ATOM     30  C   UNL d   1      61.133   0.680  29.318  0.00  0.00     0.099 A 
ATOM     31  C   UNL d   1      60.715   0.519  28.628  0.00  0.00     0.021 A 
ATOM     32  C   UNL d   1      59.971   0.165  28.678  0.00  0.00     0.005 A 
ENDBRANCH   1  27
TORSDOF 7
ENDMDL
