MODEL 1
REMARK VINA RESULT:      -3.0      0.000      0.000
REMARK  6 active torsions:
REMARK  status: ('A' for Active; 'I' for Inactive)
REMARK    1  A    between atoms: C_4  and  C_1 
REMARK       I    between atoms: N_6  and  C_1 
REMARK    2  A    between atoms: C_7  and  C_4 
REMARK    3  A    between atoms: O_20  and  C_5 
REMARK    4  A    between atoms: C_8  and  N_6 
REMARK    5  A    between atoms: C_13  and  C_7 
REMARK    6  A    between atoms: O_21  and  C_10 
ROOT
ATOM      1  C   UNL d   1      32.620  19.068 -23.176  0.00  0.00     0.076 C 
ENDROOT
BRANCH   1   2
ATOM      2  C   UNL d   1      32.600  18.583 -23.817  0.00  0.00     0.328 C 
ATOM      3  N   UNL d   1      32.017  18.004 -23.895  0.00  0.00    -0.365 NA
ATOM      4  O   UNL d   1      33.171  18.660 -24.412  0.00  0.00    -0.251 OA
BRANCH   3   5
ATOM      5  C   UNL d   1      31.420  17.418 -23.965  0.00  0.00     0.136 A 
ATOM      6  C   UNL d   1      31.451  16.739 -23.505  0.00  0.00     0.044 A 
ATOM      7  C   UNL d   1      30.850  16.142 -23.569  0.00  0.00     0.071 A 
ATOM      8 CL   UNL d   1      30.881  15.473 -23.115  0.00  0.00    -0.081 Cl
ATOM      9  C   UNL d   1      30.235  16.273 -24.111  0.00  0.00     0.069 A 
ATOM     10  C   UNL d   1      30.204  16.952 -24.571  0.00  0.00     0.015 A 
ATOM     11 CL   UNL d   1      29.656  15.684 -24.164  0.00  0.00    -0.082 Cl
ATOM     12  C   UNL d   1      30.787  17.532 -24.509  0.00  0.00     0.033 A 
ENDBRANCH   3   5
ENDBRANCH   1   2
BRANCH   1  13
ATOM     13  C   UNL d   1      33.240  19.612 -23.081  0.00  0.00     0.006 C 
BRANCH  13  14
ATOM     14  C   UNL d   1      33.164  20.222 -22.530  0.00  0.00     0.002 A 
ATOM     15  C   UNL d   1      33.239  21.012 -22.749  0.00  0.00     0.026 A 
ATOM     16  C   UNL d   1      33.160  21.612 -22.190  0.00  0.00     0.116 A 
ATOM     17  C   UNL d   1      33.006  21.430 -21.404  0.00  0.00     0.116 A 
ATOM     18  C   UNL d   1      32.927  20.629 -21.168  0.00  0.00     0.026 A 
ATOM     19  C   UNL d   1      33.006  20.029 -21.728  0.00  0.00     0.002 A 
BRANCH  16  20
ATOM     20  O   UNL d   1      33.238  22.410 -22.423  0.00  0.00    -0.326 OA
ATOM     21  C   UNL d   1      33.167  22.612 -23.215  0.00  0.00     0.181 C 
ENDBRANCH  16  20
BRANCH  17  22
ATOM     22  O   UNL d   1      32.927  22.028 -20.847  0.00  0.00    -0.326 OA
ATOM     23  C   UNL d   1      32.739  21.827 -20.060  0.00  0.00     0.181 C 
ENDBRANCH  17  22
ENDBRANCH  13  14
ENDBRANCH   1  13
TORSDOF 6
ENDMDL
MODEL 2
REMARK VINA RESULT:      -0.8      2.644      5.457
REMARK  6 active torsions:
REMARK  status: ('A' for Active; 'I' for Inactive)
REMARK    1  A    between atoms: C_4  and  C_1 
REMARK       I    between atoms: N_6  and  C_1 
REMARK    2  A    between atoms: C_7  and  C_4 
REMARK    3  A    between atoms: O_20  and  C_5 
REMARK    4  A    between atoms: C_8  and  N_6 
REMARK    5  A    between atoms: C_13  and  C_7 
REMARK    6  A    between atoms: O_21  and  C_10 
ROOT
ATOM      1  C   UNL d   1      31.988  18.402 -23.587  0.00  0.00     0.076 C 
ENDROOT
BRANCH   1   2
ATOM      2  C   UNL d   1      32.649  18.860 -23.583  0.00  0.00     0.328 C 
ATOM      3  N   UNL d   1      32.752  19.456 -23.021  0.00  0.00    -0.365 NA
ATOM      4  O   UNL d   1      33.241  18.737 -24.149  0.00  0.00    -0.251 OA
BRANCH   3   5
ATOM      5  C   UNL d   1      32.845  20.059 -22.445  0.00  0.00     0.136 A 
ATOM      6  C   UNL d   1      32.969  20.837 -22.676  0.00  0.00     0.044 A 
ATOM      7  C   UNL d   1      33.064  21.453 -22.100  0.00  0.00     0.071 A 
ATOM      8 CL   UNL d   1      33.186  22.219 -22.328  0.00  0.00    -0.081 Cl
ATOM      9  C   UNL d   1      33.028  21.238 -21.299  0.00  0.00     0.069 A 
ATOM     10  C   UNL d   1      32.905  20.460 -21.067  0.00  0.00     0.015 A 
ATOM     11 CL   UNL d   1      33.122  21.846 -20.746  0.00  0.00    -0.082 Cl
ATOM     12  C   UNL d   1      32.812  19.862 -21.626  0.00  0.00     0.033 A 
ENDBRANCH   3   5
ENDBRANCH   1   2
BRANCH   1  13
ATOM     13  C   UNL d   1      31.632  18.187 -24.306  0.00  0.00     0.006 C 
BRANCH  13  14
ATOM     14  C   UNL d   1      31.067  17.586 -24.314  0.00  0.00     0.002 A 
ATOM     15  C   UNL d   1      30.284  17.729 -24.105  0.00  0.00     0.026 A 
ATOM     16  C   UNL d   1      29.728  17.120 -24.117  0.00  0.00     0.116 A 
ATOM     17  C   UNL d   1      29.948  16.361 -24.338  0.00  0.00     0.116 A 
ATOM     18  C   UNL d   1      30.743  16.201 -24.553  0.00  0.00     0.026 A 
ATOM     19  C   UNL d   1      31.299  16.810 -24.541  0.00  0.00     0.002 A 
BRANCH  16  20
ATOM     20  O   UNL d   1      28.936  17.276 -23.903  0.00  0.00    -0.326 OA
ATOM     21  C   UNL d   1      28.619  18.023 -24.029  0.00  0.00     0.181 C 
ENDBRANCH  16  20
BRANCH  17  22
ATOM     22  O   UNL d   1      29.395  15.754 -24.349  0.00  0.00    -0.326 OA
ATOM     23  C   UNL d   1      29.137  15.454 -25.084  0.00  0.00     0.181 C 
ENDBRANCH  17  22
ENDBRANCH  13  14
ENDBRANCH   1  13
TORSDOF 6
ENDMDL
