MODEL 1
REMARK VINA RESULT:      24.3      0.000      0.000
REMARK  6 active torsions:
REMARK  status: ('A' for Active; 'I' for Inactive)
REMARK    1  A    between atoms: C_4  and  C_1 
REMARK    2  A    between atoms: C_7  and  C_4 
REMARK    3  A    between atoms: N_10  and  C_7 
REMARK    4  A    between atoms: C_11  and  N_10 
REMARK    5  A    between atoms: O_14  and  C_12 
REMARK    6  A    between atoms: C_19  and  O_14 
ROOT
ATOM      1  C   UNL d   1      45.596 -16.419  43.742  0.00  0.00     0.122 C 
ATOM      2  C   UNL d   1      44.975 -16.637  43.248  0.00  0.00     0.106 C 
ATOM      3  N   UNL d   1      44.354 -16.855  42.753  0.00  0.00    -0.191 NA
ENDROOT
BRANCH   1   4
ATOM      4  C   UNL d   1      45.673 -15.636  43.989  0.00  0.00     0.159 A 
ATOM      5  N   UNL d   1      46.335 -15.153  43.882  0.00  0.00    -0.226 NA
ATOM      6  C   UNL d   1      46.173 -14.420  44.211  0.00  0.00     0.099 A 
ATOM      7  C   UNL d   1      46.621 -13.724  44.270  0.00  0.00     0.021 A 
ATOM      8  C   UNL d   1      45.410 -14.444  44.524  0.00  0.00     0.083 A 
ATOM      9  C   UNL d   1      46.297 -13.059  44.642  0.00  0.00     0.002 A 
ATOM     10  C   UNL d   1      45.535 -13.083  44.955  0.00  0.00     0.002 A 
ATOM     11  C   UNL d   1      45.087 -13.771  44.899  0.00  0.00     0.019 A 
ATOM     12  N   UNL d   1      45.099 -15.191  44.389  0.00  0.00    -0.287 N 
ATOM     13  C   UNL d   1      44.345 -15.464  44.609  0.00  0.00     0.101 C 
ENDBRANCH   1   4
BRANCH   1  14
ATOM     14  C   UNL d   1      46.141 -16.984  43.991  0.00  0.00     0.112 C 
BRANCH  14  15
ATOM     15  N   UNL d   1      46.340 -17.613  43.494  0.00  0.00    -0.241 NA
BRANCH  15  16
ATOM     16  C   UNL d   1      46.435 -18.372  43.808  0.00  0.00     0.104 A 
ATOM     17  C   UNL d   1      46.540 -19.021  43.308  0.00  0.00     0.118 A 
ATOM     18  C   UNL d   1      46.635 -19.776  43.624  0.00  0.00     0.026 A 
ATOM     19  C   UNL d   1      46.624 -19.883  44.445  0.00  0.00     0.002 A 
ATOM     20  C   UNL d   1      46.517 -19.228  44.955  0.00  0.00     0.002 A 
ATOM     21  C   UNL d   1      46.423 -18.473  44.627  0.00  0.00     0.021 A 
BRANCH  17  22
ATOM     22  O   UNL d   1      46.551 -18.910  42.497  0.00  0.00    -0.304 OA
BRANCH  22  23
ATOM     23  C   UNL d   1      46.647 -19.560  41.998  0.00  0.00     0.123 C 
ATOM     24  C   UNL d   1      46.396 -19.523  41.217  0.00  0.00     0.029 C 
ENDBRANCH  22  23
ENDBRANCH  17  22
ENDBRANCH  15  16
ENDBRANCH  14  15
ENDBRANCH   1  14
TORSDOF 6
ENDMDL
MODEL 2
REMARK VINA RESULT:      26.2      1.684      4.866
REMARK  6 active torsions:
REMARK  status: ('A' for Active; 'I' for Inactive)
REMARK    1  A    between atoms: C_4  and  C_1 
REMARK    2  A    between atoms: C_7  and  C_4 
REMARK    3  A    between atoms: N_10  and  C_7 
REMARK    4  A    between atoms: C_11  and  N_10 
REMARK    5  A    between atoms: O_14  and  C_12 
REMARK    6  A    between atoms: C_19  and  O_14 
ROOT
ATOM      1  C   UNL d   1      45.149 -15.705  44.638  0.00  0.00     0.122 C 
ATOM      2  C   UNL d   1      44.343 -15.658  44.796  0.00  0.00     0.106 C 
ATOM      3  N   UNL d   1      43.535 -15.612  44.954  0.00  0.00    -0.191 NA
ENDROOT
BRANCH   1   4
ATOM      4  C   UNL d   1      45.489 -16.428  44.436  0.00  0.00     0.159 A 
ATOM      5  N   UNL d   1      45.664 -17.047  44.955  0.00  0.00    -0.226 NA
ATOM      6  C   UNL d   1      45.996 -17.658  44.521  0.00  0.00     0.099 A 
ATOM      7  C   UNL d   1      46.277 -18.408  44.739  0.00  0.00     0.021 A 
ATOM      8  C   UNL d   1      46.029 -17.422  43.731  0.00  0.00     0.083 A 
ATOM      9  C   UNL d   1      46.588 -18.913  44.161  0.00  0.00     0.002 A 
ATOM     10  C   UNL d   1      46.621 -18.677  43.373  0.00  0.00     0.002 A 
ATOM     11  C   UNL d   1      46.343 -17.934  43.151  0.00  0.00     0.019 A 
ATOM     12  N   UNL d   1      45.718 -16.665  43.675  0.00  0.00    -0.287 N 
ATOM     13  C   UNL d   1      45.641 -16.209  42.985  0.00  0.00     0.101 C 
ENDBRANCH   1   4
BRANCH   1  14
ATOM     14  C   UNL d   1      45.615 -15.027  44.681  0.00  0.00     0.112 C 
BRANCH  14  15
ATOM     15  N   UNL d   1      45.571 -14.456  44.087  0.00  0.00    -0.241 NA
BRANCH  15  16
ATOM     16  C   UNL d   1      45.798 -13.677  44.246  0.00  0.00     0.104 A 
ATOM     17  C   UNL d   1      45.422 -13.046  43.870  0.00  0.00     0.118 A 
ATOM     18  C   UNL d   1      45.652 -12.271  44.030  0.00  0.00     0.026 A 
ATOM     19  C   UNL d   1      46.263 -12.127  44.571  0.00  0.00     0.002 A 
ATOM     20  C   UNL d   1      46.647 -12.764  44.954  0.00  0.00     0.002 A 
ATOM     21  C   UNL d   1      46.408 -13.539  44.786  0.00  0.00     0.021 A 
BRANCH  17  22
ATOM     22  O   UNL d   1      44.819 -13.194  43.336  0.00  0.00    -0.304 OA
BRANCH  22  23
ATOM     23  C   UNL d   1      44.718 -12.696  42.686  0.00  0.00     0.123 C 
ATOM     24  C   UNL d   1      44.046 -12.229  42.622  0.00  0.00     0.029 C 
ENDBRANCH  22  23
ENDBRANCH  17  22
ENDBRANCH  15  16
ENDBRANCH  14  15
ENDBRANCH   1  14
TORSDOF 6
ENDMDL
