MODEL 1
REMARK VINA RESULT:      44.6      0.000      0.000
REMARK  6 active torsions:
REMARK  status: ('A' for Active; 'I' for Inactive)
REMARK    1  A    between atoms: C_6  and  C_1 
REMARK    2  A    between atoms: C_10  and  N_3 
REMARK    3  A    between atoms: O_7  and  C_6 
REMARK    4  A    between atoms: C_8  and  O_7 
REMARK    5  A    between atoms: O_11  and  C_9 
REMARK    6  A    between atoms: C_17  and  C_10 
ROOT
ATOM      1  C   UNL d   1     -51.891  25.361  33.308  0.00  0.00     0.173 A 
ATOM      2  N   UNL d   1     -52.704  25.555  33.306  0.00  0.00    -0.225 NA
ATOM      3  N   UNL d   1     -51.859  24.535  33.310  0.00  0.00    -0.287 N 
ATOM      4  C   UNL d   1     -52.612  24.225  33.310  0.00  0.00     0.083 A 
ATOM      5  C   UNL d   1     -53.147  24.871  33.307  0.00  0.00     0.099 A 
ATOM      6  C   UNL d   1     -52.909  23.443  33.311  0.00  0.00     0.019 A 
ATOM      7  C   UNL d   1     -53.953  24.704  33.306  0.00  0.00     0.021 A 
ATOM      8  C   UNL d   1     -53.706  23.320  33.310  0.00  0.00     0.002 A 
ATOM      9  C   UNL d   1     -54.240  23.966  33.308  0.00  0.00     0.002 A 
ENDROOT
BRANCH   1  10
ATOM     10  C   UNL d   1     -51.433  26.030  33.307  0.00  0.00     0.160 C 
BRANCH  10  11
ATOM     11  O   UNL d   1     -51.225  26.406  34.029  0.00  0.00    -0.300 OA
BRANCH  11  12
ATOM     12  C   UNL d   1     -50.562  26.918  34.077  0.00  0.00     0.122 A 
ATOM     13  C   UNL d   1     -50.255  27.124  34.815  0.00  0.00     0.117 A 
ATOM     14  C   UNL d   1     -49.598  27.631  34.884  0.00  0.00     0.026 A 
ATOM     15  C   UNL d   1     -49.267  27.918  34.190  0.00  0.00     0.002 A 
ATOM     16  C   UNL d   1     -49.574  27.713  33.448  0.00  0.00     0.002 A 
ATOM     17  C   UNL d   1     -50.228  27.208  33.381  0.00  0.00     0.027 A 
BRANCH  13  18
ATOM     18  O   UNL d   1     -50.610  26.818  35.508  0.00  0.00    -0.326 OA
ATOM     19  C   UNL d   1     -50.246  26.925  36.265  0.00  0.00     0.181 C 
ENDBRANCH  13  18
ENDBRANCH  11  12
ENDBRANCH  10  11
ENDBRANCH   1  10
BRANCH   3  20
ATOM     20  C   UNL d   1     -51.113  24.247  33.312  0.00  0.00     0.082 C 
BRANCH  20  21
ATOM     21  C   UNL d   1     -50.869  23.653  33.830  0.00  0.00     0.019 C 
ATOM     22  C   UNL d   1     -50.160  23.244  33.748  0.00  0.00     0.002 C 
ENDBRANCH  20  21
ENDBRANCH   3  20
TORSDOF 6
ENDMDL
