MODEL 1
REMARK VINA RESULT:      -5.6      0.000      0.000
REMARK  7 active torsions:
REMARK  status: ('A' for Active; 'I' for Inactive)
REMARK    1  A    between atoms: C_14  and  C_4 
REMARK    2  A    between atoms: N_17  and  C_5 
REMARK    3  A    between atoms: C_13  and  C_8 
REMARK    4  A    between atoms: N_11  and  C_18 
REMARK    5  A    between atoms: C_20  and  N_17 
REMARK    6  A    between atoms: C_18  and  C_19 
REMARK    7  A    between atoms: C_19  and  C_20 
ROOT
ATOM      1  C   UNL d   1     -48.472  13.952  22.942  0.00  0.00     0.168 A 
ATOM      2  N   UNL d   1     -47.695  13.640  22.957  0.00  0.00    -0.184 N 
ATOM      3  N   UNL d   1     -49.113  13.445  22.943  0.00  0.00    -0.231 NA
ATOM      4  C   UNL d   1     -48.588  14.752  22.928  0.00  0.00     0.057 A 
ATOM      5  C   UNL d   1     -47.602  12.839  22.972  0.00  0.00     0.217 A 
ATOM      6  N   UNL d   1     -47.185  14.943  22.942  0.00  0.00    -0.160 NA
ATOM      7  C   UNL d   1     -48.238  12.321  22.972  0.00  0.00     0.067 A 
ATOM      8  C   UNL d   1     -49.004  12.629  22.957  0.00  0.00     0.064 A 
ATOM      9  C   UNL d   1     -47.951  15.250  22.928  0.00  0.00     0.124 A 
ENDROOT
BRANCH   5  10
ATOM     10  N   UNL d   1     -46.812  12.521  22.987  0.00  0.00    -0.380 NA
BRANCH  10  11
ATOM     11  C   UNL d   1     -46.029  12.206  23.076  0.00  0.00     0.164 C 
BRANCH  11  12
ATOM     12  C   UNL d   1     -45.441  12.386  22.503  0.00  0.00     0.054 C 
BRANCH  12  13
ATOM     13  C   UNL d   1     -44.645  12.125  22.620  0.00  0.00     0.084 C 
BRANCH  13  14
ATOM     14  N   UNL d   1     -44.033  12.390  22.088  0.00  0.00    -0.285 N 
ATOM     15  C   UNL d   1     -43.292  12.008  21.959  0.00  0.00     0.183 A 
ATOM     16  N   UNL d   1     -42.862  12.464  21.388  0.00  0.00    -0.222 NA
ATOM     17  C   UNL d   1     -43.341  13.127  21.167  0.00  0.00     0.120 A 
ATOM     18  C   UNL d   1     -44.065  13.082  21.600  0.00  0.00     0.102 A 
ENDBRANCH  13  14
ENDBRANCH  12  13
ENDBRANCH  11  12
ENDBRANCH  10  11
ENDBRANCH   5  10
BRANCH   8  19
ATOM     19  C   UNL d   1     -49.676  12.103  22.958  0.00  0.00     0.036 C 
ATOM     20  C   UNL d   1     -50.044  11.884  23.697  0.00  0.00     0.006 C 
ATOM     21  C   UNL d   1     -50.340  11.585  22.963  0.00  0.00     0.006 C 
ATOM     22  C   UNL d   1     -49.974  11.802  22.221  0.00  0.00     0.006 C 
ENDBRANCH   8  19
BRANCH   4  23
ATOM     23  C   UNL d   1     -49.354  15.059  22.913  0.00  0.00     0.004 A 
ATOM     24  C   UNL d   1     -49.708  15.265  23.603  0.00  0.00     0.000 A 
ATOM     25  C   UNL d   1     -50.474  15.572  23.588  0.00  0.00     0.000 A 
ATOM     26  C   UNL d   1     -50.861  15.664  22.884  0.00  0.00     0.000 A 
ATOM     27  C   UNL d   1     -50.494  15.453  22.185  0.00  0.00     0.000 A 
ATOM     28  C   UNL d   1     -49.729  15.146  22.200  0.00  0.00     0.000 A 
ENDBRANCH   4  23
TORSDOF 7
ENDMDL
MODEL 2
REMARK VINA RESULT:      -5.4      1.500      2.647
REMARK  7 active torsions:
REMARK  status: ('A' for Active; 'I' for Inactive)
REMARK    1  A    between atoms: C_14  and  C_4 
REMARK    2  A    between atoms: N_17  and  C_5 
REMARK    3  A    between atoms: C_13  and  C_8 
REMARK    4  A    between atoms: N_11  and  C_18 
REMARK    5  A    between atoms: C_20  and  N_17 
REMARK    6  A    between atoms: C_18  and  C_19 
REMARK    7  A    between atoms: C_19  and  C_20 
ROOT
ATOM      1  C   UNL d   1     -48.945  12.763  22.865  0.00  0.00     0.168 A 
ATOM      2  N   UNL d   1     -48.494  12.086  23.069  0.00  0.00    -0.184 N 
ATOM      3  N   UNL d   1     -48.572  13.481  22.756  0.00  0.00    -0.231 NA
ATOM      4  C   UNL d   1     -49.746  12.705  22.776  0.00  0.00     0.057 A 
ATOM      5  C   UNL d   1     -47.696  12.167  23.153  0.00  0.00     0.217 A 
ATOM      6  N   UNL d   1     -49.668  11.325  23.086  0.00  0.00    -0.160 NA
ATOM      7  C   UNL d   1     -47.312  12.883  23.046  0.00  0.00     0.067 A 
ATOM      8  C   UNL d   1     -47.755  13.549  22.845  0.00  0.00     0.064 A 
ATOM      9  C   UNL d   1     -50.112  11.991  22.885  0.00  0.00     0.124 A 
ENDROOT
BRANCH   5  10
ATOM     10  N   UNL d   1     -47.238  11.479  23.360  0.00  0.00    -0.380 NA
BRANCH  10  11
ATOM     11  C   UNL d   1     -46.737  10.839  23.604  0.00  0.00     0.164 C 
BRANCH  11  12
ATOM     12  C   UNL d   1     -45.902  10.923  23.554  0.00  0.00     0.054 C 
BRANCH  12  13
ATOM     13  C   UNL d   1     -45.402  10.257  23.698  0.00  0.00     0.084 C 
BRANCH  13  14
ATOM     14  N   UNL d   1     -44.576  10.296  23.486  0.00  0.00    -0.285 N 
ATOM     15  C   UNL d   1     -44.141  11.001  23.327  0.00  0.00     0.183 A 
ATOM     16  N   UNL d   1     -43.344  10.777  23.141  0.00  0.00    -0.222 NA
ATOM     17  C   UNL d   1     -43.293   9.933  23.187  0.00  0.00     0.120 A 
ATOM     18  C   UNL d   1     -44.054   9.635  23.400  0.00  0.00     0.102 A 
ENDBRANCH  13  14
ENDBRANCH  12  13
ENDBRANCH  11  12
ENDBRANCH  10  11
ENDBRANCH   5  10
BRANCH   8  19
ATOM     19  C   UNL d   1     -47.370  14.301  22.730  0.00  0.00     0.036 C 
ATOM     20  C   UNL d   1     -47.382  14.885  23.355  0.00  0.00     0.006 C 
ATOM     21  C   UNL d   1     -46.991  15.046  22.622  0.00  0.00     0.006 C 
ATOM     22  C   UNL d   1     -46.977  14.465  21.994  0.00  0.00     0.006 C 
ENDBRANCH   8  19
BRANCH   4  23
ATOM     23  C   UNL d   1     -50.190  13.371  22.576  0.00  0.00     0.004 A 
ATOM     24  C   UNL d   1     -50.209  13.614  21.811  0.00  0.00     0.000 A 
ATOM     25  C   UNL d   1     -50.653  14.280  21.610  0.00  0.00     0.000 A 
ATOM     26  C   UNL d   1     -51.063  14.682  22.181  0.00  0.00     0.000 A 
ATOM     27  C   UNL d   1     -51.039  14.429  22.956  0.00  0.00     0.000 A 
ATOM     28  C   UNL d   1     -50.595  13.763  23.157  0.00  0.00     0.000 A 
ENDBRANCH   4  23
TORSDOF 7
ENDMDL
MODEL 3
REMARK VINA RESULT:      -5.1      1.088      2.556
REMARK  7 active torsions:
REMARK  status: ('A' for Active; 'I' for Inactive)
REMARK    1  A    between atoms: C_14  and  C_4 
REMARK    2  A    between atoms: N_17  and  C_5 
REMARK    3  A    between atoms: C_13  and  C_8 
REMARK    4  A    between atoms: N_11  and  C_18 
REMARK    5  A    between atoms: C_20  and  N_17 
REMARK    6  A    between atoms: C_18  and  C_19 
REMARK    7  A    between atoms: C_19  and  C_20 
ROOT
ATOM      1  C   UNL d   1     -48.134  12.581  22.895  0.00  0.00     0.168 A 
ATOM      2  N   UNL d   1     -47.308  12.444  22.903  0.00  0.00    -0.184 N 
ATOM      3  N   UNL d   1     -48.420  13.335  22.766  0.00  0.00    -0.231 NA
ATOM      4  C   UNL d   1     -48.648  11.968  23.015  0.00  0.00     0.057 A 
ATOM      5  C   UNL d   1     -46.814  13.070  22.782  0.00  0.00     0.217 A 
ATOM      6  N   UNL d   1     -47.547  11.088  23.151  0.00  0.00    -0.160 NA
ATOM      7  C   UNL d   1     -47.090  13.831  22.651  0.00  0.00     0.067 A 
ATOM      8  C   UNL d   1     -47.904  13.965  22.643  0.00  0.00     0.064 A 
ATOM      9  C   UNL d   1     -48.361  11.222  23.143  0.00  0.00     0.124 A 
ENDROOT
BRANCH   5  10
ATOM     10  N   UNL d   1     -45.973  12.931  22.790  0.00  0.00    -0.380 NA
BRANCH  10  11
ATOM     11  C   UNL d   1     -45.132  12.836  22.858  0.00  0.00     0.164 C 
BRANCH  11  12
ATOM     12  C   UNL d   1     -44.653  12.869  22.169  0.00  0.00     0.054 C 
BRANCH  12  13
ATOM     13  C   UNL d   1     -43.910  12.467  22.152  0.00  0.00     0.084 C 
BRANCH  13  14
ATOM     14  N   UNL d   1     -43.324  12.687  21.572  0.00  0.00    -0.285 N 
ATOM     15  C   UNL d   1     -43.472  12.839  20.756  0.00  0.00     0.183 A 
ATOM     16  N   UNL d   1     -42.732  13.038  20.391  0.00  0.00    -0.222 NA
ATOM     17  C   UNL d   1     -42.131  13.007  20.987  0.00  0.00     0.120 A 
ATOM     18  C   UNL d   1     -42.497  12.790  21.717  0.00  0.00     0.102 A 
ENDBRANCH  13  14
ENDBRANCH  12  13
ENDBRANCH  11  12
ENDBRANCH  10  11
ENDBRANCH   5  10
BRANCH   8  19
ATOM     19  C   UNL d   1     -48.207  14.751  22.509  0.00  0.00     0.036 C 
ATOM     20  C   UNL d   1     -48.345  15.023  21.710  0.00  0.00     0.006 C 
ATOM     21  C   UNL d   1     -48.505  15.526  22.371  0.00  0.00     0.006 C 
ATOM     22  C   UNL d   1     -48.369  15.259  23.171  0.00  0.00     0.006 C 
ENDBRANCH   8  19
BRANCH   4  23
ATOM     23  C   UNL d   1     -49.462  12.102  23.007  0.00  0.00     0.004 A 
ATOM     24  C   UNL d   1     -49.842  12.253  23.698  0.00  0.00     0.000 A 
ATOM     25  C   UNL d   1     -50.656  12.388  23.690  0.00  0.00     0.000 A 
ATOM     26  C   UNL d   1     -51.064  12.367  22.992  0.00  0.00     0.000 A 
ATOM     27  C   UNL d   1     -50.672  12.212  22.293  0.00  0.00     0.000 A 
ATOM     28  C   UNL d   1     -49.858  12.078  22.301  0.00  0.00     0.000 A 
ENDBRANCH   4  23
TORSDOF 7
ENDMDL
MODEL 4
REMARK VINA RESULT:      -4.1      3.688      8.645
REMARK  7 active torsions:
REMARK  status: ('A' for Active; 'I' for Inactive)
REMARK    1  A    between atoms: C_14  and  C_4 
REMARK    2  A    between atoms: N_17  and  C_5 
REMARK    3  A    between atoms: C_13  and  C_8 
REMARK    4  A    between atoms: N_11  and  C_18 
REMARK    5  A    between atoms: C_20  and  N_17 
REMARK    6  A    between atoms: C_18  and  C_19 
REMARK    7  A    between atoms: C_19  and  C_20 
ROOT
ATOM      1  C   UNL d   1     -40.366  14.239  19.786  0.00  0.00     0.168 A 
ATOM      2  N   UNL d   1     -41.084  13.844  19.963  0.00  0.00    -0.184 N 
ATOM      3  N   UNL d   1     -39.897  14.521  20.392  0.00  0.00    -0.231 NA
ATOM      4  C   UNL d   1     -40.139  14.342  19.017  0.00  0.00     0.057 A 
ATOM      5  C   UNL d   1     -41.291  13.753  20.737  0.00  0.00     0.217 A 
ATOM      6  N   UNL d   1     -41.313  13.672  18.594  0.00  0.00    -0.160 NA
ATOM      7  C   UNL d   1     -40.828  14.031  21.353  0.00  0.00     0.067 A 
ATOM      8  C   UNL d   1     -40.121  14.421  21.179  0.00  0.00     0.064 A 
ATOM      9  C   UNL d   1     -40.606  14.062  18.419  0.00  0.00     0.124 A 
ENDROOT
BRANCH   5  10
ATOM     10  N   UNL d   1     -42.020  13.351  20.917  0.00  0.00    -0.380 NA
BRANCH  10  11
ATOM     11  C   UNL d   1     -42.740  12.916  21.032  0.00  0.00     0.164 C 
BRANCH  11  12
ATOM     12  C   UNL d   1     -43.371  13.264  21.464  0.00  0.00     0.054 C 
BRANCH  12  13
ATOM     13  C   UNL d   1     -44.170  13.049  21.289  0.00  0.00     0.084 C 
BRANCH  13  14
ATOM     14  N   UNL d   1     -44.747  13.025  21.916  0.00  0.00    -0.285 N 
ATOM     15  C   UNL d   1     -44.796  12.438  22.519  0.00  0.00     0.183 A 
ATOM     16  N   UNL d   1     -45.451  12.635  23.021  0.00  0.00    -0.222 NA
ATOM     17  C   UNL d   1     -45.804  13.345  22.723  0.00  0.00     0.120 A 
ATOM     18  C   UNL d   1     -45.369  13.587  22.040  0.00  0.00     0.102 A 
ENDBRANCH  13  14
ENDBRANCH  12  13
ENDBRANCH  11  12
ENDBRANCH  10  11
ENDBRANCH   5  10
BRANCH   8  19
ATOM     19  C   UNL d   1     -39.628  14.716  21.809  0.00  0.00     0.036 C 
ATOM     20  C   UNL d   1     -39.070  14.195  22.193  0.00  0.00     0.006 C 
ATOM     21  C   UNL d   1     -39.140  15.003  22.432  0.00  0.00     0.006 C 
ATOM     22  C   UNL d   1     -39.697  15.529  22.051  0.00  0.00     0.006 C 
ENDBRANCH   8  19
BRANCH   4  23
ATOM     23  C   UNL d   1     -39.433  14.731  18.842  0.00  0.00     0.004 A 
ATOM     24  C   UNL d   1     -38.752  14.308  18.792  0.00  0.00     0.000 A 
ATOM     25  C   UNL d   1     -38.046  14.697  18.617  0.00  0.00     0.000 A 
ATOM     26  C   UNL d   1     -38.043  15.497  18.498  0.00  0.00     0.000 A 
ATOM     27  C   UNL d   1     -38.738  15.922  18.551  0.00  0.00     0.000 A 
ATOM     28  C   UNL d   1     -39.444  15.533  18.725  0.00  0.00     0.000 A 
ENDBRANCH   4  23
TORSDOF 7
ENDMDL
MODEL 5
REMARK VINA RESULT:      -3.9      6.961      9.484
REMARK  7 active torsions:
REMARK  status: ('A' for Active; 'I' for Inactive)
REMARK    1  A    between atoms: C_14  and  C_4 
REMARK    2  A    between atoms: N_17  and  C_5 
REMARK    3  A    between atoms: C_13  and  C_8 
REMARK    4  A    between atoms: N_11  and  C_18 
REMARK    5  A    between atoms: C_20  and  N_17 
REMARK    6  A    between atoms: C_18  and  C_19 
REMARK    7  A    between atoms: C_19  and  C_20 
ROOT
ATOM      1  C   UNL d   1     -39.237  15.118  20.803  0.00  0.00     0.168 A 
ATOM      2  N   UNL d   1     -39.204  15.236  19.974  0.00  0.00    -0.184 N 
ATOM      3  N   UNL d   1     -39.893  14.764  21.137  0.00  0.00    -0.231 NA
ATOM      4  C   UNL d   1     -38.621  15.353  21.271  0.00  0.00     0.057 A 
ATOM      5  C   UNL d   1     -39.829  14.993  19.526  0.00  0.00     0.217 A 
ATOM      6  N   UNL d   1     -37.941  15.819  20.120  0.00  0.00    -0.160 NA
ATOM      7  C   UNL d   1     -40.492  14.637  19.851  0.00  0.00     0.067 A 
ATOM      8  C   UNL d   1     -40.525  14.521  20.667  0.00  0.00     0.064 A 
ATOM      9  C   UNL d   1     -37.973  15.703  20.936  0.00  0.00     0.124 A 
ENDROOT
BRANCH   5  10
ATOM     10  N   UNL d   1     -39.796  15.113  18.683  0.00  0.00    -0.380 NA
BRANCH  10  11
ATOM     11  C   UNL d   1     -39.836  15.221  17.842  0.00  0.00     0.164 C 
BRANCH  11  12
ATOM     12  C   UNL d   1     -39.484  14.653  17.333  0.00  0.00     0.054 C 
BRANCH  12  13
ATOM     13  C   UNL d   1     -39.404  14.819  16.508  0.00  0.00     0.084 C 
BRANCH  13  14
ATOM     14  N   UNL d   1     -38.854  14.365  16.038  0.00  0.00    -0.285 N 
ATOM     15  C   UNL d   1     -38.411  13.700  16.305  0.00  0.00     0.183 A 
ATOM     16  N   UNL d   1     -37.940  13.426  15.655  0.00  0.00    -0.222 NA
ATOM     17  C   UNL d   1     -38.097  13.925  14.989  0.00  0.00     0.120 A 
ATOM     18  C   UNL d   1     -38.663  14.507  15.226  0.00  0.00     0.102 A 
ENDBRANCH  13  14
ENDBRANCH  12  13
ENDBRANCH  11  12
ENDBRANCH  10  11
ENDBRANCH   5  10
BRANCH   8  19
ATOM     19  C   UNL d   1     -41.208  14.152  21.020  0.00  0.00     0.036 C 
ATOM     20  C   UNL d   1     -41.947  14.580  21.066  0.00  0.00     0.006 C 
ATOM     21  C   UNL d   1     -41.885  13.791  21.368  0.00  0.00     0.006 C 
ATOM     22  C   UNL d   1     -41.149  13.359  21.324  0.00  0.00     0.006 C 
ENDBRANCH   8  19
BRANCH   4  23
ATOM     23  C   UNL d   1     -38.654  15.237  22.087  0.00  0.00     0.004 A 
ATOM     24  C   UNL d   1     -38.963  15.812  22.554  0.00  0.00     0.000 A 
ATOM     25  C   UNL d   1     -38.996  15.696  23.370  0.00  0.00     0.000 A 
ATOM     26  C   UNL d   1     -38.717  15.009  23.694  0.00  0.00     0.000 A 
ATOM     27  C   UNL d   1     -38.404  14.428  23.213  0.00  0.00     0.000 A 
ATOM     28  C   UNL d   1     -38.371  14.544  22.397  0.00  0.00     0.000 A 
ENDBRANCH   4  23
TORSDOF 7
ENDMDL
MODEL 6
REMARK VINA RESULT:      -3.1      4.386      9.221
REMARK  7 active torsions:
REMARK  status: ('A' for Active; 'I' for Inactive)
REMARK    1  A    between atoms: C_14  and  C_4 
REMARK    2  A    between atoms: N_17  and  C_5 
REMARK    3  A    between atoms: C_13  and  C_8 
REMARK    4  A    between atoms: N_11  and  C_18 
REMARK    5  A    between atoms: C_20  and  N_17 
REMARK    6  A    between atoms: C_18  and  C_19 
REMARK    7  A    between atoms: C_19  and  C_20 
ROOT
ATOM      1  C   UNL d   1     -40.154  14.573  18.796  0.00  0.00     0.168 A 
ATOM      2  N   UNL d   1     -40.872  14.514  19.225  0.00  0.00    -0.184 N 
ATOM      3  N   UNL d   1     -39.443  14.437  19.175  0.00  0.00    -0.231 NA
ATOM      4  C   UNL d   1     -40.165  14.764  18.011  0.00  0.00     0.057 A 
ATOM      5  C   UNL d   1     -40.837  14.323  20.008  0.00  0.00     0.217 A 
ATOM      6  N   UNL d   1     -41.578  14.839  18.062  0.00  0.00    -0.160 NA
ATOM      7  C   UNL d   1     -40.129  14.185  20.397  0.00  0.00     0.067 A 
ATOM      8  C   UNL d   1     -39.423  14.243  19.975  0.00  0.00     0.064 A 
ATOM      9  C   UNL d   1     -40.872  14.897  17.640  0.00  0.00     0.124 A 
ENDROOT
BRANCH   5  10
ATOM     10  N   UNL d   1     -41.567  14.263  20.444  0.00  0.00    -0.380 NA
BRANCH  10  11
ATOM     11  C   UNL d   1     -42.299  14.134  20.853  0.00  0.00     0.164 C 
BRANCH  11  12
ATOM     12  C   UNL d   1     -42.498  13.360  21.116  0.00  0.00     0.054 C 
BRANCH  12  13
ATOM     13  C   UNL d   1     -43.266  13.046  20.958  0.00  0.00     0.084 C 
BRANCH  13  14
ATOM     14  N   UNL d   1     -43.682  12.621  21.570  0.00  0.00    -0.285 N 
ATOM     15  C   UNL d   1     -43.369  11.988  22.030  0.00  0.00     0.183 A 
ATOM     16  N   UNL d   1     -43.974  11.735  22.569  0.00  0.00    -0.222 NA
ATOM     17  C   UNL d   1     -44.659  12.216  22.437  0.00  0.00     0.120 A 
ATOM     18  C   UNL d   1     -44.478  12.764  21.819  0.00  0.00     0.102 A 
ENDBRANCH  13  14
ENDBRANCH  12  13
ENDBRANCH  11  12
ENDBRANCH  10  11
ENDBRANCH   5  10
BRANCH   8  19
ATOM     19  C   UNL d   1     -38.678  14.102  20.366  0.00  0.00     0.036 C 
ATOM     20  C   UNL d   1     -38.302  13.337  20.302  0.00  0.00     0.006 C 
ATOM     21  C   UNL d   1     -37.942  13.958  20.750  0.00  0.00     0.006 C 
ATOM     22  C   UNL d   1     -38.314  14.725  20.817  0.00  0.00     0.006 C 
ENDBRANCH   8  19
BRANCH   4  23
ATOM     23  C   UNL d   1     -39.459  14.822  17.589  0.00  0.00     0.004 A 
ATOM     24  C   UNL d   1     -39.175  14.175  17.207  0.00  0.00     0.000 A 
ATOM     25  C   UNL d   1     -38.469  14.233  16.785  0.00  0.00     0.000 A 
ATOM     26  C   UNL d   1     -38.068  14.936  16.758  0.00  0.00     0.000 A 
ATOM     27  C   UNL d   1     -38.362  15.589  17.149  0.00  0.00     0.000 A 
ATOM     28  C   UNL d   1     -39.069  15.531  17.571  0.00  0.00     0.000 A 
ENDBRANCH   4  23
TORSDOF 7
ENDMDL
