MODEL 1
REMARK VINA RESULT:      -7.5      0.000      0.000
REMARK  4 active torsions:
REMARK  status: ('A' for Active; 'I' for Inactive)
REMARK       I    between atoms: C_7  and  N_9 
REMARK    1  A    between atoms: C_15  and  C_7 
REMARK    2  A    between atoms: N_9  and  C_12 
REMARK    3  A    between atoms: C_16  and  C_15 
REMARK    4  A    between atoms: C_17  and  C_16 
ROOT
ATOM      1  N   UNL d   1     -45.080  12.238  22.723  0.00  0.00    -0.169 NA
ATOM      2  C   UNL d   1     -45.285  12.959  22.387  0.00  0.00     0.282 A 
ATOM      3  C   UNL d   1     -45.676  12.020  23.241  0.00  0.00     0.282 A 
ATOM      4  C   UNL d   1     -46.017  13.187  22.702  0.00  0.00     0.064 A 
ATOM      5  C   UNL d   1     -46.250  12.604  23.226  0.00  0.00     0.063 A 
ATOM      6  C   UNL d   1     -46.966  12.684  23.628  0.00  0.00     0.006 A 
ATOM      7  C   UNL d   1     -46.486  13.853  22.569  0.00  0.00     0.024 A 
ATOM      8  O   UNL d   1     -44.829  13.365  21.837  0.00  0.00    -0.265 OA
ATOM      9  O   UNL d   1     -45.700  11.336  23.698  0.00  0.00    -0.265 OA
ATOM     10  C   UNL d   1     -47.196  13.930  22.969  0.00  0.00     0.085 A 
ATOM     11  C   UNL d   1     -47.442  13.345  23.502  0.00  0.00     0.019 A 
ENDROOT
BRANCH  10  12
ATOM     12  N   UNL d   1     -47.665  14.595  22.836  0.00  0.00    -0.208 NA
ATOM     13  C   UNL d   1     -48.360  14.526  22.404  0.00  0.00     0.279 C 
ATOM     14  O   UNL d   1     -48.823  15.191  22.274  0.00  0.00    -0.265 OA
BRANCH  13  15
ATOM     15  C   UNL d   1     -48.591  13.805  22.104  0.00  0.00     0.062 C 
BRANCH  15  16
ATOM     16  C   UNL d   1     -49.319  13.742  21.721  0.00  0.00     0.005 C 
BRANCH  16  17
ATOM     17  C   UNL d   1     -49.506  13.053  21.303  0.00  0.00     0.000 C 
ATOM     18  C   UNL d   1     -50.258  12.719  21.369  0.00  0.00     0.000 C 
ENDBRANCH  16  17
ENDBRANCH  15  16
ENDBRANCH  13  15
ENDBRANCH  10  12
TORSDOF 4
ENDMDL
MODEL 2
REMARK VINA RESULT:      -7.3      1.863      4.334
REMARK  4 active torsions:
REMARK  status: ('A' for Active; 'I' for Inactive)
REMARK       I    between atoms: C_7  and  N_9 
REMARK    1  A    between atoms: C_15  and  C_7 
REMARK    2  A    between atoms: N_9  and  C_12 
REMARK    3  A    between atoms: C_16  and  C_15 
REMARK    4  A    between atoms: C_17  and  C_16 
ROOT
ATOM      1  N   UNL d   1     -51.062  14.053  22.253  0.00  0.00    -0.169 NA
ATOM      2  C   UNL d   1     -50.677  13.769  22.920  0.00  0.00     0.282 A 
ATOM      3  C   UNL d   1     -50.794  13.631  21.605  0.00  0.00     0.282 A 
ATOM      4  C   UNL d   1     -50.165  13.163  22.679  0.00  0.00     0.064 A 
ATOM      5  C   UNL d   1     -50.243  13.084  21.869  0.00  0.00     0.063 A 
ATOM      6  C   UNL d   1     -49.795  12.516  21.471  0.00  0.00     0.006 A 
ATOM      7  C   UNL d   1     -49.646  12.683  23.105  0.00  0.00     0.024 A 
ATOM      8  O   UNL d   1     -50.793  14.050  23.684  0.00  0.00    -0.265 OA
ATOM      9  O   UNL d   1     -51.031  13.731  20.823  0.00  0.00    -0.265 OA
ATOM     10  C   UNL d   1     -49.202  12.120  22.709  0.00  0.00     0.085 A 
ATOM     11  C   UNL d   1     -49.274  12.033  21.888  0.00  0.00     0.019 A 
ENDROOT
BRANCH  10  12
ATOM     12  N   UNL d   1     -48.683  11.641  23.135  0.00  0.00    -0.208 NA
ATOM     13  C   UNL d   1     -47.907  11.881  23.252  0.00  0.00     0.279 C 
ATOM     14  O   UNL d   1     -47.394  11.401  23.676  0.00  0.00    -0.265 OA
BRANCH  13  15
ATOM     15  C   UNL d   1     -47.644  12.590  22.950  0.00  0.00     0.062 C 
BRANCH  15  16
ATOM     16  C   UNL d   1     -46.845  12.787  23.022  0.00  0.00     0.005 C 
BRANCH  16  17
ATOM     17  C   UNL d   1     -46.610  13.579  22.968  0.00  0.00     0.000 C 
ATOM     18  C   UNL d   1     -45.914  13.778  22.574  0.00  0.00     0.000 C 
ENDBRANCH  16  17
ENDBRANCH  15  16
ENDBRANCH  13  15
ENDBRANCH  10  12
TORSDOF 4
ENDMDL
MODEL 3
REMARK VINA RESULT:      -7.0      1.711      3.537
REMARK  4 active torsions:
REMARK  status: ('A' for Active; 'I' for Inactive)
REMARK       I    between atoms: C_7  and  N_9 
REMARK    1  A    between atoms: C_15  and  C_7 
REMARK    2  A    between atoms: N_9  and  C_12 
REMARK    3  A    between atoms: C_16  and  C_15 
REMARK    4  A    between atoms: C_17  and  C_16 
ROOT
ATOM      1  N   UNL d   1     -49.551  11.575  22.294  0.00  0.00    -0.169 NA
ATOM      2  C   UNL d   1     -49.000  11.689  22.892  0.00  0.00     0.282 A 
ATOM      3  C   UNL d   1     -49.537  12.234  21.808  0.00  0.00     0.282 A 
ATOM      4  C   UNL d   1     -48.643  12.427  22.773  0.00  0.00     0.064 A 
ATOM      5  C   UNL d   1     -48.979  12.756  22.104  0.00  0.00     0.063 A 
ATOM      6  C   UNL d   1     -48.729  13.500  21.847  0.00  0.00     0.006 A 
ATOM      7  C   UNL d   1     -48.058  12.827  23.196  0.00  0.00     0.024 A 
ATOM      8  O   UNL d   1     -48.846  11.152  23.495  0.00  0.00    -0.265 OA
ATOM      9  O   UNL d   1     -50.000  12.357  21.138  0.00  0.00    -0.265 OA
ATOM     10  C   UNL d   1     -47.811  13.565  22.940  0.00  0.00     0.085 A 
ATOM     11  C   UNL d   1     -48.146  13.907  22.263  0.00  0.00     0.019 A 
ENDROOT
BRANCH  10  12
ATOM     12  N   UNL d   1     -47.226  13.965  23.363  0.00  0.00    -0.208 NA
ATOM     13  C   UNL d   1     -46.440  13.899  23.136  0.00  0.00     0.279 C 
ATOM     14  O   UNL d   1     -45.862  14.298  23.560  0.00  0.00    -0.265 OA
BRANCH  13  15
ATOM     15  C   UNL d   1     -46.231  13.440  22.496  0.00  0.00     0.062 C 
BRANCH  15  16
ATOM     16  C   UNL d   1     -45.452  13.459  22.224  0.00  0.00     0.005 C 
BRANCH  16  17
ATOM     17  C   UNL d   1     -45.123  12.786  21.873  0.00  0.00     0.000 C 
ATOM     18  C   UNL d   1     -44.370  12.820  21.537  0.00  0.00     0.000 C 
ENDBRANCH  16  17
ENDBRANCH  15  16
ENDBRANCH  13  15
ENDBRANCH  10  12
TORSDOF 4
ENDMDL
MODEL 4
REMARK VINA RESULT:      -7.0      1.950      3.706
REMARK  4 active torsions:
REMARK  status: ('A' for Active; 'I' for Inactive)
REMARK       I    between atoms: C_7  and  N_9 
REMARK    1  A    between atoms: C_15  and  C_7 
REMARK    2  A    between atoms: N_9  and  C_12 
REMARK    3  A    between atoms: C_16  and  C_15 
REMARK    4  A    between atoms: C_17  and  C_16 
ROOT
ATOM      1  N   UNL d   1     -50.648  12.223  22.292  0.00  0.00    -0.169 NA
ATOM      2  C   UNL d   1     -50.171  12.692  21.816  0.00  0.00     0.282 A 
ATOM      3  C   UNL d   1     -50.656  12.548  23.044  0.00  0.00     0.282 A 
ATOM      4  C   UNL d   1     -49.880  13.314  22.281  0.00  0.00     0.064 A 
ATOM      5  C   UNL d   1     -50.183  13.218  23.035  0.00  0.00     0.063 A 
ATOM      6  C   UNL d   1     -49.986  13.761  23.624  0.00  0.00     0.006 A 
ATOM      7  C   UNL d   1     -49.381  13.945  22.101  0.00  0.00     0.024 A 
ATOM      8  O   UNL d   1     -50.020  12.552  21.020  0.00  0.00    -0.265 OA
ATOM      9  O   UNL d   1     -51.063  12.258  23.697  0.00  0.00    -0.265 OA
ATOM     10  C   UNL d   1     -49.186  14.484  22.686  0.00  0.00     0.085 A 
ATOM     11  C   UNL d   1     -49.488  14.395  23.453  0.00  0.00     0.019 A 
ENDROOT
BRANCH  10  12
ATOM     12  N   UNL d   1     -48.687  15.115  22.506  0.00  0.00    -0.208 NA
ATOM     13  C   UNL d   1     -47.874  15.026  22.571  0.00  0.00     0.279 C 
ATOM     14  O   UNL d   1     -47.381  15.656  22.391  0.00  0.00    -0.265 OA
BRANCH  13  15
ATOM     15  C   UNL d   1     -47.554  14.316  22.814  0.00  0.00     0.062 C 
BRANCH  15  16
ATOM     16  C   UNL d   1     -46.738  14.205  22.766  0.00  0.00     0.005 C 
BRANCH  16  17
ATOM     17  C   UNL d   1     -46.386  13.565  23.154  0.00  0.00     0.000 C 
ATOM     18  C   UNL d   1     -45.827  13.099  22.765  0.00  0.00     0.000 C 
ENDBRANCH  16  17
ENDBRANCH  15  16
ENDBRANCH  13  15
ENDBRANCH  10  12
TORSDOF 4
ENDMDL
MODEL 5
REMARK VINA RESULT:      -6.9      1.563      2.065
REMARK  4 active torsions:
REMARK  status: ('A' for Active; 'I' for Inactive)
REMARK       I    between atoms: C_7  and  N_9 
REMARK    1  A    between atoms: C_15  and  C_7 
REMARK    2  A    between atoms: N_9  and  C_12 
REMARK    3  A    between atoms: C_16  and  C_15 
REMARK    4  A    between atoms: C_17  and  C_16 
ROOT
ATOM      1  N   UNL d   1     -45.537  13.675  22.532  0.00  0.00    -0.169 NA
ATOM      2  C   UNL d   1     -45.777  12.910  22.708  0.00  0.00     0.282 A 
ATOM      3  C   UNL d   1     -46.166  14.179  22.679  0.00  0.00     0.282 A 
ATOM      4  C   UNL d   1     -46.564  12.942  22.966  0.00  0.00     0.064 A 
ATOM      5  C   UNL d   1     -46.796  13.726  22.945  0.00  0.00     0.063 A 
ATOM      6  C   UNL d   1     -47.562  13.929  23.175  0.00  0.00     0.006 A 
ATOM      7  C   UNL d   1     -47.084  12.351  23.212  0.00  0.00     0.024 A 
ATOM      8  O   UNL d   1     -45.304  12.242  22.633  0.00  0.00    -0.265 OA
ATOM      9  O   UNL d   1     -46.172  14.996  22.579  0.00  0.00    -0.265 OA
ATOM     10  C   UNL d   1     -47.844  12.554  23.440  0.00  0.00     0.085 A 
ATOM     11  C   UNL d   1     -48.088  13.346  23.423  0.00  0.00     0.019 A 
ENDROOT
BRANCH  10  12
ATOM     12  N   UNL d   1     -48.364  11.963  23.687  0.00  0.00    -0.208 NA
ATOM     13  C   UNL d   1     -49.049  11.816  23.260  0.00  0.00     0.279 C 
ATOM     14  O   UNL d   1     -49.563  11.227  23.509  0.00  0.00    -0.265 OA
BRANCH  13  15
ATOM     15  C   UNL d   1     -49.220  12.250  22.591  0.00  0.00     0.062 C 
BRANCH  15  16
ATOM     16  C   UNL d   1     -49.951  12.147  22.221  0.00  0.00     0.005 C 
BRANCH  16  17
ATOM     17  C   UNL d   1     -50.085  12.482  21.477  0.00  0.00     0.000 C 
ATOM     18  C   UNL d   1     -50.757  12.943  21.345  0.00  0.00     0.000 C 
ENDBRANCH  16  17
ENDBRANCH  15  16
ENDBRANCH  13  15
ENDBRANCH  10  12
TORSDOF 4
ENDMDL
MODEL 6
REMARK VINA RESULT:      -5.5      7.419      8.560
REMARK  4 active torsions:
REMARK  status: ('A' for Active; 'I' for Inactive)
REMARK       I    between atoms: C_7  and  N_9 
REMARK    1  A    between atoms: C_15  and  C_7 
REMARK    2  A    between atoms: N_9  and  C_12 
REMARK    3  A    between atoms: C_16  and  C_15 
REMARK    4  A    between atoms: C_17  and  C_16 
ROOT
ATOM      1  N   UNL d   1     -39.789  14.722  17.984  0.00  0.00    -0.169 NA
ATOM      2  C   UNL d   1     -39.393  15.222  18.502  0.00  0.00     0.282 A 
ATOM      3  C   UNL d   1     -40.411  14.377  18.389  0.00  0.00     0.282 A 
ATOM      4  C   UNL d   1     -39.777  15.183  19.236  0.00  0.00     0.064 A 
ATOM      5  C   UNL d   1     -40.402  14.661  19.158  0.00  0.00     0.063 A 
ATOM      6  C   UNL d   1     -40.889  14.511  19.807  0.00  0.00     0.006 A 
ATOM      7  C   UNL d   1     -39.626  15.562  19.953  0.00  0.00     0.024 A 
ATOM      8  O   UNL d   1     -38.734  15.672  18.307  0.00  0.00    -0.265 OA
ATOM      9  O   UNL d   1     -40.954  13.838  18.084  0.00  0.00    -0.265 OA
ATOM     10  C   UNL d   1     -40.110  15.411  20.596  0.00  0.00     0.085 A 
ATOM     11  C   UNL d   1     -40.746  14.884  20.527  0.00  0.00     0.019 A 
ENDROOT
BRANCH  10  12
ATOM     12  N   UNL d   1     -39.959  15.790  21.314  0.00  0.00    -0.208 NA
ATOM     13  C   UNL d   1     -39.548  15.396  21.905  0.00  0.00     0.279 C 
ATOM     14  O   UNL d   1     -39.400  15.776  22.617  0.00  0.00    -0.265 OA
BRANCH  13  15
ATOM     15  C   UNL d   1     -39.287  14.633  21.790  0.00  0.00     0.062 C 
BRANCH  15  16
ATOM     16  C   UNL d   1     -38.799  14.284  22.357  0.00  0.00     0.005 C 
BRANCH  16  17
ATOM     17  C   UNL d   1     -38.713  13.461  22.376  0.00  0.00     0.000 C 
ATOM     18  C   UNL d   1     -37.987  13.125  22.574  0.00  0.00     0.000 C 
ENDBRANCH  16  17
ENDBRANCH  15  16
ENDBRANCH  13  15
ENDBRANCH  10  12
TORSDOF 4
ENDMDL
MODEL 7
REMARK VINA RESULT:      -5.5      7.018      8.508
REMARK  4 active torsions:
REMARK  status: ('A' for Active; 'I' for Inactive)
REMARK       I    between atoms: C_7  and  N_9 
REMARK    1  A    between atoms: C_15  and  C_7 
REMARK    2  A    between atoms: N_9  and  C_12 
REMARK    3  A    between atoms: C_16  and  C_15 
REMARK    4  A    between atoms: C_17  and  C_16 
ROOT
ATOM      1  N   UNL d   1     -40.216  14.841  21.542  0.00  0.00    -0.169 NA
ATOM      2  C   UNL d   1     -40.732  14.582  20.958  0.00  0.00     0.282 A 
ATOM      3  C   UNL d   1     -39.703  15.383  21.206  0.00  0.00     0.282 A 
ATOM      4  C   UNL d   1     -40.533  14.970  20.253  0.00  0.00     0.064 A 
ATOM      5  C   UNL d   1     -39.899  15.461  20.414  0.00  0.00     0.063 A 
ATOM      6  C   UNL d   1     -39.578  15.922  19.810  0.00  0.00     0.006 A 
ATOM      7  C   UNL d   1     -40.857  14.929  19.495  0.00  0.00     0.024 A 
ATOM      8  O   UNL d   1     -41.333  14.034  21.073  0.00  0.00    -0.265 OA
ATOM      9  O   UNL d   1     -39.094  15.783  21.590  0.00  0.00    -0.265 OA
ATOM     10  C   UNL d   1     -40.537  15.387  18.896  0.00  0.00     0.085 A 
ATOM     11  C   UNL d   1     -39.895  15.887  19.050  0.00  0.00     0.019 A 
ENDROOT
BRANCH  10  12
ATOM     12  N   UNL d   1     -40.861  15.345  18.139  0.00  0.00    -0.208 NA
ATOM     13  C   UNL d   1     -40.521  14.855  17.575  0.00  0.00     0.279 C 
ATOM     14  O   UNL d   1     -40.847  14.817  16.822  0.00  0.00    -0.265 OA
BRANCH  13  15
ATOM     15  C   UNL d   1     -39.865  14.408  17.757  0.00  0.00     0.062 C 
BRANCH  15  16
ATOM     16  C   UNL d   1     -39.490  13.980  17.158  0.00  0.00     0.005 C 
BRANCH  16  17
ATOM     17  C   UNL d   1     -38.999  13.344  17.354  0.00  0.00     0.000 C 
ATOM     18  C   UNL d   1     -38.269  13.253  16.979  0.00  0.00     0.000 C 
ENDBRANCH  16  17
ENDBRANCH  15  16
ENDBRANCH  13  15
ENDBRANCH  10  12
TORSDOF 4
ENDMDL
MODEL 8
REMARK VINA RESULT:      -5.4      7.252      9.094
REMARK  4 active torsions:
REMARK  status: ('A' for Active; 'I' for Inactive)
REMARK       I    between atoms: C_7  and  N_9 
REMARK    1  A    between atoms: C_15  and  C_7 
REMARK    2  A    between atoms: N_9  and  C_12 
REMARK    3  A    between atoms: C_16  and  C_15 
REMARK    4  A    between atoms: C_17  and  C_16 
ROOT
ATOM      1  N   UNL d   1     -38.466  14.228  16.551  0.00  0.00    -0.169 NA
ATOM      2  C   UNL d   1     -38.732  13.717  17.136  0.00  0.00     0.282 A 
ATOM      3  C   UNL d   1     -38.937  14.898  16.564  0.00  0.00     0.282 A 
ATOM      4  C   UNL d   1     -39.375  14.078  17.515  0.00  0.00     0.064 A 
ATOM      5  C   UNL d   1     -39.495  14.803  17.157  0.00  0.00     0.063 A 
ATOM      6  C   UNL d   1     -40.106  15.290  17.421  0.00  0.00     0.006 A 
ATOM      7  C   UNL d   1     -39.856  13.825  18.136  0.00  0.00     0.024 A 
ATOM      8  O   UNL d   1     -38.403  12.982  17.301  0.00  0.00    -0.265 OA
ATOM      9  O   UNL d   1     -38.868  15.554  16.072  0.00  0.00    -0.265 OA
ATOM     10  C   UNL d   1     -40.462  14.310  18.398  0.00  0.00     0.085 A 
ATOM     11  C   UNL d   1     -40.591  15.047  18.042  0.00  0.00     0.019 A 
ENDROOT
BRANCH  10  12
ATOM     12  N   UNL d   1     -40.942  14.058  19.019  0.00  0.00    -0.208 NA
ATOM     13  C   UNL d   1     -40.809  14.337  19.779  0.00  0.00     0.279 C 
ATOM     14  O   UNL d   1     -41.289  14.084  20.394  0.00  0.00    -0.265 OA
BRANCH  13  15
ATOM     15  C   UNL d   1     -40.204  14.864  19.926  0.00  0.00     0.062 C 
BRANCH  15  16
ATOM     16  C   UNL d   1     -40.068  15.116  20.700  0.00  0.00     0.005 C 
BRANCH  16  17
ATOM     17  C   UNL d   1     -39.474  15.670  20.854  0.00  0.00     0.000 C 
ATOM     18  C   UNL d   1     -39.332  15.922  21.627  0.00  0.00     0.000 C 
ENDBRANCH  16  17
ENDBRANCH  15  16
ENDBRANCH  13  15
ENDBRANCH  10  12
TORSDOF 4
ENDMDL
MODEL 9
REMARK VINA RESULT:      -5.4      7.275      9.136
REMARK  4 active torsions:
REMARK  status: ('A' for Active; 'I' for Inactive)
REMARK       I    between atoms: C_7  and  N_9 
REMARK    1  A    between atoms: C_15  and  C_7 
REMARK    2  A    between atoms: N_9  and  C_12 
REMARK    3  A    between atoms: C_16  and  C_15 
REMARK    4  A    between atoms: C_17  and  C_16 
ROOT
ATOM      1  N   UNL d   1     -40.034  15.211  20.825  0.00  0.00    -0.169 NA
ATOM      2  C   UNL d   1     -39.508  15.432  20.234  0.00  0.00     0.282 A 
ATOM      3  C   UNL d   1     -40.603  14.727  20.492  0.00  0.00     0.282 A 
ATOM      4  C   UNL d   1     -39.759  15.079  19.527  0.00  0.00     0.064 A 
ATOM      5  C   UNL d   1     -40.433  14.647  19.694  0.00  0.00     0.063 A 
ATOM      6  C   UNL d   1     -40.809  14.231  19.089  0.00  0.00     0.006 A 
ATOM      7  C   UNL d   1     -39.449  15.105  18.763  0.00  0.00     0.024 A 
ATOM      8  O   UNL d   1     -38.856  15.919  20.345  0.00  0.00    -0.265 OA
ATOM      9  O   UNL d   1     -41.238  14.378  20.883  0.00  0.00    -0.265 OA
ATOM     10  C   UNL d   1     -39.823  14.692  18.163  0.00  0.00     0.085 A 
ATOM     11  C   UNL d   1     -40.507  14.251  18.322  0.00  0.00     0.019 A 
ENDROOT
BRANCH  10  12
ATOM     12  N   UNL d   1     -39.513  14.718  17.399  0.00  0.00    -0.208 NA
ATOM     13  C   UNL d   1     -39.035  14.108  17.130  0.00  0.00     0.279 C 
ATOM     14  O   UNL d   1     -38.729  14.138  16.369  0.00  0.00    -0.265 OA
BRANCH  13  15
ATOM     15  C   UNL d   1     -38.863  13.474  17.613  0.00  0.00     0.062 C 
BRANCH  15  16
ATOM     16  C   UNL d   1     -38.423  12.845  17.309  0.00  0.00     0.005 C 
BRANCH  16  17
ATOM     17  C   UNL d   1     -37.985  12.365  17.821  0.00  0.00     0.000 C 
ATOM     18  C   UNL d   1     -37.940  11.552  17.690  0.00  0.00     0.000 C 
ENDBRANCH  16  17
ENDBRANCH  15  16
ENDBRANCH  13  15
ENDBRANCH  10  12
TORSDOF 4
ENDMDL
