MODEL 1
REMARK VINA RESULT:      -8.6      0.000      0.000
REMARK  4 active torsions:
REMARK  status: ('A' for Active; 'I' for Inactive)
REMARK    1  A    between atoms: C_3  and  S_1 
REMARK       I    between atoms: C_2  and  N_6 
REMARK    2  A    between atoms: C_11  and  C_2 
REMARK    3  A    between atoms: N_6  and  C_12 
REMARK    4  A    between atoms: C_15  and  C_11 
ROOT
ATOM      1  C   UNL d   1      50.389  34.204  52.585  0.00  0.00     0.107 A 
ATOM      2  C   UNL d   1      50.362  33.590  53.131  0.00  0.00     0.015 A 
ATOM      3  C   UNL d   1      51.102  34.395  52.216  0.00  0.00     0.015 A 
ATOM      4  C   UNL d   1      51.756  33.355  52.944  0.00  0.00     0.085 A 
ATOM      5  C   UNL d   1      51.785  33.971  52.396  0.00  0.00     0.020 A 
ATOM      6  C   UNL d   1      51.045  33.166  53.310  0.00  0.00     0.020 A 
ENDROOT
BRANCH   4   7
ATOM      7  N   UNL d   1      52.440  32.931  53.124  0.00  0.00    -0.208 NA
ATOM      8  C   UNL d   1      52.840  33.075  53.831  0.00  0.00     0.279 C 
ATOM      9  O   UNL d   1      52.558  33.642  54.356  0.00  0.00    -0.265 OA
BRANCH   8  10
ATOM     10  C   UNL d   1      53.530  32.647  54.012  0.00  0.00     0.062 C 
BRANCH  10  11
ATOM     11  C   UNL d   1      54.157  33.012  54.403  0.00  0.00     0.005 A 
ATOM     12  C   UNL d   1      54.792  33.299  53.961  0.00  0.00     0.000 A 
ATOM     13  C   UNL d   1      55.424  33.666  54.352  0.00  0.00     0.000 A 
ATOM     14  C   UNL d   1      55.417  33.743  55.177  0.00  0.00     0.000 A 
ATOM     15  C   UNL d   1      54.779  33.453  55.611  0.00  0.00     0.000 A 
ATOM     16  C   UNL d   1      54.151  33.089  55.228  0.00  0.00     0.000 A 
ENDBRANCH  10  11
ENDBRANCH   8  10
ENDBRANCH   4   7
BRANCH   1  17
ATOM     17  S   UNL d   1      49.705  34.628  52.405  0.00  0.00     0.302 S 
ATOM     18  O   UNL d   1      49.709  34.312  51.642  0.00  0.00    -0.197 OA
ATOM     19  O   UNL d   1      49.701  34.945  53.167  0.00  0.00    -0.197 OA
ATOM     20  N   UNL d   1      49.020  35.054  52.225  0.00  0.00    -0.043 N 
ENDBRANCH   1  17
TORSDOF 4
ENDMDL
MODEL 2
REMARK VINA RESULT:      -8.4      2.377      3.531
REMARK  4 active torsions:
REMARK  status: ('A' for Active; 'I' for Inactive)
REMARK    1  A    between atoms: C_3  and  S_1 
REMARK       I    between atoms: C_2  and  N_6 
REMARK    2  A    between atoms: C_11  and  C_2 
REMARK    3  A    between atoms: N_6  and  C_12 
REMARK    4  A    between atoms: C_15  and  C_11 
ROOT
ATOM      1  C   UNL d   1      53.167  34.593  54.256  0.00  0.00     0.107 A 
ATOM      2  C   UNL d   1      53.051  34.412  53.463  0.00  0.00     0.015 A 
ATOM      3  C   UNL d   1      53.502  34.033  54.761  0.00  0.00     0.015 A 
ATOM      4  C   UNL d   1      53.605  33.115  53.672  0.00  0.00     0.085 A 
ATOM      5  C   UNL d   1      53.721  33.294  54.469  0.00  0.00     0.020 A 
ATOM      6  C   UNL d   1      53.270  33.674  53.171  0.00  0.00     0.020 A 
ENDROOT
BRANCH   4   7
ATOM      7  N   UNL d   1      53.824  32.375  53.380  0.00  0.00    -0.208 NA
ATOM      8  C   UNL d   1      53.244  31.826  53.173  0.00  0.00     0.279 C 
ATOM      9  O   UNL d   1      52.447  32.015  53.259  0.00  0.00    -0.265 OA
BRANCH   8  10
ATOM     10  C   UNL d   1      53.465  31.081  52.879  0.00  0.00     0.062 C 
BRANCH  10  11
ATOM     11  C   UNL d   1      53.259  30.393  53.285  0.00  0.00     0.005 A 
ATOM     12  C   UNL d   1      52.544  30.022  53.108  0.00  0.00     0.000 A 
ATOM     13  C   UNL d   1      52.335  29.331  53.515  0.00  0.00     0.000 A 
ATOM     14  C   UNL d   1      52.840  29.017  54.093  0.00  0.00     0.000 A 
ATOM     15  C   UNL d   1      53.552  29.394  54.263  0.00  0.00     0.000 A 
ATOM     16  C   UNL d   1      53.763  30.079  53.863  0.00  0.00     0.000 A 
ENDBRANCH  10  11
ENDBRANCH   8  10
ENDBRANCH   4   7
BRANCH   1  17
ATOM     17  S   UNL d   1      52.947  35.332  54.548  0.00  0.00     0.302 S 
ATOM     18  O   UNL d   1      53.415  35.207  55.217  0.00  0.00    -0.197 OA
ATOM     19  O   UNL d   1      52.480  35.458  53.880  0.00  0.00    -0.197 OA
ATOM     20  N   UNL d   1      52.728  36.073  54.841  0.00  0.00    -0.043 N 
ENDBRANCH   1  17
TORSDOF 4
ENDMDL
MODEL 3
REMARK VINA RESULT:      -8.4      2.525      4.622
REMARK  4 active torsions:
REMARK  status: ('A' for Active; 'I' for Inactive)
REMARK    1  A    between atoms: C_3  and  S_1 
REMARK       I    between atoms: C_2  and  N_6 
REMARK    2  A    between atoms: C_11  and  C_2 
REMARK    3  A    between atoms: N_6  and  C_12 
REMARK    4  A    between atoms: C_15  and  C_11 
ROOT
ATOM      1  C   UNL d   1      53.244  30.382  53.640  0.00  0.00     0.107 A 
ATOM      2  C   UNL d   1      53.642  31.044  53.923  0.00  0.00     0.015 A 
ATOM      3  C   UNL d   1      52.691  30.463  53.033  0.00  0.00     0.015 A 
ATOM      4  C   UNL d   1      52.938  31.869  52.997  0.00  0.00     0.085 A 
ATOM      5  C   UNL d   1      52.538  31.206  52.712  0.00  0.00     0.020 A 
ATOM      6  C   UNL d   1      53.489  31.787  53.602  0.00  0.00     0.020 A 
ENDROOT
BRANCH   4   7
ATOM      7  N   UNL d   1      52.785  32.613  52.676  0.00  0.00    -0.208 NA
ATOM      8  C   UNL d   1      52.303  33.146  53.081  0.00  0.00     0.279 C 
ATOM      9  O   UNL d   1      51.976  32.935  53.807  0.00  0.00    -0.265 OA
BRANCH   8  10
ATOM     10  C   UNL d   1      52.149  33.895  52.757  0.00  0.00     0.062 C 
BRANCH  10  11
ATOM     11  C   UNL d   1      51.375  34.127  52.589  0.00  0.00     0.005 A 
ATOM     12  C   UNL d   1      51.106  34.090  51.810  0.00  0.00     0.000 A 
ATOM     13  C   UNL d   1      50.330  34.322  51.639  0.00  0.00     0.000 A 
ATOM     14  C   UNL d   1      49.830  34.588  52.245  0.00  0.00     0.000 A 
ATOM     15  C   UNL d   1      50.107  34.622  53.020  0.00  0.00     0.000 A 
ATOM     16  C   UNL d   1      50.875  34.393  53.194  0.00  0.00     0.000 A 
ENDBRANCH  10  11
ENDBRANCH   8  10
ENDBRANCH   4   7
BRANCH   1  17
ATOM     17  S   UNL d   1      53.397  29.638  53.962  0.00  0.00     0.302 S 
ATOM     18  O   UNL d   1      54.186  29.698  53.725  0.00  0.00    -0.197 OA
ATOM     19  O   UNL d   1      52.609  29.579  54.199  0.00  0.00    -0.197 OA
ATOM     20  N   UNL d   1      53.551  28.893  54.284  0.00  0.00    -0.043 N 
ENDBRANCH   1  17
TORSDOF 4
ENDMDL
MODEL 4
REMARK VINA RESULT:      -8.2      1.658      2.320
REMARK  4 active torsions:
REMARK  status: ('A' for Active; 'I' for Inactive)
REMARK    1  A    between atoms: C_3  and  S_1 
REMARK       I    between atoms: C_2  and  N_6 
REMARK    2  A    between atoms: C_11  and  C_2 
REMARK    3  A    between atoms: N_6  and  C_12 
REMARK    4  A    between atoms: C_15  and  C_11 
ROOT
ATOM      1  C   UNL d   1      50.517  34.206  52.687  0.00  0.00     0.107 A 
ATOM      2  C   UNL d   1      50.450  33.602  53.240  0.00  0.00     0.015 A 
ATOM      3  C   UNL d   1      51.253  34.388  52.362  0.00  0.00     0.015 A 
ATOM      4  C   UNL d   1      51.852  33.358  53.149  0.00  0.00     0.085 A 
ATOM      5  C   UNL d   1      51.921  33.964  52.593  0.00  0.00     0.020 A 
ATOM      6  C   UNL d   1      51.118  33.178  53.471  0.00  0.00     0.020 A 
ENDROOT
BRANCH   4   7
ATOM      7  N   UNL d   1      52.520  32.933  53.381  0.00  0.00    -0.208 NA
ATOM      8  C   UNL d   1      52.746  32.260  52.961  0.00  0.00     0.279 C 
ATOM      9  O   UNL d   1      52.304  32.011  52.312  0.00  0.00    -0.265 OA
BRANCH   8  10
ATOM     10  C   UNL d   1      53.419  31.832  53.194  0.00  0.00     0.062 C 
BRANCH  10  11
ATOM     11  C   UNL d   1      53.355  31.041  53.419  0.00  0.00     0.005 A 
ATOM     12  C   UNL d   1      53.513  30.832  54.201  0.00  0.00     0.000 A 
ATOM     13  C   UNL d   1      53.449  30.039  54.429  0.00  0.00     0.000 A 
ATOM     14  C   UNL d   1      53.229  29.461  53.876  0.00  0.00     0.000 A 
ATOM     15  C   UNL d   1      53.073  29.678  53.096  0.00  0.00     0.000 A 
ATOM     16  C   UNL d   1      53.135  30.464  52.866  0.00  0.00     0.000 A 
ENDBRANCH  10  11
ENDBRANCH   8  10
ENDBRANCH   4   7
BRANCH   1  17
ATOM     17  S   UNL d   1      49.848  34.631  52.456  0.00  0.00     0.302 S 
ATOM     18  O   UNL d   1      49.826  34.998  53.195  0.00  0.00    -0.197 OA
ATOM     19  O   UNL d   1      49.871  34.264  51.717  0.00  0.00    -0.197 OA
ATOM     20  N   UNL d   1      49.179  35.056  52.224  0.00  0.00    -0.043 N 
ENDBRANCH   1  17
TORSDOF 4
ENDMDL
