MODEL 1
REMARK VINA RESULT:      -4.8      0.000      0.000
REMARK  5 active torsions:
REMARK  status: ('A' for Active; 'I' for Inactive)
REMARK    1  A    between atoms: C_9  and  N_2 
REMARK    2  A    between atoms: C_8  and  O_11 
REMARK    3  A    between atoms: C_12  and  C_9 
REMARK    4  A    between atoms: O_11  and  C_15 
REMARK    5  A    between atoms: C_15  and  C_12 
ROOT
ATOM      1  C   UNL d   1     -41.123-122.784 -51.973  0.00  0.00     0.087 C 
ENDROOT
BRANCH   1   2
ATOM      2  N   UNL d   1     -41.286-122.532 -52.743  0.00  0.00    -0.251 N 
ATOM      3  C   UNL d   1     -41.405-121.716 -52.818  0.00  0.00     0.378 A 
ATOM      4  O   UNL d   1     -41.562-121.536 -53.605  0.00  0.00    -0.258 OA
ATOM      5  O   UNL d   1     -41.372-121.168 -52.195  0.00  0.00    -0.237 OA
ATOM      6  C   UNL d   1     -41.539-122.261 -54.033  0.00  0.00     0.121 A 
ATOM      7  C   UNL d   1     -41.652-122.430 -54.833  0.00  0.00     0.026 A 
ATOM      8  C   UNL d   1     -41.371-122.864 -53.502  0.00  0.00     0.092 A 
ATOM      9  C   UNL d   1     -41.594-123.214 -55.098  0.00  0.00     0.002 A 
ATOM     10  C   UNL d   1     -41.426-123.817 -54.567  0.00  0.00     0.002 A 
ATOM     11  C   UNL d   1     -41.312-123.645 -53.763  0.00  0.00     0.020 A 
ENDBRANCH   1   2
BRANCH   1  12
ATOM     12  C   UNL d   1     -41.735-122.996 -51.475  0.00  0.00     0.046 C 
BRANCH  12  13
ATOM     13  C   UNL d   1     -41.578-123.160 -50.679  0.00  0.00     0.124 C 
BRANCH  13  14
ATOM     14  O   UNL d   1     -42.205-123.272 -50.154  0.00  0.00    -0.304 OA
BRANCH  14  15
ATOM     15  C   UNL d   1     -42.049-123.417 -49.352  0.00  0.00     0.111 A 
ATOM     16  C   UNL d   1     -42.652-123.673 -48.852  0.00  0.00     0.080 A 
ATOM     17 CL   UNL d   1     -43.415-123.789 -49.141  0.00  0.00    -0.080 Cl
ATOM     18  C   UNL d   1     -42.494-123.815 -48.057  0.00  0.00     0.013 A 
ATOM     19  C   UNL d   1     -41.739-123.703 -47.763  0.00  0.00     0.001 A 
ATOM     20  C   UNL d   1     -41.129-123.445 -48.259  0.00  0.00     0.002 A 
ATOM     21  C   UNL d   1     -41.288-123.303 -49.055  0.00  0.00     0.026 A 
ENDBRANCH  14  15
ENDBRANCH  13  14
ENDBRANCH  12  13
ENDBRANCH   1  12
TORSDOF 5
ENDMDL
MODEL 2
REMARK VINA RESULT:      -2.6      0.982      1.304
REMARK  5 active torsions:
REMARK  status: ('A' for Active; 'I' for Inactive)
REMARK    1  A    between atoms: C_9  and  N_2 
REMARK    2  A    between atoms: C_8  and  O_11 
REMARK    3  A    between atoms: C_12  and  C_9 
REMARK    4  A    between atoms: O_11  and  C_15 
REMARK    5  A    between atoms: C_15  and  C_12 
ROOT
ATOM      1  C   UNL d   1     -41.897-122.381 -52.398  0.00  0.00     0.087 C 
ENDROOT
BRANCH   1   2
ATOM      2  N   UNL d   1     -41.742-122.587 -53.184  0.00  0.00    -0.251 N 
ATOM      3  C   UNL d   1     -41.355-123.314 -53.277  0.00  0.00     0.378 A 
ATOM      4  O   UNL d   1     -41.234-123.455 -54.078  0.00  0.00    -0.258 OA
ATOM      5  O   UNL d   1     -41.127-123.817 -52.658  0.00  0.00    -0.237 OA
ATOM      6  C   UNL d   1     -41.555-122.797 -54.496  0.00  0.00     0.121 A 
ATOM      7  C   UNL d   1     -41.597-122.626 -55.302  0.00  0.00     0.026 A 
ATOM      8  C   UNL d   1     -41.863-122.273 -53.945  0.00  0.00     0.092 A 
ATOM      9  C   UNL d   1     -41.953-121.921 -55.553  0.00  0.00     0.002 A 
ATOM     10  C   UNL d   1     -42.261-121.396 -55.002  0.00  0.00     0.002 A 
ATOM     11  C   UNL d   1     -42.218-121.569 -54.192  0.00  0.00     0.020 A 
ENDBRANCH   1   2
BRANCH   1  12
ATOM     12  C   UNL d   1     -41.570-122.819 -51.790  0.00  0.00     0.046 C 
BRANCH  12  13
ATOM     13  C   UNL d   1     -41.641-122.553 -51.010  0.00  0.00     0.124 C 
BRANCH  13  14
ATOM     14  O   UNL d   1     -42.224-122.872 -50.521  0.00  0.00    -0.304 OA
BRANCH  14  15
ATOM     15  C   UNL d   1     -42.084-122.944 -49.706  0.00  0.00     0.111 A 
ATOM     16  C   UNL d   1     -42.713-122.932 -49.175  0.00  0.00     0.080 A 
ATOM     17 CL   UNL d   1     -43.489-122.849 -49.444  0.00  0.00    -0.080 Cl
ATOM     18  C   UNL d   1     -42.571-123.003 -48.367  0.00  0.00     0.013 A 
ATOM     19  C   UNL d   1     -41.806-123.086 -48.092  0.00  0.00     0.001 A 
ATOM     20  C   UNL d   1     -41.168-123.099 -48.620  0.00  0.00     0.002 A 
ATOM     21  C   UNL d   1     -41.312-123.027 -49.428  0.00  0.00     0.026 A 
ENDBRANCH  14  15
ENDBRANCH  13  14
ENDBRANCH  12  13
ENDBRANCH   1  12
TORSDOF 5
ENDMDL
