MODEL 1
REMARK VINA RESULT:      -5.0      0.000      0.000
REMARK  5 active torsions:
REMARK  status: ('A' for Active; 'I' for Inactive)
REMARK    1  A    between atoms: C_11  and  N_5 
REMARK    2  A    between atoms: C_15  and  C_8 
REMARK    3  A    between atoms: C_12  and  C_11 
REMARK    4  A    between atoms: O_20  and  C_15 
REMARK    5  A    between atoms: C_23  and  O_20 
ROOT
ATOM      1  C   UNL d   1     -45.656  12.214  22.588  0.00  0.00     0.130 A 
ATOM      2  C   UNL d   1     -46.139  11.665  22.962  0.00  0.00     0.157 A 
ATOM      3  C   UNL d   1     -45.988  12.884  22.232  0.00  0.00     0.272 A 
ATOM      4  N   UNL d   1     -46.952  11.781  22.982  0.00  0.00    -0.208 NA
ATOM      5  N   UNL d   1     -46.801  13.000  22.252  0.00  0.00    -0.254 N 
ATOM      6  C   UNL d   1     -44.836  12.101  22.566  0.00  0.00     0.204 A 
ATOM      7  N   UNL d   1     -45.805  10.993  23.320  0.00  0.00    -0.289 N 
ATOM      8  C   UNL d   1     -47.284  12.451  22.626  0.00  0.00     0.177 A 
ATOM      9  C   UNL d   1     -44.502  11.428  22.924  0.00  0.00     0.055 A 
ATOM     10  C   UNL d   1     -44.992  10.877  23.300  0.00  0.00     0.069 A 
ATOM     11  O   UNL d   1     -45.499  13.447  21.849  0.00  0.00    -0.266 OA
ATOM     12  O   UNL d   1     -44.351  12.655  22.189  0.00  0.00    -0.286 OA
ATOM     13  C   UNL d   1     -46.290  10.439  23.697  0.00  0.00     0.101 C 
ATOM     14  C   UNL d   1     -43.686  11.313  22.903  0.00  0.00     0.005 A 
ATOM     15  C   UNL d   1     -44.662  10.211  23.654  0.00  0.00     0.018 A 
ATOM     16  C   UNL d   1     -43.356  10.648  23.257  0.00  0.00     0.000 A 
ATOM     17  C   UNL d   1     -43.849  10.095  23.635  0.00  0.00     0.002 A 
ENDROOT
BRANCH   8  18
ATOM     18  C   UNL d   1     -48.111  12.570  22.645  0.00  0.00     0.160 C 
BRANCH  18  19
ATOM     19  O   UNL d   1     -48.622  11.928  22.555  0.00  0.00    -0.302 OA
BRANCH  19  20
ATOM     20  C   UNL d   1     -49.427  12.024  22.698  0.00  0.00     0.100 A 
ATOM     21  C   UNL d   1     -49.732  11.842  23.439  0.00  0.00     0.025 A 
ATOM     22  C   UNL d   1     -50.541  11.936  23.590  0.00  0.00     0.002 A 
ATOM     23  C   UNL d   1     -51.033  12.212  22.990  0.00  0.00     0.000 A 
ATOM     24  C   UNL d   1     -50.724  12.394  22.247  0.00  0.00     0.002 A 
ATOM     25  C   UNL d   1     -49.922  12.300  22.101  0.00  0.00     0.025 A 
ENDBRANCH  19  20
ENDBRANCH  18  19
ENDBRANCH   8  18
BRANCH   5  26
ATOM     26  C   UNL d   1     -47.131  13.665  21.897  0.00  0.00     0.109 C 
BRANCH  26  27
ATOM     27  C   UNL d   1     -47.247  14.350  22.336  0.00  0.00     0.118 A 
ATOM     28  O   UNL d   1     -46.907  14.626  23.035  0.00  0.00    -0.304 OA
ATOM     29  C   UNL d   1     -47.248  15.355  23.208  0.00  0.00     0.123 A 
ATOM     30  C   UNL d   1     -47.793  15.540  22.631  0.00  0.00     0.029 A 
ATOM     31  C   UNL d   1     -47.797  14.916  22.084  0.00  0.00     0.028 A 
ENDBRANCH  26  27
ENDBRANCH   5  26
TORSDOF 5
ENDMDL
MODEL 2
REMARK VINA RESULT:      -3.1      1.121      4.487
REMARK  5 active torsions:
REMARK  status: ('A' for Active; 'I' for Inactive)
REMARK    1  A    between atoms: C_11  and  N_5 
REMARK    2  A    between atoms: C_15  and  C_8 
REMARK    3  A    between atoms: C_12  and  C_11 
REMARK    4  A    between atoms: O_20  and  C_15 
REMARK    5  A    between atoms: C_23  and  O_20 
ROOT
ATOM      1  C   UNL d   1     -47.937  13.176  22.903  0.00  0.00     0.130 A 
ATOM      2  C   UNL d   1     -47.993  12.388  23.125  0.00  0.00     0.157 A 
ATOM      3  C   UNL d   1     -47.194  13.535  22.835  0.00  0.00     0.272 A 
ATOM      4  N   UNL d   1     -47.313  11.956  23.280  0.00  0.00    -0.208 NA
ATOM      5  N   UNL d   1     -46.513  13.103  22.990  0.00  0.00    -0.254 N 
ATOM      6  C   UNL d   1     -48.621  13.615  22.746  0.00  0.00     0.204 A 
ATOM      7  N   UNL d   1     -48.740  12.027  23.193  0.00  0.00    -0.289 N 
ATOM      8  C   UNL d   1     -46.569  12.315  23.212  0.00  0.00     0.177 A 
ATOM      9  C   UNL d   1     -49.368  13.255  22.814  0.00  0.00     0.055 A 
ATOM     10  C   UNL d   1     -49.421  12.459  23.039  0.00  0.00     0.069 A 
ATOM     11  O   UNL d   1     -47.130  14.340  22.608  0.00  0.00    -0.266 OA
ATOM     12  O   UNL d   1     -48.562  14.410  22.522  0.00  0.00    -0.286 OA
ATOM     13  C   UNL d   1     -48.799  11.234  23.417  0.00  0.00     0.101 C 
ATOM     14  C   UNL d   1     -50.050  13.690  22.658  0.00  0.00     0.005 A 
ATOM     15  C   UNL d   1     -50.160  12.103  23.106  0.00  0.00     0.018 A 
ATOM     16  C   UNL d   1     -50.789  13.334  22.726  0.00  0.00     0.000 A 
ATOM     17  C   UNL d   1     -50.841  12.534  22.951  0.00  0.00     0.002 A 
ENDROOT
BRANCH   8  18
ATOM     18  C   UNL d   1     -45.875  11.876  23.370  0.00  0.00     0.160 C 
BRANCH  18  19
ATOM     19  O   UNL d   1     -45.931  11.121  23.697  0.00  0.00    -0.302 OA
BRANCH  19  20
ATOM     20  C   UNL d   1     -45.276  10.621  23.687  0.00  0.00     0.100 A 
ATOM     21  C   UNL d   1     -44.521  10.944  23.665  0.00  0.00     0.025 A 
ATOM     22  C   UNL d   1     -43.857  10.447  23.654  0.00  0.00     0.002 A 
ATOM     23  C   UNL d   1     -43.965   9.631  23.665  0.00  0.00     0.000 A 
ATOM     24  C   UNL d   1     -44.725   9.310  23.687  0.00  0.00     0.002 A 
ATOM     25  C   UNL d   1     -45.380   9.805  23.698  0.00  0.00     0.025 A 
ENDBRANCH  19  20
ENDBRANCH  18  19
ENDBRANCH   8  18
BRANCH   5  26
ATOM     26  C   UNL d   1     -45.774  13.460  22.922  0.00  0.00     0.109 C 
BRANCH  26  27
ATOM     27  C   UNL d   1     -45.343  13.386  22.227  0.00  0.00     0.118 A 
ATOM     28  O   UNL d   1     -45.533  13.075  21.487  0.00  0.00    -0.304 OA
ATOM     29  C   UNL d   1     -44.870  13.154  21.005  0.00  0.00     0.123 A 
ATOM     30  C   UNL d   1     -44.270  13.507  21.429  0.00  0.00     0.029 A 
ATOM     31  C   UNL d   1     -44.559  13.654  22.193  0.00  0.00     0.028 A 
ENDBRANCH  26  27
ENDBRANCH   5  26
TORSDOF 5
ENDMDL
MODEL 3
REMARK VINA RESULT:      -2.4      1.191      1.720
REMARK  5 active torsions:
REMARK  status: ('A' for Active; 'I' for Inactive)
REMARK    1  A    between atoms: C_11  and  N_5 
REMARK    2  A    between atoms: C_15  and  C_8 
REMARK    3  A    between atoms: C_12  and  C_11 
REMARK    4  A    between atoms: O_20  and  C_15 
REMARK    5  A    between atoms: C_23  and  O_20 
ROOT
ATOM      1  C   UNL d   1     -46.221  13.606  22.649  0.00  0.00     0.130 A 
ATOM      2  C   UNL d   1     -46.408  12.827  22.827  0.00  0.00     0.157 A 
ATOM      3  C   UNL d   1     -46.781  14.204  22.767  0.00  0.00     0.272 A 
ATOM      4  N   UNL d   1     -47.152  12.641  23.123  0.00  0.00    -0.208 NA
ATOM      5  N   UNL d   1     -47.524  14.019  23.063  0.00  0.00    -0.254 N 
ATOM      6  C   UNL d   1     -45.473  13.797  22.350  0.00  0.00     0.204 A 
ATOM      7  N   UNL d   1     -45.846  12.225  22.708  0.00  0.00    -0.289 N 
ATOM      8  C   UNL d   1     -47.712  13.239  23.241  0.00  0.00     0.177 A 
ATOM      9  C   UNL d   1     -44.910  13.196  22.231  0.00  0.00     0.055 A 
ATOM     10  C   UNL d   1     -45.102  12.411  22.412  0.00  0.00     0.069 A 
ATOM     11  O   UNL d   1     -46.595  15.001  22.586  0.00  0.00    -0.266 OA
ATOM     12  O   UNL d   1     -45.286  14.583  22.171  0.00  0.00    -0.286 OA
ATOM     13  C   UNL d   1     -46.033  11.440  22.887  0.00  0.00     0.101 C 
ATOM     14  C   UNL d   1     -44.164  13.384  21.934  0.00  0.00     0.005 A 
ATOM     15  C   UNL d   1     -44.546  11.816  22.295  0.00  0.00     0.018 A 
ATOM     16  C   UNL d   1     -43.607  12.789  21.816  0.00  0.00     0.000 A 
ATOM     17  C   UNL d   1     -43.802  12.001  21.999  0.00  0.00     0.002 A 
ENDROOT
BRANCH   8  18
ATOM     18  C   UNL d   1     -48.469  13.052  23.542  0.00  0.00     0.160 C 
BRANCH  18  19
ATOM     19  O   UNL d   1     -48.669  12.266  23.692  0.00  0.00    -0.302 OA
BRANCH  19  20
ATOM     20  C   UNL d   1     -49.461  12.039  23.692  0.00  0.00     0.100 A 
ATOM     21  C   UNL d   1     -50.048  12.614  23.686  0.00  0.00     0.025 A 
ATOM     22  C   UNL d   1     -50.846  12.393  23.686  0.00  0.00     0.002 A 
ATOM     23  C   UNL d   1     -51.042  11.594  23.691  0.00  0.00     0.000 A 
ATOM     24  C   UNL d   1     -50.452  11.018  23.696  0.00  0.00     0.002 A 
ATOM     25  C   UNL d   1     -49.661  11.240  23.697  0.00  0.00     0.025 A 
ENDBRANCH  19  20
ENDBRANCH  18  19
ENDBRANCH   8  18
BRANCH   5  26
ATOM     26  C   UNL d   1     -48.081  14.613  23.180  0.00  0.00     0.109 C 
BRANCH  26  27
ATOM     27  C   UNL d   1     -48.533  14.885  22.550  0.00  0.00     0.118 A 
ATOM     28  O   UNL d   1     -48.631  14.611  21.779  0.00  0.00    -0.304 OA
ATOM     29  C   UNL d   1     -49.158  15.116  21.399  0.00  0.00     0.123 A 
ATOM     30  C   UNL d   1     -49.391  15.700  21.917  0.00  0.00     0.029 A 
ATOM     31  C   UNL d   1     -49.004  15.562  22.638  0.00  0.00     0.028 A 
ENDBRANCH  26  27
ENDBRANCH   5  26
TORSDOF 5
ENDMDL
