MODEL 1
REMARK VINA RESULT:      57.8      0.000      0.000
REMARK  10 active torsions:
REMARK  status: ('A' for Active; 'I' for Inactive)
REMARK    1  A    between atoms: C_11  and  S_1 
REMARK    2  A    between atoms: N_12  and  S_1 
REMARK    3  A    between atoms: C_2  and  O_7 
REMARK    4  A    between atoms: C_3  and  S_18 
REMARK    5  A    between atoms: C_6  and  C_17 
REMARK    6  A    between atoms: O_7  and  C_6 
REMARK    7  A    between atoms: C_29  and  N_12 
REMARK    8  A    between atoms: C_30  and  N_12 
REMARK    9  A    between atoms: C_28  and  C_14 
REMARK   10  A    between atoms: S_18  and  C_28 
ROOT
ATOM      1  C   UNL d   1      13.636  13.558  -4.678  0.00  0.00     0.167 A 
ATOM      2  C   UNL d   1      13.710  12.760  -4.900  0.00  0.00     0.222 A 
ATOM      3  C   UNL d   1      13.606  12.178  -4.316  0.00  0.00     0.069 A 
ATOM      4  C   UNL d   1      13.464  13.766  -3.898  0.00  0.00     0.151 A 
ATOM      5  O   UNL d   1      13.363  13.179  -3.330  0.00  0.00    -0.302 OA
ATOM      6  C   UNL d   1      13.433  12.386  -3.536  0.00  0.00     0.110 A 
ATOM      7  O   UNL d   1      13.882  12.554  -5.672  0.00  0.00    -0.284 OA
ENDROOT
BRANCH   1   8
ATOM      8  O   UNL d   1      13.699  14.278  -5.086  0.00  0.00    -0.268 OA
BRANCH   8   9
ATOM      9  C   UNL d   1      13.375  14.965  -4.765  0.00  0.00     0.300 C 
ATOM     10  O   UNL d   1      12.818  14.903  -4.165  0.00  0.00    -0.259 OA
BRANCH   9  11
ATOM     11  C   UNL d   1      13.612  15.700  -5.045  0.00  0.00     0.064 A 
ATOM     12  C   UNL d   1      14.112  16.187  -4.597  0.00  0.00     0.006 A 
ATOM     13  C   UNL d   1      14.339  16.903  -4.878  0.00  0.00     0.013 A 
ATOM     14  C   UNL d   1      14.086  17.166  -5.600  0.00  0.00     0.104 A 
ATOM     15  C   UNL d   1      13.592  16.693  -6.050  0.00  0.00     0.013 A 
ATOM     16  C   UNL d   1      13.352  15.964  -5.782  0.00  0.00     0.006 A 
BRANCH  14  17
ATOM     17  S   UNL d   1      14.320  17.909  -5.892  0.00  0.00     0.271 S 
ATOM     18  O   UNL d   1      14.688  17.346  -6.387  0.00  0.00    -0.200 OA
ATOM     19  O   UNL d   1      14.670  18.510  -6.338  0.00  0.00    -0.200 OA
BRANCH  17  20
ATOM     20  N   UNL d   1      14.062  18.598  -5.537  0.00  0.00    -0.229 N 
BRANCH  20  21
ATOM     21  C   UNL d   1      13.856  19.239  -5.996  0.00  0.00     0.092 C 
ATOM     22  C   UNL d   1      14.273  19.951  -5.934  0.00  0.00     0.021 C 
ENDBRANCH  20  21
BRANCH  20  23
ATOM     23  C   UNL d   1      14.009  18.645  -4.715  0.00  0.00     0.092 C 
ATOM     24  C   UNL d   1      14.685  18.723  -4.262  0.00  0.00     0.021 C 
ENDBRANCH  20  23
ENDBRANCH  17  20
ENDBRANCH  14  17
ENDBRANCH   9  11
ENDBRANCH   8   9
ENDBRANCH   1   8
BRANCH   6  25
ATOM     25  C   UNL d   1      13.332  11.800  -2.965  0.00  0.00     0.063 C 
BRANCH  25  26
ATOM     26  S   UNL d   1      14.051  11.780  -2.553  0.00  0.00    -0.046 SA
BRANCH  26  27
ATOM     27  C   UNL d   1      14.069  11.940  -1.749  0.00  0.00     0.194 A 
ATOM     28  N   UNL d   1      14.749  12.256  -1.411  0.00  0.00    -0.221 NA
ATOM     29  C   UNL d   1      14.770  12.416  -0.612  0.00  0.00     0.085 A 
ATOM     30  C   UNL d   1      15.450  12.733  -0.275  0.00  0.00     0.021 C 
ATOM     31  C   UNL d   1      14.108  12.261  -0.138  0.00  0.00     0.038 A 
ATOM     32  C   UNL d   1      13.431  11.943  -0.490  0.00  0.00     0.085 A 
ATOM     33  N   UNL d   1      13.419  11.786  -1.291  0.00  0.00    -0.221 NA
ATOM     34  C   UNL d   1      12.770  11.788  -0.016  0.00  0.00     0.021 C 
ENDBRANCH  26  27
ENDBRANCH  25  26
ENDBRANCH   6  25
TORSDOF 10
ENDMDL
MODEL 2
REMARK VINA RESULT:      59.0      2.208      2.895
REMARK  10 active torsions:
REMARK  status: ('A' for Active; 'I' for Inactive)
REMARK    1  A    between atoms: C_11  and  S_1 
REMARK    2  A    between atoms: N_12  and  S_1 
REMARK    3  A    between atoms: C_2  and  O_7 
REMARK    4  A    between atoms: C_3  and  S_18 
REMARK    5  A    between atoms: C_6  and  C_17 
REMARK    6  A    between atoms: O_7  and  C_6 
REMARK    7  A    between atoms: C_29  and  N_12 
REMARK    8  A    between atoms: C_30  and  N_12 
REMARK    9  A    between atoms: C_28  and  C_14 
REMARK   10  A    between atoms: S_18  and  C_28 
ROOT
ATOM      1  C   UNL d   1      14.877  16.091  -2.407  0.00  0.00     0.167 A 
ATOM      2  C   UNL d   1      15.051  16.456  -1.680  0.00  0.00     0.222 A 
ATOM      3  C   UNL d   1      15.178  15.973  -1.017  0.00  0.00     0.069 A 
ATOM      4  C   UNL d   1      14.833  15.269  -2.467  0.00  0.00     0.151 A 
ATOM      5  O   UNL d   1      14.962  14.802  -1.802  0.00  0.00    -0.302 OA
ATOM      6  C   UNL d   1      15.134  15.150  -1.077  0.00  0.00     0.110 A 
ATOM      7  O   UNL d   1      15.094  17.271  -1.620  0.00  0.00    -0.284 OA
ENDROOT
BRANCH   1   8
ATOM      8  O   UNL d   1      14.720  16.374  -3.171  0.00  0.00    -0.268 OA
BRANCH   8   9
ATOM      9  C   UNL d   1      15.286  16.819  -3.572  0.00  0.00     0.300 C 
ATOM     10  O   UNL d   1      16.082  16.686  -3.421  0.00  0.00    -0.259 OA
BRANCH   9  11
ATOM     11  C   UNL d   1      15.052  17.388  -4.116  0.00  0.00     0.064 A 
ATOM     12  C   UNL d   1      15.606  17.773  -4.598  0.00  0.00     0.006 A 
ATOM     13  C   UNL d   1      15.368  18.327  -5.127  0.00  0.00     0.013 A 
ATOM     14  C   UNL d   1      14.586  18.523  -5.201  0.00  0.00     0.104 A 
ATOM     15  C   UNL d   1      14.031  18.149  -4.730  0.00  0.00     0.013 A 
ATOM     16  C   UNL d   1      14.254  17.585  -4.189  0.00  0.00     0.006 A 
BRANCH  14  17
ATOM     17  S   UNL d   1      14.339  19.098  -5.749  0.00  0.00     0.271 S 
ATOM     18  O   UNL d   1      13.985  18.383  -5.996  0.00  0.00    -0.200 OA
ATOM     19  O   UNL d   1      13.981  19.481  -6.387  0.00  0.00    -0.200 OA
BRANCH  17  20
ATOM     20  N   UNL d   1      14.583  19.875  -5.679  0.00  0.00    -0.229 N 
BRANCH  20  21
ATOM     21  C   UNL d   1      14.083  20.430  -5.355  0.00  0.00     0.092 C 
ATOM     22  C   UNL d   1      14.267  21.235  -5.396  0.00  0.00     0.021 C 
ENDBRANCH  20  21
BRANCH  20  23
ATOM     23  C   UNL d   1      15.335  20.097  -5.937  0.00  0.00     0.092 C 
ATOM     24  C   UNL d   1      15.568  20.880  -5.906  0.00  0.00     0.021 C 
ENDBRANCH  20  23
ENDBRANCH  17  20
ENDBRANCH  14  17
ENDBRANCH   9  11
ENDBRANCH   8   9
ENDBRANCH   1   8
BRANCH   6  25
ATOM     25  C   UNL d   1      15.263  14.680  -0.412  0.00  0.00     0.063 C 
BRANCH  25  26
ATOM     26  S   UNL d   1      14.550  14.273  -0.301  0.00  0.00    -0.046 SA
BRANCH  26  27
ATOM     27  C   UNL d   1      14.551  13.458  -0.205  0.00  0.00     0.194 A 
ATOM     28  N   UNL d   1      13.837  13.052  -0.158  0.00  0.00    -0.221 NA
ATOM     29  C   UNL d   1      13.836  12.242  -0.063  0.00  0.00     0.085 A 
ATOM     30  C   UNL d   1      13.122  11.836  -0.016  0.00  0.00     0.021 C 
ATOM     31  C   UNL d   1      14.551  11.827  -0.014  0.00  0.00     0.038 A 
ATOM     32  C   UNL d   1      15.261  12.247  -0.063  0.00  0.00     0.085 A 
ATOM     33  N   UNL d   1      15.254  13.059  -0.158  0.00  0.00    -0.221 NA
ATOM     34  C   UNL d   1      15.976  11.831  -0.014  0.00  0.00     0.021 C 
ENDBRANCH  26  27
ENDBRANCH  25  26
ENDBRANCH   6  25
TORSDOF 10
ENDMDL
