MODEL 1
REMARK VINA RESULT:      19.0      0.000      0.000
REMARK  1 active torsions:
REMARK  status: ('A' for Active; 'I' for Inactive)
REMARK       I    between atoms: N_4  and  C_1 
REMARK    1  A    between atoms: C_9  and  N_4 
ROOT
ATOM      1  C   UNL d   1     -56.150 -98.800 -44.274  0.00  0.00     0.121 A 
ATOM      2  C   UNL d   1     -56.922 -98.780 -43.989  0.00  0.00     0.046 A 
ATOM      3  C   UNL d   1     -56.014 -98.836 -45.086  0.00  0.00     0.119 A 
ATOM      4  O   UNL d   1     -55.419 -98.791 -43.897  0.00  0.00    -0.299 OA
ATOM      5  O   UNL d   1     -55.194 -98.850 -45.207  0.00  0.00    -0.300 OA
ATOM      6  C   UNL d   1     -57.564 -98.795 -44.520  0.00  0.00     0.102 A 
ATOM      7  C   UNL d   1     -54.829 -98.822 -44.479  0.00  0.00     0.304 A 
ATOM      8  C   UNL d   1     -56.649 -98.851 -45.612  0.00  0.00     0.028 A 
ATOM      9  C   UNL d   1     -57.428 -98.831 -45.331  0.00  0.00     0.022 A 
ENDROOT
BRANCH   6  10
ATOM     10  N   UNL d   1     -58.347 -98.775 -44.228  0.00  0.00    -0.056 NA
ATOM     11  C   UNL d   1     -58.991 -98.787 -44.753  0.00  0.00     0.787 C 
ATOM     12  N   UNL d   1     -59.761 -98.766 -44.463  0.00  0.00     0.064 N 
ATOM     13  N   UNL d   1     -58.860 -98.819 -45.566  0.00  0.00     0.064 N 
ENDBRANCH   6  10
TORSDOF 1
ENDMDL
