MODEL 1
REMARK VINA RESULT:      -7.9      0.000      0.000
REMARK  5 active torsions:
REMARK  status: ('A' for Active; 'I' for Inactive)
REMARK    1  A    between atoms: C_7  and  N_2 
REMARK    2  A    between atoms: C_8  and  C_7 
REMARK    3  A    between atoms: C_13  and  C_8 
REMARK    4  A    between atoms: C_9  and  O_11 
REMARK    5  A    between atoms: O_11  and  C_13 
ROOT
ATOM      1  C   UNL d   1      53.111  35.092  54.422  0.00  0.00     0.378 A 
ATOM      2  N   UNL d   1      52.926  34.469  53.904  0.00  0.00    -0.251 N 
ATOM      3  O   UNL d   1      53.674  34.821  54.956  0.00  0.00    -0.258 OA
ATOM      4  C   UNL d   1      53.384  33.812  54.130  0.00  0.00     0.092 A 
ATOM      5  C   UNL d   1      53.844  34.031  54.779  0.00  0.00     0.121 A 
ATOM      6  O   UNL d   1      52.783  35.846  54.396  0.00  0.00    -0.237 OA
ATOM      7  C   UNL d   1      53.431  33.050  53.820  0.00  0.00     0.020 A 
ATOM      8  C   UNL d   1      54.362  33.478  55.125  0.00  0.00     0.026 A 
ATOM      9  C   UNL d   1      53.947  32.501  54.166  0.00  0.00     0.002 A 
ATOM     10  C   UNL d   1      54.412  32.715  54.818  0.00  0.00     0.002 A 
ENDROOT
BRANCH   2  11
ATOM     11  C   UNL d   1      52.391  34.497  53.287  0.00  0.00     0.087 C 
BRANCH  11  12
ATOM     12  C   UNL d   1      51.582  34.493  53.430  0.00  0.00     0.046 C 
BRANCH  12  13
ATOM     13  C   UNL d   1      51.050  34.521  52.813  0.00  0.00     0.124 C 
BRANCH  13  14
ATOM     14  O   UNL d   1      50.271  34.276  52.917  0.00  0.00    -0.305 OA
BRANCH  14  15
ATOM     15  C   UNL d   1      49.674  34.534  52.405  0.00  0.00     0.100 A 
ATOM     16  C   UNL d   1      49.665  34.282  51.627  0.00  0.00     0.025 A 
ATOM     17  C   UNL d   1      49.068  34.539  51.115  0.00  0.00     0.002 A 
ATOM     18  C   UNL d   1      48.487  35.047  51.392  0.00  0.00     0.000 A 
ATOM     19  C   UNL d   1      48.497  35.301  52.179  0.00  0.00     0.002 A 
ATOM     20  C   UNL d   1      49.094  35.044  52.691  0.00  0.00     0.025 A 
ENDBRANCH  14  15
ENDBRANCH  13  14
ENDBRANCH  12  13
ENDBRANCH  11  12
ENDBRANCH   2  11
TORSDOF 5
ENDMDL
MODEL 2
REMARK VINA RESULT:      -7.6      2.118      4.242
REMARK  5 active torsions:
REMARK  status: ('A' for Active; 'I' for Inactive)
REMARK    1  A    between atoms: C_7  and  N_2 
REMARK    2  A    between atoms: C_8  and  C_7 
REMARK    3  A    between atoms: C_13  and  C_8 
REMARK    4  A    between atoms: C_9  and  O_11 
REMARK    5  A    between atoms: O_11  and  C_13 
ROOT
ATOM      1  C   UNL d   1      51.928  34.348  52.679  0.00  0.00     0.378 A 
ATOM      2  N   UNL d   1      52.127  33.786  53.257  0.00  0.00    -0.251 N 
ATOM      3  O   UNL d   1      52.250  35.071  52.904  0.00  0.00    -0.258 OA
ATOM      4  C   UNL d   1      52.575  34.175  53.840  0.00  0.00     0.092 A 
ATOM      5  C   UNL d   1      52.650  34.967  53.620  0.00  0.00     0.121 A 
ATOM      6  O   UNL d   1      51.485  34.199  52.001  0.00  0.00    -0.237 OA
ATOM      7  C   UNL d   1      52.919  33.899  54.536  0.00  0.00     0.020 A 
ATOM      8  C   UNL d   1      53.075  35.493  54.105  0.00  0.00     0.026 A 
ATOM      9  C   UNL d   1      53.342  34.425  55.018  0.00  0.00     0.002 A 
ATOM     10  C   UNL d   1      53.420  35.221  54.803  0.00  0.00     0.002 A 
ENDROOT
BRANCH   2  11
ATOM     11  C   UNL d   1      51.919  32.996  53.253  0.00  0.00     0.087 C 
BRANCH  11  12
ATOM     12  C   UNL d   1      52.343  32.452  52.805  0.00  0.00     0.046 C 
BRANCH  12  13
ATOM     13  C   UNL d   1      52.244  31.650  52.921  0.00  0.00     0.124 C 
BRANCH  13  14
ATOM     14  O   UNL d   1      52.827  31.117  52.693  0.00  0.00    -0.305 OA
BRANCH  14  15
ATOM     15  C   UNL d   1      52.988  30.445  53.148  0.00  0.00     0.100 A 
ATOM     16  C   UNL d   1      52.442  29.837  53.186  0.00  0.00     0.025 A 
ATOM     17  C   UNL d   1      52.603  29.164  53.641  0.00  0.00     0.002 A 
ATOM     18  C   UNL d   1      53.310  29.111  54.051  0.00  0.00     0.000 A 
ATOM     19  C   UNL d   1      53.862  29.727  54.012  0.00  0.00     0.002 A 
ATOM     20  C   UNL d   1      53.701  30.399  53.557  0.00  0.00     0.025 A 
ENDBRANCH  14  15
ENDBRANCH  13  14
ENDBRANCH  12  13
ENDBRANCH  11  12
ENDBRANCH   2  11
TORSDOF 5
ENDMDL
MODEL 3
REMARK VINA RESULT:      -7.4      1.076      1.532
REMARK  5 active torsions:
REMARK  status: ('A' for Active; 'I' for Inactive)
REMARK    1  A    between atoms: C_7  and  N_2 
REMARK    2  A    between atoms: C_8  and  C_7 
REMARK    3  A    between atoms: C_13  and  C_8 
REMARK    4  A    between atoms: C_9  and  O_11 
REMARK    5  A    between atoms: O_11  and  C_13 
ROOT
ATOM      1  C   UNL d   1      53.225  33.679  53.711  0.00  0.00     0.378 A 
ATOM      2  N   UNL d   1      52.703  33.292  53.192  0.00  0.00    -0.251 N 
ATOM      3  O   UNL d   1      53.715  33.112  54.048  0.00  0.00    -0.258 OA
ATOM      4  C   UNL d   1      52.882  32.481  53.217  0.00  0.00     0.092 A 
ATOM      5  C   UNL d   1      53.506  32.371  53.745  0.00  0.00     0.121 A 
ATOM      6  O   UNL d   1      53.240  34.489  53.856  0.00  0.00    -0.237 OA
ATOM      7  C   UNL d   1      52.550  31.838  52.822  0.00  0.00     0.020 A 
ATOM      8  C   UNL d   1      53.804  31.606  53.882  0.00  0.00     0.026 A 
ATOM      9  C   UNL d   1      52.848  31.076  52.959  0.00  0.00     0.002 A 
ATOM     10  C   UNL d   1      53.474  30.961  53.489  0.00  0.00     0.002 A 
ENDROOT
BRANCH   2  11
ATOM     11  C   UNL d   1      52.122  33.647  52.741  0.00  0.00     0.087 C 
BRANCH  11  12
ATOM     12  C   UNL d   1      51.473  34.005  53.096  0.00  0.00     0.046 C 
BRANCH  12  13
ATOM     13  C   UNL d   1      50.843  34.265  52.647  0.00  0.00     0.124 C 
BRANCH  13  14
ATOM     14  O   UNL d   1      50.100  34.367  52.985  0.00  0.00    -0.305 OA
BRANCH  14  15
ATOM     15  C   UNL d   1      49.475  34.686  52.546  0.00  0.00     0.100 A 
ATOM     16  C   UNL d   1      48.997  35.262  52.875  0.00  0.00     0.025 A 
ATOM     17  C   UNL d   1      48.372  35.582  52.436  0.00  0.00     0.002 A 
ATOM     18  C   UNL d   1      48.237  35.318  51.672  0.00  0.00     0.000 A 
ATOM     19  C   UNL d   1      48.722  34.736  51.339  0.00  0.00     0.002 A 
ATOM     20  C   UNL d   1      49.346  34.417  51.778  0.00  0.00     0.025 A 
ENDBRANCH  14  15
ENDBRANCH  13  14
ENDBRANCH  12  13
ENDBRANCH  11  12
ENDBRANCH   2  11
TORSDOF 5
ENDMDL
MODEL 4
REMARK VINA RESULT:      -7.3      2.349      4.320
REMARK  5 active torsions:
REMARK  status: ('A' for Active; 'I' for Inactive)
REMARK    1  A    between atoms: C_7  and  N_2 
REMARK    2  A    between atoms: C_8  and  C_7 
REMARK    3  A    between atoms: C_13  and  C_8 
REMARK    4  A    between atoms: C_9  and  O_11 
REMARK    5  A    between atoms: O_11  and  C_13 
ROOT
ATOM      1  C   UNL d   1      54.439  34.115  54.988  0.00  0.00     0.378 A 
ATOM      2  N   UNL d   1      54.068  33.754  54.338  0.00  0.00    -0.251 N 
ATOM      3  O   UNL d   1      54.046  34.820  55.147  0.00  0.00    -0.258 OA
ATOM      4  C   UNL d   1      53.443  34.249  54.101  0.00  0.00     0.092 A 
ATOM      5  C   UNL d   1      53.431  34.905  54.601  0.00  0.00     0.121 A 
ATOM      6  O   UNL d   1      55.086  33.813  55.397  0.00  0.00    -0.237 OA
ATOM      7  C   UNL d   1      52.891  34.174  53.493  0.00  0.00     0.020 A 
ATOM      8  C   UNL d   1      52.857  35.498  54.492  0.00  0.00     0.026 A 
ATOM      9  C   UNL d   1      52.320  34.766  53.387  0.00  0.00     0.002 A 
ATOM     10  C   UNL d   1      52.303  35.427  53.885  0.00  0.00     0.002 A 
ENDROOT
BRANCH   2  11
ATOM     11  C   UNL d   1      54.281  33.044  53.995  0.00  0.00     0.087 C 
BRANCH  11  12
ATOM     12  C   UNL d   1      54.117  32.330  54.369  0.00  0.00     0.046 C 
BRANCH  12  13
ATOM     13  C   UNL d   1      53.975  31.655  53.934  0.00  0.00     0.124 C 
BRANCH  13  14
ATOM     14  O   UNL d   1      53.790  30.946  54.306  0.00  0.00    -0.305 OA
BRANCH  14  15
ATOM     15  C   UNL d   1      53.387  30.347  53.902  0.00  0.00     0.100 A 
ATOM     16  C   UNL d   1      53.033  30.507  53.182  0.00  0.00     0.025 A 
ATOM     17  C   UNL d   1      52.630  29.907  52.777  0.00  0.00     0.002 A 
ATOM     18  C   UNL d   1      52.588  29.156  53.101  0.00  0.00     0.000 A 
ATOM     19  C   UNL d   1      52.946  28.995  53.830  0.00  0.00     0.002 A 
ATOM     20  C   UNL d   1      53.349  29.594  54.234  0.00  0.00     0.025 A 
ENDBRANCH  14  15
ENDBRANCH  13  14
ENDBRANCH  12  13
ENDBRANCH  11  12
ENDBRANCH   2  11
TORSDOF 5
ENDMDL
MODEL 5
REMARK VINA RESULT:      -6.7      1.637      5.272
REMARK  5 active torsions:
REMARK  status: ('A' for Active; 'I' for Inactive)
REMARK    1  A    between atoms: C_7  and  N_2 
REMARK    2  A    between atoms: C_8  and  C_7 
REMARK    3  A    between atoms: C_13  and  C_8 
REMARK    4  A    between atoms: C_9  and  O_11 
REMARK    5  A    between atoms: O_11  and  C_13 
ROOT
ATOM      1  C   UNL d   1      48.575  34.834  51.393  0.00  0.00     0.378 A 
ATOM      2  N   UNL d   1      48.822  34.901  52.184  0.00  0.00    -0.251 N 
ATOM      3  O   UNL d   1      47.976  35.383  51.265  0.00  0.00    -0.258 OA
ATOM      4  C   UNL d   1      48.364  35.499  52.538  0.00  0.00     0.092 A 
ATOM      5  C   UNL d   1      47.843  35.794  51.970  0.00  0.00     0.121 A 
ATOM      6  O   UNL d   1      48.883  34.308  50.841  0.00  0.00    -0.237 OA
ATOM      7  C   UNL d   1      48.365  35.802  53.305  0.00  0.00     0.020 A 
ATOM      8  C   UNL d   1      47.313  36.404  52.171  0.00  0.00     0.026 A 
ATOM      9  C   UNL d   1      47.836  36.409  53.503  0.00  0.00     0.002 A 
ATOM     10  C   UNL d   1      47.311  36.709  52.937  0.00  0.00     0.002 A 
ENDROOT
BRANCH   2  11
ATOM     11  C   UNL d   1      49.407  34.460  52.546  0.00  0.00     0.087 C 
BRANCH  11  12
ATOM     12  C   UNL d   1      50.181  34.482  52.271  0.00  0.00     0.046 C 
BRANCH  12  13
ATOM     13  C   UNL d   1      50.784  34.135  52.697  0.00  0.00     0.124 C 
BRANCH  13  14
ATOM     14  O   UNL d   1      51.568  34.225  52.467  0.00  0.00    -0.305 OA
BRANCH  14  15
ATOM     15  C   UNL d   1      52.184  33.934  52.937  0.00  0.00     0.100 A 
ATOM     16  C   UNL d   1      52.368  33.138  52.924  0.00  0.00     0.025 A 
ATOM     17  C   UNL d   1      52.984  32.847  53.394  0.00  0.00     0.002 A 
ATOM     18  C   UNL d   1      53.407  33.362  53.871  0.00  0.00     0.000 A 
ATOM     19  C   UNL d   1      53.221  34.167  53.884  0.00  0.00     0.002 A 
ATOM     20  C   UNL d   1      52.605  34.458  53.414  0.00  0.00     0.025 A 
ENDBRANCH  14  15
ENDBRANCH  13  14
ENDBRANCH  12  13
ENDBRANCH  11  12
ENDBRANCH   2  11
TORSDOF 5
ENDMDL
MODEL 6
REMARK VINA RESULT:      -6.4      2.730      4.352
REMARK  5 active torsions:
REMARK  status: ('A' for Active; 'I' for Inactive)
REMARK    1  A    between atoms: C_7  and  N_2 
REMARK    2  A    between atoms: C_8  and  C_7 
REMARK    3  A    between atoms: C_13  and  C_8 
REMARK    4  A    between atoms: C_9  and  O_11 
REMARK    5  A    between atoms: O_11  and  C_13 
ROOT
ATOM      1  C   UNL d   1      52.932  30.309  52.753  0.00  0.00     0.378 A 
ATOM      2  N   UNL d   1      53.290  30.624  53.434  0.00  0.00    -0.251 N 
ATOM      3  O   UNL d   1      52.750  29.521  52.902  0.00  0.00    -0.258 OA
ATOM      4  C   UNL d   1      53.323  30.017  54.002  0.00  0.00     0.092 A 
ATOM      5  C   UNL d   1      52.990  29.338  53.672  0.00  0.00     0.121 A 
ATOM      6  O   UNL d   1      52.789  30.721  52.056  0.00  0.00    -0.237 OA
ATOM      7  C   UNL d   1      53.617  30.008  54.772  0.00  0.00     0.020 A 
ATOM      8  C   UNL d   1      52.949  28.637  54.119  0.00  0.00     0.026 A 
ATOM      9  C   UNL d   1      53.575  29.309  55.216  0.00  0.00     0.002 A 
ATOM     10  C   UNL d   1      53.242  28.625  54.890  0.00  0.00     0.002 A 
ENDROOT
BRANCH   2  11
ATOM     11  C   UNL d   1      53.558  31.390  53.527  0.00  0.00     0.087 C 
BRANCH  11  12
ATOM     12  C   UNL d   1      53.046  32.028  53.448  0.00  0.00     0.046 C 
BRANCH  12  13
ATOM     13  C   UNL d   1      53.268  32.773  53.695  0.00  0.00     0.124 C 
BRANCH  13  14
ATOM     14  O   UNL d   1      52.753  33.243  54.131  0.00  0.00    -0.305 OA
BRANCH  14  15
ATOM     15  C   UNL d   1      52.879  34.057  54.202  0.00  0.00     0.100 A 
ATOM     16  C   UNL d   1      52.716  34.553  53.573  0.00  0.00     0.025 A 
ATOM     17  C   UNL d   1      52.842  35.368  53.644  0.00  0.00     0.002 A 
ATOM     18  C   UNL d   1      53.130  35.674  54.347  0.00  0.00     0.000 A 
ATOM     19  C   UNL d   1      53.295  35.172  54.984  0.00  0.00     0.002 A 
ATOM     20  C   UNL d   1      53.169  34.357  54.913  0.00  0.00     0.025 A 
ENDBRANCH  14  15
ENDBRANCH  13  14
ENDBRANCH  12  13
ENDBRANCH  11  12
ENDBRANCH   2  11
TORSDOF 5
ENDMDL
MODEL 7
REMARK VINA RESULT:      -5.4     10.345     10.918
REMARK  5 active torsions:
REMARK  status: ('A' for Active; 'I' for Inactive)
REMARK    1  A    between atoms: C_7  and  N_2 
REMARK    2  A    between atoms: C_8  and  C_7 
REMARK    3  A    between atoms: C_13  and  C_8 
REMARK    4  A    between atoms: C_9  and  O_11 
REMARK    5  A    between atoms: O_11  and  C_13 
ROOT
ATOM      1  C   UNL d   1      44.659  30.704  61.491  0.00  0.00     0.378 A 
ATOM      2  N   UNL d   1      44.504  29.994  61.089  0.00  0.00    -0.251 N 
ATOM      3  O   UNL d   1      44.814  30.523  62.278  0.00  0.00    -0.258 OA
ATOM      4  C   UNL d   1      44.566  29.376  61.642  0.00  0.00     0.092 A 
ATOM      5  C   UNL d   1      44.757  29.704  62.374  0.00  0.00     0.121 A 
ATOM      6  O   UNL d   1      44.656  31.454  61.153  0.00  0.00    -0.237 OA
ATOM      7  C   UNL d   1      44.471  28.561  61.559  0.00  0.00     0.020 A 
ATOM      8  C   UNL d   1      44.856  29.209  63.037  0.00  0.00     0.026 A 
ATOM      9  C   UNL d   1      44.569  28.070  62.220  0.00  0.00     0.002 A 
ATOM     10  C   UNL d   1      44.761  28.394  62.958  0.00  0.00     0.002 A 
ENDROOT
BRANCH   2  11
ATOM     11  C   UNL d   1      44.323  29.919  60.296  0.00  0.00     0.087 C 
BRANCH  11  12
ATOM     12  C   UNL d   1      44.881  30.092  59.718  0.00  0.00     0.046 C 
BRANCH  12  13
ATOM     13  C   UNL d   1      44.675  30.105  58.929  0.00  0.00     0.124 C 
BRANCH  13  14
ATOM     14  O   UNL d   1      45.200  29.846  58.352  0.00  0.00    -0.305 OA
BRANCH  14  15
ATOM     15  C   UNL d   1      44.974  29.814  57.557  0.00  0.00     0.100 A 
ATOM     16  C   UNL d   1      44.726  30.493  57.175  0.00  0.00     0.025 A 
ATOM     17  C   UNL d   1      44.500  30.461  56.379  0.00  0.00     0.002 A 
ATOM     18  C   UNL d   1      44.527  29.747  55.978  0.00  0.00     0.000 A 
ATOM     19  C   UNL d   1      44.778  29.061  56.365  0.00  0.00     0.002 A 
ATOM     20  C   UNL d   1      45.004  29.092  57.161  0.00  0.00     0.025 A 
ENDBRANCH  14  15
ENDBRANCH  13  14
ENDBRANCH  12  13
ENDBRANCH  11  12
ENDBRANCH   2  11
TORSDOF 5
ENDMDL
MODEL 8
REMARK VINA RESULT:      -5.3     10.417     11.131
REMARK  5 active torsions:
REMARK  status: ('A' for Active; 'I' for Inactive)
REMARK    1  A    between atoms: C_7  and  N_2 
REMARK    2  A    between atoms: C_8  and  C_7 
REMARK    3  A    between atoms: C_13  and  C_8 
REMARK    4  A    between atoms: C_9  and  O_11 
REMARK    5  A    between atoms: O_11  and  C_13 
ROOT
ATOM      1  C   UNL d   1      44.547  31.031  60.168  0.00  0.00     0.378 A 
ATOM      2  N   UNL d   1      44.427  30.231  60.359  0.00  0.00    -0.251 N 
ATOM      3  O   UNL d   1      44.634  31.451  60.870  0.00  0.00    -0.258 OA
ATOM      4  C   UNL d   1      44.442  30.168  61.188  0.00  0.00     0.092 A 
ATOM      5  C   UNL d   1      44.570  30.920  61.501  0.00  0.00     0.121 A 
ATOM      6  O   UNL d   1      44.572  31.341  59.406  0.00  0.00    -0.237 OA
ATOM      7  C   UNL d   1      44.355  29.516  61.685  0.00  0.00     0.020 A 
ATOM      8  C   UNL d   1      44.611  31.025  62.326  0.00  0.00     0.026 A 
ATOM      9  C   UNL d   1      44.397  29.622  62.507  0.00  0.00     0.002 A 
ATOM     10  C   UNL d   1      44.525  30.375  62.826  0.00  0.00     0.002 A 
ENDROOT
BRANCH   2  11
ATOM     11  C   UNL d   1      44.315  29.620  59.828  0.00  0.00     0.087 C 
BRANCH  11  12
ATOM     12  C   UNL d   1      44.921  29.381  59.327  0.00  0.00     0.046 C 
BRANCH  12  13
ATOM     13  C   UNL d   1      44.812  28.763  58.806  0.00  0.00     0.124 C 
BRANCH  13  14
ATOM     14  O   UNL d   1      45.452  28.417  58.424  0.00  0.00    -0.305 OA
BRANCH  14  15
ATOM     15  C   UNL d   1      45.340  27.805  57.878  0.00  0.00     0.100 A 
ATOM     16  C   UNL d   1      45.197  27.979  57.092  0.00  0.00     0.025 A 
ATOM     17  C   UNL d   1      45.084  27.367  56.546  0.00  0.00     0.002 A 
ATOM     18  C   UNL d   1      45.117  26.588  56.798  0.00  0.00     0.000 A 
ATOM     19  C   UNL d   1      45.262  26.412  57.594  0.00  0.00     0.002 A 
ATOM     20  C   UNL d   1      45.374  27.024  58.139  0.00  0.00     0.025 A 
ENDBRANCH  14  15
ENDBRANCH  13  14
ENDBRANCH  12  13
ENDBRANCH  11  12
ENDBRANCH   2  11
TORSDOF 5
ENDMDL
