MODEL 1
REMARK VINA RESULT:      -5.5      0.000      0.000
REMARK  2 active torsions:
REMARK  status: ('A' for Active; 'I' for Inactive)
REMARK    1  A    between atoms: C_10  and  N_1 
REMARK    2  A    between atoms: C_6  and  C_7 
ROOT
ATOM      1  N   UNL d   1     -41.456-122.967 -52.535  0.00  0.00    -0.288 N 
ATOM      2  C   UNL d   1     -41.123-123.700 -52.733  0.00  0.00     0.183 A 
ATOM      3  N   UNL d   1     -41.142-123.778 -53.562  0.00  0.00    -0.224 NA
ATOM      4  C   UNL d   1     -41.682-122.592 -53.238  0.00  0.00     0.083 A 
ATOM      5  C   UNL d   1     -41.489-123.089 -53.868  0.00  0.00     0.099 A 
ATOM      6  C   UNL d   1     -42.008-122.126 -54.787  0.00  0.00     0.066 A 
ATOM      7  C   UNL d   1     -41.654-122.854 -54.644  0.00  0.00     0.027 A 
ATOM      8  C   UNL d   1     -42.038-121.860 -53.384  0.00  0.00     0.019 A 
ATOM      9  C   UNL d   1     -42.201-121.629 -54.157  0.00  0.00     0.008 A 
ENDROOT
BRANCH   1  10
ATOM     10  C   UNL d   1     -41.547-122.667 -51.779  0.00  0.00     0.066 A 
ATOM     11  C   UNL d   1     -41.123-121.996 -51.547  0.00  0.00     0.018 A 
ATOM     12  C   UNL d   1     -41.209-121.692 -50.795  0.00  0.00     0.002 A 
ATOM     13  C   UNL d   1     -41.726-122.053 -50.251  0.00  0.00     0.000 A 
ATOM     14  C   UNL d   1     -42.149-122.720 -50.483  0.00  0.00     0.002 A 
ATOM     15  C   UNL d   1     -42.060-123.029 -51.248  0.00  0.00     0.018 A 
ENDBRANCH   1  10
BRANCH   6  16
ATOM     16  C   UNL d   1     -42.171-121.893 -55.560  0.00  0.00     0.211 C 
ATOM     17  O   UNL d   1     -42.930-121.990 -55.869  0.00  0.00    -0.644 OA
ATOM     18  O   UNL d   1     -41.574-121.561 -56.031  0.00  0.00    -0.644 OA
ENDBRANCH   6  16
TORSDOF 2
ENDMDL
MODEL 2
REMARK VINA RESULT:      -4.8      1.402      2.254
REMARK  2 active torsions:
REMARK  status: ('A' for Active; 'I' for Inactive)
REMARK    1  A    between atoms: C_10  and  N_1 
REMARK    2  A    between atoms: C_6  and  C_7 
ROOT
ATOM      1  N   UNL d   1     -41.771-122.294 -50.820  0.00  0.00    -0.288 N 
ATOM      2  C   UNL d   1     -41.576-121.488 -50.840  0.00  0.00     0.183 A 
ATOM      3  N   UNL d   1     -41.350-121.296 -51.619  0.00  0.00    -0.224 NA
ATOM      4  C   UNL d   1     -41.666-122.599 -51.583  0.00  0.00     0.083 A 
ATOM      5  C   UNL d   1     -41.408-121.987 -52.073  0.00  0.00     0.099 A 
ATOM      6  C   UNL d   1     -41.365-122.890 -53.179  0.00  0.00     0.066 A 
ATOM      7  C   UNL d   1     -41.258-122.135 -52.872  0.00  0.00     0.027 A 
ATOM      8  C   UNL d   1     -41.774-123.359 -51.894  0.00  0.00     0.019 A 
ATOM      9  C   UNL d   1     -41.623-123.502 -52.690  0.00  0.00     0.008 A 
ENDROOT
BRANCH   1  10
ATOM     10  C   UNL d   1     -42.023-122.714 -50.165  0.00  0.00     0.066 A 
ATOM     11  C   UNL d   1     -42.816-122.683 -49.933  0.00  0.00     0.018 A 
ATOM     12  C   UNL d   1     -43.072-123.100 -49.280  0.00  0.00     0.002 A 
ATOM     13  C   UNL d   1     -42.538-123.562 -48.838  0.00  0.00     0.000 A 
ATOM     14  C   UNL d   1     -41.749-123.592 -49.070  0.00  0.00     0.002 A 
ATOM     15  C   UNL d   1     -41.489-123.168 -49.734  0.00  0.00     0.018 A 
ENDBRANCH   1  10
BRANCH   6  16
ATOM     16  C   UNL d   1     -41.214-123.035 -53.976  0.00  0.00     0.211 C 
ATOM     17  O   UNL d   1     -41.123-123.810 -54.244  0.00  0.00    -0.644 OA
ATOM     18  O   UNL d   1     -41.154-122.404 -54.512  0.00  0.00    -0.644 OA
ENDBRANCH   6  16
TORSDOF 2
ENDMDL
MODEL 3
REMARK VINA RESULT:      -4.8      2.004      3.634
REMARK  2 active torsions:
REMARK  status: ('A' for Active; 'I' for Inactive)
REMARK    1  A    between atoms: C_10  and  N_1 
REMARK    2  A    between atoms: C_6  and  C_7 
ROOT
ATOM      1  N   UNL d   1     -41.557-122.856 -53.920  0.00  0.00    -0.288 N 
ATOM      2  C   UNL d   1     -41.322-123.651 -53.874  0.00  0.00     0.183 A 
ATOM      3  N   UNL d   1     -41.124-123.817 -53.082  0.00  0.00    -0.224 NA
ATOM      4  C   UNL d   1     -41.503-122.532 -53.159  0.00  0.00     0.083 A 
ATOM      5  C   UNL d   1     -41.238-123.121 -52.646  0.00  0.00     0.099 A 
ATOM      6  C   UNL d   1     -41.291-122.196 -51.557  0.00  0.00     0.066 A 
ATOM      7  C   UNL d   1     -41.132-122.951 -51.843  0.00  0.00     0.027 A 
ATOM      8  C   UNL d   1     -41.663-121.773 -52.870  0.00  0.00     0.019 A 
ATOM      9  C   UNL d   1     -41.557-121.608 -52.071  0.00  0.00     0.008 A 
ENDROOT
BRANCH   1  10
ATOM     10  C   UNL d   1     -41.798-122.462 -54.595  0.00  0.00     0.066 A 
ATOM     11  C   UNL d   1     -41.236-122.175 -55.129  0.00  0.00     0.018 A 
ATOM     12  C   UNL d   1     -41.471-121.781 -55.804  0.00  0.00     0.002 A 
ATOM     13  C   UNL d   1     -42.279-121.663 -55.964  0.00  0.00     0.000 A 
ATOM     14  C   UNL d   1     -42.838-121.949 -55.431  0.00  0.00     0.002 A 
ATOM     15  C   UNL d   1     -42.599-122.349 -54.745  0.00  0.00     0.018 A 
ENDBRANCH   1  10
BRANCH   6  16
ATOM     16  C   UNL d   1     -41.186-122.029 -50.758  0.00  0.00     0.211 C 
ATOM     17  O   UNL d   1     -41.139-122.644 -50.210  0.00  0.00    -0.644 OA
ATOM     18  O   UNL d   1     -41.125-121.242 -50.500  0.00  0.00    -0.644 OA
ENDBRANCH   6  16
TORSDOF 2
ENDMDL
MODEL 4
REMARK VINA RESULT:      -4.3      2.429      3.997
REMARK  2 active torsions:
REMARK  status: ('A' for Active; 'I' for Inactive)
REMARK    1  A    between atoms: C_10  and  N_1 
REMARK    2  A    between atoms: C_6  and  C_7 
ROOT
ATOM      1  N   UNL d   1     -41.464-121.999 -52.640  0.00  0.00    -0.288 N 
ATOM      2  C   UNL d   1     -41.214-121.241 -52.415  0.00  0.00     0.183 A 
ATOM      3  N   UNL d   1     -41.165-121.221 -51.583  0.00  0.00    -0.224 NA
ATOM      4  C   UNL d   1     -41.570-122.446 -51.951  0.00  0.00     0.083 A 
ATOM      5  C   UNL d   1     -41.387-121.969 -51.303  0.00  0.00     0.099 A 
ATOM      6  C   UNL d   1     -41.684-123.053 -50.421  0.00  0.00     0.066 A 
ATOM      7  C   UNL d   1     -41.444-122.275 -50.537  0.00  0.00     0.027 A 
ATOM      8  C   UNL d   1     -41.811-123.229 -51.832  0.00  0.00     0.019 A 
ATOM      9  C   UNL d   1     -41.867-123.530 -51.068  0.00  0.00     0.008 A 
ENDROOT
BRANCH   1  10
ATOM     10  C   UNL d   1     -41.585-122.260 -53.406  0.00  0.00     0.066 A 
ATOM     11  C   UNL d   1     -42.174-121.914 -53.872  0.00  0.00     0.018 A 
ATOM     12  C   UNL d   1     -42.300-122.170 -54.637  0.00  0.00     0.002 A 
ATOM     13  C   UNL d   1     -41.836-122.783 -54.958  0.00  0.00     0.000 A 
ATOM     14  C   UNL d   1     -41.250-123.126 -54.493  0.00  0.00     0.002 A 
ATOM     15  C   UNL d   1     -41.122-122.865 -53.716  0.00  0.00     0.018 A 
ENDBRANCH   1  10
BRANCH   6  16
ATOM     16  C   UNL d   1     -41.741-123.356 -49.657  0.00  0.00     0.211 C 
ATOM     17  O   UNL d   1     -42.410-123.201 -49.200  0.00  0.00    -0.644 OA
ATOM     18  O   UNL d   1     -41.125-123.817 -49.343  0.00  0.00    -0.644 OA
ENDBRANCH   6  16
TORSDOF 2
ENDMDL
