MODEL 1
REMARK VINA RESULT:      -7.6      0.000      0.000
REMARK  2 active torsions:
REMARK  status: ('A' for Active; 'I' for Inactive)
REMARK    1  A    between atoms: C_6  and  N_1 
REMARK    2  A    between atoms: C_7  and  C_6 
ROOT
ATOM      1  N   UNL d   1     -48.836  12.584  22.727  0.00  0.00    -0.236 N 
ATOM      2  C   UNL d   1     -48.655  13.374  22.711  0.00  0.00     0.267 A 
ATOM      3  C   UNL d   1     -48.162  12.162  22.873  0.00  0.00     0.267 A 
ATOM      4  C   UNL d   1     -47.853  13.450  22.850  0.00  0.00     0.061 A 
ATOM      5  C   UNL d   1     -47.545  12.693  22.951  0.00  0.00     0.061 A 
ATOM      6  O   UNL d   1     -49.187  14.010  22.577  0.00  0.00    -0.267 OA
ATOM      7  O   UNL d   1     -48.094  11.324  22.936  0.00  0.00    -0.267 OA
ATOM      8  C   UNL d   1     -46.739  12.599  23.101  0.00  0.00     0.005 A 
ATOM      9  C   UNL d   1     -47.351  14.103  22.900  0.00  0.00     0.005 A 
ATOM     10  C   UNL d   1     -46.541  14.010  23.050  0.00  0.00     0.000 A 
ATOM     11  C   UNL d   1     -46.233  13.253  23.151  0.00  0.00     0.000 A 
ENDROOT
BRANCH   1  12
ATOM     12  C   UNL d   1     -49.603  12.282  22.608  0.00  0.00     0.134 C 
ATOM     13  C   UNL d   1     -49.923  12.190  21.868  0.00  0.00     0.026 C 
BRANCH  12  14
ATOM     14  C   UNL d   1     -50.050  12.070  23.281  0.00  0.00     0.228 C 
ATOM     15  O   UNL d   1     -50.064  11.273  23.535  0.00  0.00    -0.643 OA
ATOM     16  O   UNL d   1     -50.480  12.644  23.698  0.00  0.00    -0.643 OA
ENDBRANCH  12  14
ENDBRANCH   1  12
TORSDOF 2
ENDMDL
MODEL 2
REMARK VINA RESULT:      -7.5      0.106      1.434
REMARK  2 active torsions:
REMARK  status: ('A' for Active; 'I' for Inactive)
REMARK    1  A    between atoms: C_6  and  N_1 
REMARK    2  A    between atoms: C_7  and  C_6 
ROOT
ATOM      1  N   UNL d   1     -48.892  12.543  22.744  0.00  0.00    -0.236 N 
ATOM      2  C   UNL d   1     -48.225  12.093  22.845  0.00  0.00     0.267 A 
ATOM      3  C   UNL d   1     -48.687  13.326  22.771  0.00  0.00     0.267 A 
ATOM      4  C   UNL d   1     -47.591  12.600  22.936  0.00  0.00     0.061 A 
ATOM      5  C   UNL d   1     -47.880  13.370  22.890  0.00  0.00     0.061 A 
ATOM      6  O   UNL d   1     -48.181  11.254  22.855  0.00  0.00    -0.267 OA
ATOM      7  O   UNL d   1     -49.206  13.985  22.691  0.00  0.00    -0.267 OA
ATOM      8  C   UNL d   1     -47.358  14.005  22.963  0.00  0.00     0.005 A 
ATOM      9  C   UNL d   1     -46.784  12.476  23.055  0.00  0.00     0.005 A 
ATOM     10  C   UNL d   1     -46.259  13.112  23.130  0.00  0.00     0.000 A 
ATOM     11  C   UNL d   1     -46.548  13.882  23.084  0.00  0.00     0.000 A 
ENDROOT
BRANCH   1  12
ATOM     12  C   UNL d   1     -49.653  12.225  22.633  0.00  0.00     0.134 C 
ATOM     13  C   UNL d   1     -49.972  12.110  21.896  0.00  0.00     0.026 C 
BRANCH  12  14
ATOM     14  C   UNL d   1     -50.097  12.021  23.312  0.00  0.00     0.228 C 
ATOM     15  O   UNL d   1     -50.555  12.604  23.698  0.00  0.00    -0.643 OA
ATOM     16  O   UNL d   1     -50.084  11.245  23.603  0.00  0.00    -0.643 OA
ENDBRANCH  12  14
ENDBRANCH   1  12
TORSDOF 2
ENDMDL
MODEL 3
REMARK VINA RESULT:      -7.4      1.205      2.792
REMARK  2 active torsions:
REMARK  status: ('A' for Active; 'I' for Inactive)
REMARK    1  A    between atoms: C_6  and  N_1 
REMARK    2  A    between atoms: C_7  and  C_6 
ROOT
ATOM      1  N   UNL d   1     -47.820  12.761  22.895  0.00  0.00    -0.236 N 
ATOM      2  C   UNL d   1     -48.349  13.367  22.998  0.00  0.00     0.267 A 
ATOM      3  C   UNL d   1     -48.202  12.056  23.007  0.00  0.00     0.267 A 
ATOM      4  C   UNL d   1     -49.076  13.038  23.178  0.00  0.00     0.061 A 
ATOM      5  C   UNL d   1     -48.983  12.219  23.183  0.00  0.00     0.061 A 
ATOM      6  O   UNL d   1     -48.191  14.189  22.935  0.00  0.00    -0.267 OA
ATOM      7  O   UNL d   1     -47.864  11.286  22.954  0.00  0.00    -0.267 OA
ATOM      8  C   UNL d   1     -49.633  11.738  23.349  0.00  0.00     0.005 A 
ATOM      9  C   UNL d   1     -49.816  13.364  23.339  0.00  0.00     0.005 A 
ATOM     10  C   UNL d   1     -50.469  12.883  23.506  0.00  0.00     0.000 A 
ATOM     11  C   UNL d   1     -50.377  12.064  23.511  0.00  0.00     0.000 A 
ENDROOT
BRANCH   1  12
ATOM     12  C   UNL d   1     -47.017  12.874  22.706  0.00  0.00     0.134 C 
ATOM     13  C   UNL d   1     -46.758  12.944  21.940  0.00  0.00     0.026 C 
BRANCH  12  14
ATOM     14  C   UNL d   1     -46.467  12.916  23.333  0.00  0.00     0.228 C 
ATOM     15  O   UNL d   1     -46.200  12.212  23.698  0.00  0.00    -0.643 OA
ATOM     16  O   UNL d   1     -46.185  13.651  23.596  0.00  0.00    -0.643 OA
ENDBRANCH  12  14
ENDBRANCH   1  12
TORSDOF 2
ENDMDL
