MODEL 1
REMARK VINA RESULT:      18.6      0.000      0.000
REMARK  3 active torsions:
REMARK  status: ('A' for Active; 'I' for Inactive)
REMARK    1  A    between atoms: C_8  and  C_1 
REMARK    2  A    between atoms: C_9  and  C_8 
REMARK    3  A    between atoms: O_16  and  C_13 
ROOT
ATOM      1  C   UNL d   1     -58.442 -98.760 -44.850  0.00  0.00     0.013 A 
ATOM      2  C   UNL d   1     -57.307 -98.767 -43.968  0.00  0.00     0.105 A 
ATOM      3  O   UNL d   1     -57.811 -98.765 -43.325  0.00  0.00    -0.273 OA
ATOM      4  C   UNL d   1     -57.621 -98.764 -44.743  0.00  0.00     0.023 A 
ATOM      5  C   UNL d   1     -58.629 -98.761 -43.436  0.00  0.00     0.300 A 
ATOM      6  C   UNL d   1     -58.943 -98.758 -44.197  0.00  0.00     0.069 A 
ATOM      7  C   UNL d   1     -56.500 -98.771 -43.863  0.00  0.00     0.049 A 
ATOM      8  C   UNL d   1     -57.119 -98.765 -45.391  0.00  0.00     0.004 A 
ATOM      9  O   UNL d   1     -59.138 -98.759 -42.768  0.00  0.00    -0.259 OA
ATOM     10  C   UNL d   1     -55.988 -98.773 -44.520  0.00  0.00     0.096 A 
ATOM     11  C   UNL d   1     -56.297 -98.770 -45.279  0.00  0.00     0.024 A 
ENDROOT
BRANCH   1  12
ATOM     12  C   UNL d   1     -58.747 -98.757 -45.615  0.00  0.00     0.070 C 
BRANCH  12  13
ATOM     13  C   UNL d   1     -59.521 -99.023 -45.743  0.00  0.00     0.211 C 
ATOM     14  O   UNL d   1     -59.889 -99.510 -45.175  0.00  0.00    -0.644 OA
ATOM     15  O   UNL d   1     -59.930 -98.810 -46.426  0.00  0.00    -0.644 OA
ENDBRANCH  12  13
ENDBRANCH   1  12
BRANCH  10  16
ATOM     16  O   UNL d   1     -55.172 -98.777 -44.405  0.00  0.00    -0.328 OA
ATOM     17  C   UNL d   1     -54.722 -99.428 -44.653  0.00  0.00     0.181 C 
ENDBRANCH  10  16
TORSDOF 3
ENDMDL
MODEL 2
REMARK VINA RESULT:      19.5      0.826      3.082
REMARK  3 active torsions:
REMARK  status: ('A' for Active; 'I' for Inactive)
REMARK    1  A    between atoms: C_8  and  C_1 
REMARK    2  A    between atoms: C_9  and  C_8 
REMARK    3  A    between atoms: O_16  and  C_13 
ROOT
ATOM      1  C   UNL d   1     -57.544 -98.756 -44.436  0.00  0.00     0.013 A 
ATOM      2  C   UNL d   1     -58.946 -98.756 -44.755  0.00  0.00     0.105 A 
ATOM      3  O   UNL d   1     -59.124 -98.756 -43.958  0.00  0.00    -0.273 OA
ATOM      4  C   UNL d   1     -58.147 -98.757 -45.004  0.00  0.00     0.023 A 
ATOM      5  C   UNL d   1     -58.519 -98.756 -43.395  0.00  0.00     0.300 A 
ATOM      6  C   UNL d   1     -57.732 -98.756 -43.635  0.00  0.00     0.069 A 
ATOM      7  C   UNL d   1     -59.538 -98.756 -45.313  0.00  0.00     0.049 A 
ATOM      8  C   UNL d   1     -57.964 -98.757 -45.802  0.00  0.00     0.004 A 
ATOM      9  O   UNL d   1     -58.713 -98.756 -42.579  0.00  0.00    -0.259 OA
ATOM     10  C   UNL d   1     -59.355 -98.757 -46.126  0.00  0.00     0.096 A 
ATOM     11  C   UNL d   1     -58.572 -98.757 -46.367  0.00  0.00     0.024 A 
ENDROOT
BRANCH   1  12
ATOM     12  C   UNL d   1     -56.758 -98.757 -44.685  0.00  0.00     0.070 C 
BRANCH  12  13
ATOM     13  C   UNL d   1     -56.210 -99.234 -44.290  0.00  0.00     0.211 C 
ATOM     14  O   UNL d   1     -55.559 -98.883 -43.903  0.00  0.00    -0.644 OA
ATOM     15  O   UNL d   1     -56.301-100.053 -44.276  0.00  0.00    -0.644 OA
ENDBRANCH  12  13
ENDBRANCH   1  12
BRANCH  10  16
ATOM     16  O   UNL d   1     -59.961 -98.757 -46.685  0.00  0.00    -0.328 OA
ATOM     17  C   UNL d   1     -59.781 -98.823 -47.491  0.00  0.00     0.181 C 
ENDBRANCH  10  16
TORSDOF 3
ENDMDL
