MODEL 1
REMARK VINA RESULT:      24.8      0.000      0.000
REMARK  7 active torsions:
REMARK  status: ('A' for Active; 'I' for Inactive)
REMARK    1  A    between atoms: S_2  and  C_1 
REMARK    2  A    between atoms: N_7  and  S_2 
REMARK    3  A    between atoms: C_8  and  C_3 
REMARK    4  A    between atoms: C_10  and  C_6 
REMARK    5  A    between atoms: O_21  and  C_8 
REMARK    6  A    between atoms: C_17  and  N_9 
REMARK    7  A    between atoms: O_22  and  C_10 
ROOT
ATOM      1  S   UNL d   1      45.892 -15.342  44.316  0.00  0.00     0.277 S 
ATOM      2  O   UNL d   1      46.199 -15.789  44.939  0.00  0.00    -0.199 OA
ATOM      3  O   UNL d   1      45.977 -14.860  44.951  0.00  0.00    -0.199 OA
ENDROOT
BRANCH   1   4
ATOM      4  C   UNL d   1      45.637 -14.579  44.099  0.00  0.00     0.139 A 
ATOM      5  C   UNL d   1      44.897 -14.331  44.307  0.00  0.00     0.082 A 
ATOM      6  C   UNL d   1      44.803 -13.571  44.023  0.00  0.00     0.018 A 
ATOM      7  C   UNL d   1      44.115 -13.064  44.098  0.00  0.00     0.001 C 
ATOM      8  C   UNL d   1      45.490 -13.351  43.639  0.00  0.00     0.093 A 
ATOM      9  S   UNL d   1      46.025 -13.976  43.679  0.00  0.00    -0.069 SA
BRANCH   5  10
ATOM     10  C   UNL d   1      44.277 -14.753  44.748  0.00  0.00     0.297 C 
ATOM     11  O   UNL d   1      44.379 -15.551  44.954  0.00  0.00    -0.259 OA
BRANCH  10  12
ATOM     12  O   UNL d   1      43.588 -14.335  44.954  0.00  0.00    -0.296 OA
ATOM     13  C   UNL d   1      42.848 -14.730  44.954  0.00  0.00     0.185 C 
ENDBRANCH  10  12
ENDBRANCH   5  10
BRANCH   8  14
ATOM     14  C   UNL d   1      45.618 -12.610  43.270  0.00  0.00     0.302 C 
ATOM     15  O   UNL d   1      46.238 -12.132  43.513  0.00  0.00    -0.259 OA
BRANCH  14  16
ATOM     16  O   UNL d   1      45.097 -12.378  42.653  0.00  0.00    -0.295 OA
ATOM     17  C   UNL d   1      45.321 -12.410  41.863  0.00  0.00     0.185 C 
ENDBRANCH  14  16
ENDBRANCH   8  14
ENDBRANCH   1   4
BRANCH   1  18
ATOM     18  N   UNL d   1      45.995 -16.131  44.038  0.00  0.00    -0.226 N 
ATOM     19  C   UNL d   1      46.506 -16.687  44.430  0.00  0.00     0.111 A 
ATOM     20  C   UNL d   1      46.595 -17.455  44.144  0.00  0.00     0.100 A 
ATOM     21  N   UNL d   1      46.195 -17.708  43.474  0.00  0.00    -0.301 N 
ATOM     22  C   UNL d   1      45.700 -17.170  43.095  0.00  0.00     0.100 A 
ATOM     23  C   UNL d   1      45.595 -16.384  43.368  0.00  0.00     0.111 A 
BRANCH  21  24
ATOM     24  C   UNL d   1      46.269 -18.447  43.183  0.00  0.00     0.064 A 
ATOM     25  C   UNL d   1      46.291 -18.605  42.378  0.00  0.00     0.018 A 
ATOM     26  C   UNL d   1      46.367 -19.373  42.086  0.00  0.00     0.002 A 
ATOM     27  C   UNL d   1      46.423 -19.992  42.611  0.00  0.00     0.000 A 
ATOM     28  C   UNL d   1      46.402 -19.846  43.422  0.00  0.00     0.002 A 
ATOM     29  C   UNL d   1      46.327 -19.093  43.713  0.00  0.00     0.018 A 
ENDBRANCH  21  24
ENDBRANCH   1  18
TORSDOF 7
ENDMDL
