MODEL 1
REMARK VINA RESULT:      67.8      0.000      0.000
REMARK  3 active torsions:
REMARK  status: ('A' for Active; 'I' for Inactive)
REMARK       I    between atoms: N_2  and  C_1 
REMARK    1  A    between atoms: C_9  and  C_1 
REMARK    2  A    between atoms: C_6  and  N_5 
REMARK    3  A    between atoms: N_8  and  C_7 
ROOT
ATOM      1  C   UNL d   1     -55.176-101.741 -43.754  0.00  0.00     0.265 C 
ATOM      2  N   UNL d   1     -55.163-101.793 -42.931  0.00  0.00    -0.269 N 
ATOM      3  N   UNL d   1     -55.139-101.892 -41.287  0.00  0.00    -0.285 N 
ATOM      4  C   UNL d   1     -55.457-101.161 -42.478  0.00  0.00     0.102 A 
ATOM      5  C   UNL d   1     -54.863-102.464 -42.562  0.00  0.00     0.102 A 
ATOM      6  C   UNL d   1     -55.444-101.213 -41.651  0.00  0.00     0.101 A 
ATOM      7  C   UNL d   1     -54.846-102.524 -41.741  0.00  0.00     0.101 A 
ATOM      8  O   UNL d   1     -54.885-102.368 -44.215  0.00  0.00    -0.267 OA
ENDROOT
BRANCH   3   9
ATOM      9  C   UNL d   1     -55.126-101.944 -40.462  0.00  0.00     0.170 A 
ATOM     10  N   UNL d   1     -55.066-102.678 -40.099  0.00  0.00    -0.129 NA
ATOM     11  N   UNL d   1     -55.053-102.730 -39.278  0.00  0.00    -0.129 NA
ATOM     12  C   UNL d   1     -55.101-102.044 -38.809  0.00  0.00     0.170 A 
ATOM     13  C   UNL d   1     -55.161-101.311 -39.184  0.00  0.00     0.042 A 
ATOM     14  C   UNL d   1     -55.174-101.259 -40.005  0.00  0.00     0.042 A 
BRANCH  12  15
ATOM     15  N   UNL d   1     -55.088-102.096 -37.988  0.00  0.00    -0.284 N 
ATOM     16  C   UNL d   1     -54.858-101.447 -37.534  0.00  0.00     0.108 A 
ATOM     17  C   UNL d   1     -54.845-101.499 -36.712  0.00  0.00     0.142 A 
ATOM     18  O   UNL d   1     -55.062-102.200 -36.348  0.00  0.00    -0.300 OA
ATOM     19  C   UNL d   1     -55.291-102.848 -36.793  0.00  0.00     0.142 A 
ATOM     20  C   UNL d   1     -55.308-102.808 -37.619  0.00  0.00     0.108 A 
ENDBRANCH  12  15
ENDBRANCH   3   9
BRANCH   1  21
ATOM     21  C   UNL d   1     -55.477-101.068 -44.130  0.00  0.00     0.057 A 
ATOM     22  C   UNL d   1     -54.997-100.405 -44.260  0.00  0.00     0.005 A 
ATOM     23  C   UNL d   1     -55.299 -99.741 -44.633  0.00  0.00     0.000 A 
ATOM     24  C   UNL d   1     -54.813 -99.088 -44.756  0.00  0.00     0.000 C 
ATOM     25  C   UNL d   1     -56.088 -99.743 -44.877  0.00  0.00     0.000 A 
ATOM     26  C   UNL d   1     -56.575-100.401 -44.751  0.00  0.00     0.000 A 
ATOM     27  C   UNL d   1     -56.262-101.057 -44.378  0.00  0.00     0.005 A 
ENDBRANCH   1  21
TORSDOF 3
ENDMDL
