MODEL 1
REMARK VINA RESULT:      -7.0      0.000      0.000
REMARK  3 active torsions:
REMARK  status: ('A' for Active; 'I' for Inactive)
REMARK    1  A    between atoms: C_6  and  N_1 
REMARK       I    between atoms: C_2  and  N_4 
REMARK    2  A    between atoms: C_5  and  C_2 
REMARK    3  A    between atoms: N_4  and  C_12 
ROOT
ATOM      1  C   UNL d   1     -49.116  14.347  22.849  0.00  0.00     0.067 A 
ATOM      2  C   UNL d   1     -48.536  14.708  22.380  0.00  0.00     0.019 A 
ATOM      3  C   UNL d   1     -48.984  13.589  23.141  0.00  0.00     0.019 A 
ATOM      4  C   UNL d   1     -47.701  13.555  22.499  0.00  0.00     0.085 A 
ATOM      5  C   UNL d   1     -48.280  13.195  22.967  0.00  0.00     0.021 A 
ATOM      6  C   UNL d   1     -47.839  14.318  22.208  0.00  0.00     0.021 A 
ENDROOT
BRANCH   4   7
ATOM      7  N   UNL d   1     -47.005  13.166  22.327  0.00  0.00    -0.208 NA
ATOM      8  C   UNL d   1     -46.310  13.369  22.719  0.00  0.00     0.279 C 
ATOM      9  O   UNL d   1     -46.320  13.967  23.286  0.00  0.00    -0.265 OA
BRANCH   8  10
ATOM     10  C   UNL d   1     -45.613  12.979  22.547  0.00  0.00     0.060 A 
ATOM     11  C   UNL d   1     -45.452  12.247  22.902  0.00  0.00     0.034 A 
ATOM     12  C   UNL d   1     -44.738  11.843  22.729  0.00  0.00     0.140 A 
ATOM     13  F   UNL d   1     -44.575  11.117  23.079  0.00  0.00    -0.204 F 
ATOM     14  C   UNL d   1     -44.198  12.188  22.198  0.00  0.00     0.030 A 
ATOM     15  C   UNL d   1     -44.368  12.922  21.846  0.00  0.00     0.003 A 
ATOM     16  C   UNL d   1     -45.073  13.313  22.023  0.00  0.00     0.005 A 
ENDBRANCH   8  10
ENDBRANCH   4   7
BRANCH   1  17
ATOM     17  N   UNL d   1     -49.812  14.736  23.021  0.00  0.00    -0.273 N 
ATOM     18  C   UNL d   1     -50.491  14.757  22.543  0.00  0.00     0.265 A 
ATOM     19  O   UNL d   1     -50.586  14.387  21.806  0.00  0.00    -0.267 OA
ATOM     20  C   UNL d   1     -51.064  15.212  22.925  0.00  0.00     0.063 A 
ATOM     21  C   UNL d   1     -50.742  15.472  23.639  0.00  0.00     0.024 A 
ATOM     22  C   UNL d   1     -49.977  15.182  23.698  0.00  0.00     0.083 A 
ENDBRANCH   1  17
TORSDOF 3
ENDMDL
MODEL 2
REMARK VINA RESULT:      -6.8      0.905      1.292
REMARK  3 active torsions:
REMARK  status: ('A' for Active; 'I' for Inactive)
REMARK    1  A    between atoms: C_6  and  N_1 
REMARK       I    between atoms: C_2  and  N_4 
REMARK    2  A    between atoms: C_5  and  C_2 
REMARK    3  A    between atoms: N_4  and  C_12 
ROOT
ATOM      1  C   UNL d   1     -49.049  13.841  22.954  0.00  0.00     0.067 A 
ATOM      2  C   UNL d   1     -48.445  13.872  22.388  0.00  0.00     0.019 A 
ATOM      3  C   UNL d   1     -49.041  13.243  23.520  0.00  0.00     0.019 A 
ATOM      4  C   UNL d   1     -47.832  12.714  22.956  0.00  0.00     0.085 A 
ATOM      5  C   UNL d   1     -48.435  12.683  23.521  0.00  0.00     0.021 A 
ATOM      6  C   UNL d   1     -47.846  13.317  22.389  0.00  0.00     0.021 A 
ENDROOT
BRANCH   4   7
ATOM      7  N   UNL d   1     -47.233  12.159  22.957  0.00  0.00    -0.208 NA
ATOM      8  C   UNL d   1     -46.517  12.325  23.328  0.00  0.00     0.279 C 
ATOM      9  O   UNL d   1     -46.407  13.053  23.698  0.00  0.00    -0.265 OA
BRANCH   8  10
ATOM     10  C   UNL d   1     -45.918  11.770  23.329  0.00  0.00     0.060 A 
ATOM     11  C   UNL d   1     -45.194  11.944  22.963  0.00  0.00     0.034 A 
ATOM     12  C   UNL d   1     -44.576  11.378  22.962  0.00  0.00     0.140 A 
ATOM     13  F   UNL d   1     -43.858  11.547  22.599  0.00  0.00    -0.204 F 
ATOM     14  C   UNL d   1     -44.701  10.644  23.332  0.00  0.00     0.030 A 
ATOM     15  C   UNL d   1     -45.430  10.478  23.697  0.00  0.00     0.003 A 
ATOM     16  C   UNL d   1     -46.033  11.041  23.694  0.00  0.00     0.005 A 
ENDBRANCH   8  10
ENDBRANCH   4   7
BRANCH   1  17
ATOM     17  N   UNL d   1     -49.648  14.395  22.952  0.00  0.00    -0.273 N 
ATOM     18  C   UNL d   1     -50.406  14.294  22.631  0.00  0.00     0.265 A 
ATOM     19  O   UNL d   1     -50.695  13.613  22.253  0.00  0.00    -0.267 OA
ATOM     20  C   UNL d   1     -50.834  14.990  22.749  0.00  0.00     0.063 A 
ATOM     21  C   UNL d   1     -50.342  15.522  23.143  0.00  0.00     0.024 A 
ATOM     22  C   UNL d   1     -49.617  15.159  23.268  0.00  0.00     0.083 A 
ENDBRANCH   1  17
TORSDOF 3
ENDMDL
MODEL 3
REMARK VINA RESULT:      -6.8      2.029      5.174
REMARK  3 active torsions:
REMARK  status: ('A' for Active; 'I' for Inactive)
REMARK    1  A    between atoms: C_6  and  N_1 
REMARK       I    between atoms: C_2  and  N_4 
REMARK    2  A    between atoms: C_5  and  C_2 
REMARK    3  A    between atoms: N_4  and  C_12 
ROOT
ATOM      1  C   UNL d   1     -45.883  11.710  23.304  0.00  0.00     0.067 A 
ATOM      2  C   UNL d   1     -46.630  11.402  23.488  0.00  0.00     0.019 A 
ATOM      3  C   UNL d   1     -45.813  12.504  23.101  0.00  0.00     0.019 A 
ATOM      4  C   UNL d   1     -47.228  12.680  23.265  0.00  0.00     0.085 A 
ATOM      5  C   UNL d   1     -46.482  12.987  23.082  0.00  0.00     0.021 A 
ATOM      6  C   UNL d   1     -47.292  11.880  23.469  0.00  0.00     0.021 A 
ENDROOT
BRANCH   4   7
ATOM      7  N   UNL d   1     -47.890  13.158  23.246  0.00  0.00    -0.208 NA
ATOM      8  C   UNL d   1     -48.259  13.324  22.529  0.00  0.00     0.279 C 
ATOM      9  O   UNL d   1     -47.958  13.007  21.831  0.00  0.00    -0.265 OA
BRANCH   8  10
ATOM     10  C   UNL d   1     -48.921  13.802  22.510  0.00  0.00     0.060 A 
ATOM     11  C   UNL d   1     -48.844  14.617  22.641  0.00  0.00     0.034 A 
ATOM     12  C   UNL d   1     -49.521  15.112  22.622  0.00  0.00     0.140 A 
ATOM     13  F   UNL d   1     -49.449  15.921  22.751  0.00  0.00    -0.204 F 
ATOM     14  C   UNL d   1     -50.265  14.771  22.472  0.00  0.00     0.030 A 
ATOM     15  C   UNL d   1     -50.333  13.953  22.342  0.00  0.00     0.003 A 
ATOM     16  C   UNL d   1     -49.662  13.474  22.362  0.00  0.00     0.005 A 
ENDBRANCH   8  10
ENDBRANCH   4   7
BRANCH   1  17
ATOM     17  N   UNL d   1     -45.222  11.233  23.323  0.00  0.00    -0.273 N 
ATOM     18  C   UNL d   1     -44.491  11.397  22.967  0.00  0.00     0.265 A 
ATOM     19  O   UNL d   1     -44.298  12.074  22.526  0.00  0.00    -0.267 OA
ATOM     20  C   UNL d   1     -43.978  10.769  23.122  0.00  0.00     0.063 A 
ATOM     21  C   UNL d   1     -44.390  10.216  23.575  0.00  0.00     0.024 A 
ATOM     22  C   UNL d   1     -45.150  10.499  23.698  0.00  0.00     0.083 A 
ENDBRANCH   1  17
TORSDOF 3
ENDMDL
MODEL 4
REMARK VINA RESULT:      -6.0      8.305      8.810
REMARK  3 active torsions:
REMARK  status: ('A' for Active; 'I' for Inactive)
REMARK    1  A    between atoms: C_6  and  N_1 
REMARK       I    between atoms: C_2  and  N_4 
REMARK    2  A    between atoms: C_5  and  C_2 
REMARK    3  A    between atoms: N_4  and  C_12 
ROOT
ATOM      1  C   UNL d   1     -40.475  15.324  18.210  0.00  0.00     0.067 A 
ATOM      2  C   UNL d   1     -39.999  15.878  18.600  0.00  0.00     0.019 A 
ATOM      3  C   UNL d   1     -40.567  14.573  18.533  0.00  0.00     0.019 A 
ATOM      4  C   UNL d   1     -39.713  14.929  19.629  0.00  0.00     0.085 A 
ATOM      5  C   UNL d   1     -40.188  14.376  19.238  0.00  0.00     0.021 A 
ATOM      6  C   UNL d   1     -39.624  15.683  19.299  0.00  0.00     0.021 A 
ENDROOT
BRANCH   4   7
ATOM      7  N   UNL d   1     -39.338  14.735  20.327  0.00  0.00    -0.208 NA
ATOM      8  C   UNL d   1     -39.742  14.789  21.042  0.00  0.00     0.279 C 
ATOM      9  O   UNL d   1     -40.527  15.040  21.051  0.00  0.00    -0.265 OA
BRANCH   8  10
ATOM     10  C   UNL d   1     -39.366  14.594  21.741  0.00  0.00     0.060 A 
ATOM     11  C   UNL d   1     -39.348  13.804  21.993  0.00  0.00     0.034 A 
ATOM     12  C   UNL d   1     -38.964  13.599  22.709  0.00  0.00     0.140 A 
ATOM     13  F   UNL d   1     -38.943  12.817  22.961  0.00  0.00    -0.204 F 
ATOM     14  C   UNL d   1     -38.604  14.199  23.160  0.00  0.00     0.030 A 
ATOM     15  C   UNL d   1     -38.628  14.988  22.900  0.00  0.00     0.003 A 
ATOM     16  C   UNL d   1     -39.008  15.181  22.194  0.00  0.00     0.005 A 
ENDBRANCH   8  10
ENDBRANCH   4   7
BRANCH   1  17
ATOM     17  N   UNL d   1     -40.850  15.519  17.512  0.00  0.00    -0.273 N 
ATOM     18  C   UNL d   1     -40.522  15.471  16.751  0.00  0.00     0.265 A 
ATOM     19  O   UNL d   1     -39.754  15.217  16.561  0.00  0.00    -0.267 OA
ATOM     20  C   UNL d   1     -41.089  15.720  16.206  0.00  0.00     0.063 A 
ATOM     21  C   UNL d   1     -41.769  15.922  16.627  0.00  0.00     0.024 A 
ATOM     22  C   UNL d   1     -41.624  15.799  17.426  0.00  0.00     0.083 A 
ENDBRANCH   1  17
TORSDOF 3
ENDMDL
MODEL 5
REMARK VINA RESULT:      -6.0      8.452      9.381
REMARK  3 active torsions:
REMARK  status: ('A' for Active; 'I' for Inactive)
REMARK    1  A    between atoms: C_6  and  N_1 
REMARK       I    between atoms: C_2  and  N_4 
REMARK    2  A    between atoms: C_5  and  C_2 
REMARK    3  A    between atoms: N_4  and  C_12 
ROOT
ATOM      1  C   UNL d   1     -39.128  14.282  21.628  0.00  0.00     0.067 A 
ATOM      2  C   UNL d   1     -39.877  14.591  21.452  0.00  0.00     0.019 A 
ATOM      3  C   UNL d   1     -38.562  14.237  21.032  0.00  0.00     0.019 A 
ATOM      4  C   UNL d   1     -39.488  14.804  20.094  0.00  0.00     0.085 A 
ATOM      5  C   UNL d   1     -38.740  14.496  20.270  0.00  0.00     0.021 A 
ATOM      6  C   UNL d   1     -40.054  14.848  20.697  0.00  0.00     0.021 A 
ENDROOT
BRANCH   4   7
ATOM      7  N   UNL d   1     -39.664  15.061  19.340  0.00  0.00    -0.208 NA
ATOM      8  C   UNL d   1     -40.010  14.546  18.799  0.00  0.00     0.279 C 
ATOM      9  O   UNL d   1     -40.177  13.770  19.021  0.00  0.00    -0.265 OA
BRANCH   8  10
ATOM     10  C   UNL d   1     -40.187  14.803  18.044  0.00  0.00     0.060 A 
ATOM     11  C   UNL d   1     -40.888  15.224  17.906  0.00  0.00     0.034 A 
ATOM     12  C   UNL d   1     -41.074  15.490  17.133  0.00  0.00     0.140 A 
ATOM     13  F   UNL d   1     -41.768  15.908  16.992  0.00  0.00    -0.204 F 
ATOM     14  C   UNL d   1     -40.546  15.325  16.512  0.00  0.00     0.030 A 
ATOM     15  C   UNL d   1     -39.846  14.902  16.659  0.00  0.00     0.003 A 
ATOM     16  C   UNL d   1     -39.670  14.644  17.423  0.00  0.00     0.005 A 
ENDBRANCH   8  10
ENDBRANCH   4   7
BRANCH   1  17
ATOM     17  N   UNL d   1     -38.951  14.026  22.382  0.00  0.00    -0.273 N 
ATOM     18  C   UNL d   1     -38.704  14.502  23.014  0.00  0.00     0.265 A 
ATOM     19  O   UNL d   1     -38.591  15.325  22.997  0.00  0.00    -0.267 OA
ATOM     20  C   UNL d   1     -38.586  14.020  23.674  0.00  0.00     0.063 A 
ATOM     21  C   UNL d   1     -38.761  13.245  23.451  0.00  0.00     0.024 A 
ATOM     22  C   UNL d   1     -38.984  13.248  22.661  0.00  0.00     0.083 A 
ENDBRANCH   1  17
TORSDOF 3
ENDMDL
MODEL 6
REMARK VINA RESULT:      -4.8      9.109     10.385
REMARK  3 active torsions:
REMARK  status: ('A' for Active; 'I' for Inactive)
REMARK    1  A    between atoms: C_6  and  N_1 
REMARK       I    between atoms: C_2  and  N_4 
REMARK    2  A    between atoms: C_5  and  C_2 
REMARK    3  A    between atoms: N_4  and  C_12 
ROOT
ATOM      1  C   UNL d   1     -38.529  14.311  17.660  0.00  0.00     0.067 A 
ATOM      2  C   UNL d   1     -39.126  13.872  18.030  0.00  0.00     0.019 A 
ATOM      3  C   UNL d   1     -38.066  14.822  18.110  0.00  0.00     0.019 A 
ATOM      4  C   UNL d   1     -38.795  14.456  19.291  0.00  0.00     0.085 A 
ATOM      5  C   UNL d   1     -38.198  14.894  18.921  0.00  0.00     0.021 A 
ATOM      6  C   UNL d   1     -39.257  13.944  18.833  0.00  0.00     0.021 A 
ENDROOT
BRANCH   4   7
ATOM      7  N   UNL d   1     -38.925  14.528  20.093  0.00  0.00    -0.208 NA
ATOM      8  C   UNL d   1     -38.499  14.065  20.624  0.00  0.00     0.279 C 
ATOM      9  O   UNL d   1     -37.940  13.529  20.343  0.00  0.00    -0.265 OA
BRANCH   8  10
ATOM     10  C   UNL d   1     -38.630  14.137  21.427  0.00  0.00     0.060 A 
ATOM     11  C   UNL d   1     -38.417  14.836  21.819  0.00  0.00     0.034 A 
ATOM     12  C   UNL d   1     -38.549  14.915  22.643  0.00  0.00     0.140 A 
ATOM     13  F   UNL d   1     -38.339  15.607  23.034  0.00  0.00    -0.204 F 
ATOM     14  C   UNL d   1     -38.895  14.282  23.058  0.00  0.00     0.030 A 
ATOM     15  C   UNL d   1     -39.106  13.584  22.657  0.00  0.00     0.003 A 
ATOM     16  C   UNL d   1     -38.972  13.516  21.846  0.00  0.00     0.005 A 
ENDBRANCH   8  10
ENDBRANCH   4   7
BRANCH   1  17
ATOM     17  N   UNL d   1     -38.398  14.239  16.858  0.00  0.00    -0.273 N 
ATOM     18  C   UNL d   1     -38.693  14.743  16.268  0.00  0.00     0.265 A 
ATOM     19  O   UNL d   1     -39.173  15.411  16.385  0.00  0.00    -0.267 OA
ATOM     20  C   UNL d   1     -38.428  14.471  15.535  0.00  0.00     0.063 A 
ATOM     21  C   UNL d   1     -37.970  13.798  15.670  0.00  0.00     0.024 A 
ATOM     22  C   UNL d   1     -37.951  13.656  16.478  0.00  0.00     0.083 A 
ENDBRANCH   1  17
TORSDOF 3
ENDMDL
