MODEL 1
REMARK VINA RESULT:       2.1      0.000      0.000
REMARK  7 active torsions:
REMARK  status: ('A' for Active; 'I' for Inactive)
REMARK    1  A    between atoms: C_14  and  C_4 
REMARK    2  A    between atoms: N_17  and  C_5 
REMARK    3  A    between atoms: C_13  and  C_8 
REMARK    4  A    between atoms: N_11  and  C_18 
REMARK    5  A    between atoms: C_20  and  N_17 
REMARK    6  A    between atoms: C_18  and  C_19 
REMARK    7  A    between atoms: C_19  and  C_20 
ROOT
ATOM      1  C   UNL d   1      58.557  -0.052  30.198  0.00  0.00     0.168 A 
ATOM      2  N   UNL d   1      57.798   0.116  30.513  0.00  0.00    -0.184 N 
ATOM      3  N   UNL d   1      59.224   0.089  30.648  0.00  0.00    -0.231 NA
ATOM      4  C   UNL d   1      58.628  -0.351  29.450  0.00  0.00     0.057 A 
ATOM      5  C   UNL d   1      57.751   0.414  31.260  0.00  0.00     0.217 A 
ATOM      6  N   UNL d   1      57.219  -0.324  29.318  0.00  0.00    -0.160 NA
ATOM      7  C   UNL d   1      58.413   0.559  31.721  0.00  0.00     0.067 A 
ATOM      8  C   UNL d   1      59.159   0.394  31.411  0.00  0.00     0.064 A 
ATOM      9  C   UNL d   1      57.965  -0.489  29.007  0.00  0.00     0.124 A 
ENDROOT
BRANCH   5  10
ATOM     10  N   UNL d   1      56.980   0.585  31.581  0.00  0.00    -0.380 NA
BRANCH  10  11
ATOM     11  C   UNL d   1      56.204   0.682  31.912  0.00  0.00     0.164 C 
BRANCH  11  12
ATOM     12  C   UNL d   1      56.104   0.668  32.746  0.00  0.00     0.054 C 
BRANCH  12  13
ATOM     13  C   UNL d   1      55.804  -0.027  33.123  0.00  0.00     0.084 C 
BRANCH  13  14
ATOM     14  N   UNL d   1      55.400   0.041  33.872  0.00  0.00    -0.285 N 
ATOM     15  C   UNL d   1      55.720  -0.162  34.625  0.00  0.00     0.183 A 
ATOM     16  N   UNL d   1      55.125  -0.005  35.209  0.00  0.00    -0.222 NA
ATOM     17  C   UNL d   1      54.440   0.294  34.811  0.00  0.00     0.120 A 
ATOM     18  C   UNL d   1      54.609   0.323  33.984  0.00  0.00     0.102 A 
ENDBRANCH  13  14
ENDBRANCH  12  13
ENDBRANCH  11  12
ENDBRANCH  10  11
ENDBRANCH   5  10
BRANCH   8  19
ATOM     19  C   UNL d   1      59.859   0.539  31.878  0.00  0.00     0.036 C 
ATOM     20  C   UNL d   1      59.804   0.558  32.731  0.00  0.00     0.006 C 
ATOM     21  C   UNL d   1      60.546   0.681  32.343  0.00  0.00     0.006 C 
ATOM     22  C   UNL d   1      60.605   0.663  31.490  0.00  0.00     0.006 C 
ENDBRANCH   8  19
BRANCH   4  23
ATOM     23  C   UNL d   1      59.375  -0.516  29.140  0.00  0.00     0.004 A 
ATOM     24  C   UNL d   1      59.817   0.083  28.841  0.00  0.00     0.000 A 
ATOM     25  C   UNL d   1      60.564  -0.082  28.530  0.00  0.00     0.000 A 
ATOM     26  C   UNL d   1      60.844  -0.841  28.529  0.00  0.00     0.000 A 
ATOM     27  C   UNL d   1      60.389  -1.445  28.835  0.00  0.00     0.000 A 
ATOM     28  C   UNL d   1      59.642  -1.280  29.145  0.00  0.00     0.000 A 
ENDBRANCH   4  23
TORSDOF 7
ENDMDL
MODEL 2
REMARK VINA RESULT:       4.8      1.255      1.569
REMARK  7 active torsions:
REMARK  status: ('A' for Active; 'I' for Inactive)
REMARK    1  A    between atoms: C_14  and  C_4 
REMARK    2  A    between atoms: N_17  and  C_5 
REMARK    3  A    between atoms: C_13  and  C_8 
REMARK    4  A    between atoms: N_11  and  C_18 
REMARK    5  A    between atoms: C_20  and  N_17 
REMARK    6  A    between atoms: C_18  and  C_19 
REMARK    7  A    between atoms: C_19  and  C_20 
ROOT
ATOM      1  C   UNL d   1      58.187  -0.954  30.793  0.00  0.00     0.168 A 
ATOM      2  N   UNL d   1      57.774  -0.615  31.438  0.00  0.00    -0.184 N 
ATOM      3  N   UNL d   1      58.936  -0.686  30.604  0.00  0.00    -0.231 NA
ATOM      4  C   UNL d   1      57.848  -1.545  30.358  0.00  0.00     0.057 A 
ATOM      5  C   UNL d   1      58.132  -0.027  31.857  0.00  0.00     0.217 A 
ATOM      6  N   UNL d   1      56.699  -1.474  31.184  0.00  0.00    -0.160 NA
ATOM      7  C   UNL d   1      58.882   0.250  31.677  0.00  0.00     0.067 A 
ATOM      8  C   UNL d   1      59.289  -0.084  31.042  0.00  0.00     0.064 A 
ATOM      9  C   UNL d   1      57.106  -1.808  30.549  0.00  0.00     0.124 A 
ENDROOT
BRANCH   5  10
ATOM     10  N   UNL d   1      57.712   0.318  32.513  0.00  0.00    -0.380 NA
BRANCH  10  11
ATOM     11  C   UNL d   1      57.238   0.678  33.119  0.00  0.00     0.164 C 
BRANCH  11  12
ATOM     12  C   UNL d   1      56.682   0.213  33.544  0.00  0.00     0.054 C 
BRANCH  12  13
ATOM     13  C   UNL d   1      55.923   0.532  33.735  0.00  0.00     0.084 C 
BRANCH  13  14
ATOM     14  N   UNL d   1      55.631   0.474  34.535  0.00  0.00    -0.285 N 
ATOM     15  C   UNL d   1      54.865   0.203  34.761  0.00  0.00     0.183 A 
ATOM     16  N   UNL d   1      54.818   0.239  35.607  0.00  0.00    -0.222 NA
ATOM     17  C   UNL d   1      55.557   0.534  35.899  0.00  0.00     0.120 A 
ATOM     18  C   UNL d   1      56.060   0.679  35.235  0.00  0.00     0.102 A 
ENDBRANCH  13  14
ENDBRANCH  12  13
ENDBRANCH  11  12
ENDBRANCH  10  11
ENDBRANCH   5  10
BRANCH   8  19
ATOM     19  C   UNL d   1      60.071   0.193  30.841  0.00  0.00     0.036 C 
ATOM     20  C   UNL d   1      60.737  -0.018  31.335  0.00  0.00     0.006 C 
ATOM     21  C   UNL d   1      60.844   0.464  30.648  0.00  0.00     0.006 C 
ATOM     22  C   UNL d   1      60.182   0.678  30.151  0.00  0.00     0.006 C 
ENDBRANCH   8  19
BRANCH   4  23
ATOM     23  C   UNL d   1      58.255  -1.879  29.723  0.00  0.00     0.004 A 
ATOM     24  C   UNL d   1      58.462  -1.415  29.101  0.00  0.00     0.000 A 
ATOM     25  C   UNL d   1      58.869  -1.749  28.466  0.00  0.00     0.000 A 
ATOM     26  C   UNL d   1      59.056  -2.536  28.473  0.00  0.00     0.000 A 
ATOM     27  C   UNL d   1      58.843  -3.002  29.109  0.00  0.00     0.000 A 
ATOM     28  C   UNL d   1      58.436  -2.668  29.744  0.00  0.00     0.000 A 
ENDBRANCH   4  23
TORSDOF 7
ENDMDL
MODEL 3
REMARK VINA RESULT:       5.0      8.692     10.494
REMARK  7 active torsions:
REMARK  status: ('A' for Active; 'I' for Inactive)
REMARK    1  A    between atoms: C_14  and  C_4 
REMARK    2  A    between atoms: N_17  and  C_5 
REMARK    3  A    between atoms: C_13  and  C_8 
REMARK    4  A    between atoms: N_11  and  C_18 
REMARK    5  A    between atoms: C_20  and  N_17 
REMARK    6  A    between atoms: C_18  and  C_19 
REMARK    7  A    between atoms: C_19  and  C_20 
ROOT
ATOM      1  C   UNL d   1      59.436  -9.409  32.304  0.00  0.00     0.168 A 
ATOM      2  N   UNL d   1      59.784  -9.510  31.549  0.00  0.00    -0.184 N 
ATOM      3  N   UNL d   1      58.627  -9.486  32.393  0.00  0.00    -0.231 NA
ATOM      4  C   UNL d   1      59.898  -9.237  32.944  0.00  0.00     0.057 A 
ATOM      5  C   UNL d   1      59.303  -9.682  30.925  0.00  0.00     0.217 A 
ATOM      6  N   UNL d   1      61.041  -9.261  32.109  0.00  0.00    -0.160 NA
ATOM      7  C   UNL d   1      58.491  -9.761  31.002  0.00  0.00     0.067 A 
ATOM      8  C   UNL d   1      58.148  -9.661  31.746  0.00  0.00     0.064 A 
ATOM      9  C   UNL d   1      60.699  -9.162  32.853  0.00  0.00     0.124 A 
ENDROOT
BRANCH   5  10
ATOM     10  N   UNL d   1      59.656  -9.784  30.156  0.00  0.00    -0.380 NA
BRANCH  10  11
ATOM     11  C   UNL d   1      60.023  -9.814  29.391  0.00  0.00     0.164 C 
BRANCH  11  12
ATOM     12  C   UNL d   1      60.592  -9.233  29.180  0.00  0.00     0.054 C 
BRANCH  12  13
ATOM     13  C   UNL d   1      60.505  -8.800  28.459  0.00  0.00     0.084 C 
BRANCH  13  14
ATOM     14  N   UNL d   1      60.470  -7.948  28.481  0.00  0.00    -0.285 N 
ATOM     15  C   UNL d   1      61.132  -7.426  28.474  0.00  0.00     0.183 A 
ATOM     16  N   UNL d   1      60.836  -6.632  28.503  0.00  0.00    -0.222 NA
ATOM     17  C   UNL d   1      59.991  -6.668  28.527  0.00  0.00     0.120 A 
ATOM     18  C   UNL d   1      59.763  -7.482  28.514  0.00  0.00     0.102 A 
ENDBRANCH  13  14
ENDBRANCH  12  13
ENDBRANCH  11  12
ENDBRANCH  10  11
ENDBRANCH   5  10
BRANCH   8  19
ATOM     19  C   UNL d   1      57.304  -9.740  31.842  0.00  0.00     0.036 C 
ATOM     20  C   UNL d   1      56.968  -9.778  32.628  0.00  0.00     0.006 C 
ATOM     21  C   UNL d   1      56.472  -9.818  31.943  0.00  0.00     0.006 C 
ATOM     22  C   UNL d   1      56.804  -9.780  31.156  0.00  0.00     0.006 C 
ENDBRANCH   8  19
BRANCH   4  23
ATOM     23  C   UNL d   1      59.556  -9.137  33.688  0.00  0.00     0.004 A 
ATOM     24  C   UNL d   1      59.374  -8.398  33.941  0.00  0.00     0.000 A 
ATOM     25  C   UNL d   1      59.031  -8.298  34.685  0.00  0.00     0.000 A 
ATOM     26  C   UNL d   1      58.882  -8.942  35.153  0.00  0.00     0.000 A 
ATOM     27  C   UNL d   1      59.070  -9.691  34.889  0.00  0.00     0.000 A 
ATOM     28  C   UNL d   1      59.413  -9.790  34.145  0.00  0.00     0.000 A 
ENDBRANCH   4  23
TORSDOF 7
ENDMDL
