MODEL 1
REMARK VINA RESULT:      -7.8      0.000      0.000
REMARK  6 active torsions:
REMARK  status: ('A' for Active; 'I' for Inactive)
REMARK    1  A    between atoms: N_3  and  C_1 
REMARK    2  A    between atoms: C_4  and  C_2 
REMARK       I    between atoms: C_6  and  N_3 
REMARK    3  A    between atoms: C_11  and  C_6 
REMARK    4  A    between atoms: C_13  and  C_11 
REMARK    5  A    between atoms: O_19  and  C_14 
REMARK    6  A    between atoms: C_20  and  O_19 
ROOT
ATOM      1  N   UNL d   1      53.537  33.159  53.546  0.00  0.00    -0.201 NA
ATOM      2  C   UNL d   1      52.914  32.784  53.158  0.00  0.00     0.280 C 
ATOM      3  O   UNL d   1      52.134  33.069  53.248  0.00  0.00    -0.265 OA
ENDROOT
BRANCH   2   4
ATOM      4  C   UNL d   1      53.057  32.125  52.679  0.00  0.00     0.062 C 
BRANCH   4   5
ATOM      5  C   UNL d   1      53.054  31.362  53.013  0.00  0.00     0.005 A 
ATOM      6  C   UNL d   1      52.340  31.003  53.215  0.00  0.00     0.002 A 
ATOM      7  C   UNL d   1      52.340  30.246  53.546  0.00  0.00     0.025 A 
ATOM      8  C   UNL d   1      53.065  29.844  53.675  0.00  0.00     0.100 A 
ATOM      9  C   UNL d   1      53.772  30.208  53.471  0.00  0.00     0.025 A 
ATOM     10  C   UNL d   1      53.779  30.960  53.142  0.00  0.00     0.002 A 
BRANCH   8  11
ATOM     11  O   UNL d   1      53.052  29.082  54.009  0.00  0.00    -0.305 OA
BRANCH  11  12
ATOM     12  C   UNL d   1      53.360  28.938  54.756  0.00  0.00     0.123 C 
ATOM     13  C   UNL d   1      53.396  28.175  55.057  0.00  0.00     0.029 C 
ENDBRANCH  11  12
ENDBRANCH   8  11
ENDBRANCH   4   5
ENDBRANCH   2   4
BRANCH   1  14
ATOM     14  C   UNL d   1      53.386  33.821  54.026  0.00  0.00     0.119 A 
ATOM     15  C   UNL d   1      53.815  34.024  54.700  0.00  0.00     0.084 A 
ATOM     16  C   UNL d   1      53.486  34.713  55.009  0.00  0.00     0.014 A 
ATOM     17  C   UNL d   1      52.845  34.941  54.523  0.00  0.00     0.037 A 
ATOM     18  S   UNL d   1      52.797  34.378  53.919  0.00  0.00    -0.067 SA
BRANCH  15  19
ATOM     19  C   UNL d   1      54.466  33.618  55.023  0.00  0.00     0.299 C 
ATOM     20  O   UNL d   1      54.364  33.048  55.600  0.00  0.00    -0.264 OA
ATOM     21  N   UNL d   1      55.229  33.800  54.750  0.00  0.00    -0.102 N 
ENDBRANCH  15  19
ENDBRANCH   1  14
TORSDOF 6
ENDMDL
MODEL 2
REMARK VINA RESULT:      -7.8      1.279      2.051
REMARK  6 active torsions:
REMARK  status: ('A' for Active; 'I' for Inactive)
REMARK    1  A    between atoms: N_3  and  C_1 
REMARK    2  A    between atoms: C_4  and  C_2 
REMARK       I    between atoms: C_6  and  N_3 
REMARK    3  A    between atoms: C_11  and  C_6 
REMARK    4  A    between atoms: C_13  and  C_11 
REMARK    5  A    between atoms: O_19  and  C_14 
REMARK    6  A    between atoms: C_20  and  O_19 
ROOT
ATOM      1  N   UNL d   1      52.383  32.969  52.810  0.00  0.00    -0.201 NA
ATOM      2  C   UNL d   1      52.995  32.430  52.931  0.00  0.00     0.280 C 
ATOM      3  O   UNL d   1      53.616  32.616  53.456  0.00  0.00    -0.265 OA
ENDROOT
BRANCH   2   4
ATOM      4  C   UNL d   1      52.995  31.705  52.533  0.00  0.00     0.062 C 
BRANCH   4   5
ATOM      5  C   UNL d   1      53.043  30.996  52.966  0.00  0.00     0.005 A 
ATOM      6  C   UNL d   1      52.362  30.554  53.112  0.00  0.00     0.002 A 
ATOM      7  C   UNL d   1      52.413  29.851  53.542  0.00  0.00     0.025 A 
ATOM      8  C   UNL d   1      53.156  29.587  53.829  0.00  0.00     0.100 A 
ATOM      9  C   UNL d   1      53.829  30.031  53.679  0.00  0.00     0.025 A 
ATOM     10  C   UNL d   1      53.786  30.731  53.253  0.00  0.00     0.002 A 
BRANCH   8  11
ATOM     11  O   UNL d   1      53.193  28.876  54.261  0.00  0.00    -0.305 OA
BRANCH  11  12
ATOM     12  C   UNL d   1      53.401  28.870  55.055  0.00  0.00     0.123 C 
ATOM     13  C   UNL d   1      53.418  28.168  55.480  0.00  0.00     0.029 C 
ENDBRANCH  11  12
ENDBRANCH   8  11
ENDBRANCH   4   5
ENDBRANCH   2   4
BRANCH   1  14
ATOM     14  C   UNL d   1      52.388  33.697  53.212  0.00  0.00     0.119 A 
ATOM     15  C   UNL d   1      51.816  34.285  53.132  0.00  0.00     0.084 A 
ATOM     16  C   UNL d   1      52.029  34.911  53.625  0.00  0.00     0.014 A 
ATOM     17  C   UNL d   1      52.741  34.709  54.016  0.00  0.00     0.037 A 
ATOM     18  S   UNL d   1      52.949  33.955  53.749  0.00  0.00    -0.067 SA
BRANCH  15  19
ATOM     19  C   UNL d   1      51.141  34.268  52.647  0.00  0.00     0.299 C 
ATOM     20  O   UNL d   1      51.195  34.402  51.842  0.00  0.00    -0.264 OA
ATOM     21  N   UNL d   1      50.402  34.111  52.992  0.00  0.00    -0.102 N 
ENDBRANCH  15  19
ENDBRANCH   1  14
TORSDOF 6
ENDMDL
MODEL 3
REMARK VINA RESULT:      -7.7      2.697      4.412
REMARK  6 active torsions:
REMARK  status: ('A' for Active; 'I' for Inactive)
REMARK    1  A    between atoms: N_3  and  C_1 
REMARK    2  A    between atoms: C_4  and  C_2 
REMARK       I    between atoms: C_6  and  N_3 
REMARK    3  A    between atoms: C_11  and  C_6 
REMARK    4  A    between atoms: C_13  and  C_11 
REMARK    5  A    between atoms: O_19  and  C_14 
REMARK    6  A    between atoms: C_20  and  O_19 
ROOT
ATOM      1  N   UNL d   1      52.975  33.188  53.361  0.00  0.00    -0.201 NA
ATOM      2  C   UNL d   1      52.399  33.329  52.788  0.00  0.00     0.280 C 
ATOM      3  O   UNL d   1      52.086  32.694  52.346  0.00  0.00    -0.265 OA
ENDROOT
BRANCH   2   4
ATOM      4  C   UNL d   1      52.130  34.099  52.649  0.00  0.00     0.062 C 
BRANCH   4   5
ATOM      5  C   UNL d   1      51.322  34.236  52.508  0.00  0.00     0.005 A 
ATOM      6  C   UNL d   1      50.819  34.426  53.133  0.00  0.00     0.002 A 
ATOM      7  C   UNL d   1      50.017  34.561  52.989  0.00  0.00     0.025 A 
ATOM      8  C   UNL d   1      49.715  34.505  52.208  0.00  0.00     0.100 A 
ATOM      9  C   UNL d   1      50.222  34.315  51.591  0.00  0.00     0.025 A 
ATOM     10  C   UNL d   1      51.020  34.180  51.727  0.00  0.00     0.002 A 
BRANCH   8  11
ATOM     11  O   UNL d   1      48.905  34.643  52.076  0.00  0.00    -0.305 OA
BRANCH  11  12
ATOM     12  C   UNL d   1      48.634  34.944  51.362  0.00  0.00     0.123 C 
ATOM     13  C   UNL d   1      47.846  35.151  51.264  0.00  0.00     0.029 C 
ENDBRANCH  11  12
ENDBRANCH   8  11
ENDBRANCH   4   5
ENDBRANCH   2   4
BRANCH   1  14
ATOM     14  C   UNL d   1      53.241  32.412  53.495  0.00  0.00     0.119 A 
ATOM     15  C   UNL d   1      53.841  32.202  54.021  0.00  0.00     0.084 A 
ATOM     16  C   UNL d   1      53.931  31.384  53.986  0.00  0.00     0.014 A 
ATOM     17  C   UNL d   1      53.381  31.081  53.433  0.00  0.00     0.037 A 
ATOM     18  S   UNL d   1      52.963  31.730  53.138  0.00  0.00    -0.067 SA
BRANCH  15  19
ATOM     19  C   UNL d   1      54.285  32.712  54.507  0.00  0.00     0.299 C 
ATOM     20  O   UNL d   1      54.938  33.109  54.217  0.00  0.00    -0.264 OA
ATOM     21  N   UNL d   1      54.055  32.814  55.299  0.00  0.00    -0.102 N 
ENDBRANCH  15  19
ENDBRANCH   1  14
TORSDOF 6
ENDMDL
MODEL 4
REMARK VINA RESULT:      -6.7      1.775      4.443
REMARK  6 active torsions:
REMARK  status: ('A' for Active; 'I' for Inactive)
REMARK    1  A    between atoms: N_3  and  C_1 
REMARK    2  A    between atoms: C_4  and  C_2 
REMARK       I    between atoms: C_6  and  N_3 
REMARK    3  A    between atoms: C_11  and  C_6 
REMARK    4  A    between atoms: C_13  and  C_11 
REMARK    5  A    between atoms: O_19  and  C_14 
REMARK    6  A    between atoms: C_20  and  O_19 
ROOT
ATOM      1  N   UNL d   1      53.783  30.795  53.806  0.00  0.00    -0.201 NA
ATOM      2  C   UNL d   1      53.838  31.533  53.443  0.00  0.00     0.280 C 
ATOM      3  O   UNL d   1      53.336  31.723  52.804  0.00  0.00    -0.265 OA
ENDROOT
BRANCH   2   4
ATOM      4  C   UNL d   1      54.391  32.088  53.710  0.00  0.00     0.062 C 
BRANCH   4   5
ATOM      5  C   UNL d   1      54.130  32.805  54.043  0.00  0.00     0.005 A 
ATOM      6  C   UNL d   1      54.269  32.965  54.840  0.00  0.00     0.002 A 
ATOM      7  C   UNL d   1      54.009  33.678  55.166  0.00  0.00     0.025 A 
ATOM      8  C   UNL d   1      53.605  34.237  54.688  0.00  0.00     0.100 A 
ATOM      9  C   UNL d   1      53.471  34.070  53.896  0.00  0.00     0.025 A 
ATOM     10  C   UNL d   1      53.727  33.364  53.565  0.00  0.00     0.002 A 
BRANCH   8  11
ATOM     11  O   UNL d   1      53.348  34.951  55.030  0.00  0.00    -0.305 OA
BRANCH  11  12
ATOM     12  C   UNL d   1      53.060  35.565  54.568  0.00  0.00     0.123 C 
ATOM     13  C   UNL d   1      52.856  36.286  54.904  0.00  0.00     0.029 C 
ENDBRANCH  11  12
ENDBRANCH   8  11
ENDBRANCH   4   5
ENDBRANCH   2   4
BRANCH   1  14
ATOM     14  C   UNL d   1      53.225  30.242  53.533  0.00  0.00     0.119 A 
ATOM     15  C   UNL d   1      53.031  29.538  53.916  0.00  0.00     0.084 A 
ATOM     16  C   UNL d   1      52.459  29.155  53.463  0.00  0.00     0.014 A 
ATOM     17  C   UNL d   1      52.296  29.626  52.791  0.00  0.00     0.037 A 
ATOM     18  S   UNL d   1      52.778  30.294  52.850  0.00  0.00    -0.067 SA
BRANCH  15  19
ATOM     19  C   UNL d   1      53.346  29.251  54.631  0.00  0.00     0.299 C 
ATOM     20  O   UNL d   1      53.151  29.595  55.346  0.00  0.00    -0.264 OA
ATOM     21  N   UNL d   1      53.866  28.604  54.610  0.00  0.00    -0.102 N 
ENDBRANCH  15  19
ENDBRANCH   1  14
TORSDOF 6
ENDMDL
MODEL 5
REMARK VINA RESULT:      -6.3      4.205      5.442
REMARK  6 active torsions:
REMARK  status: ('A' for Active; 'I' for Inactive)
REMARK    1  A    between atoms: N_3  and  C_1 
REMARK    2  A    between atoms: C_4  and  C_2 
REMARK       I    between atoms: C_6  and  N_3 
REMARK    3  A    between atoms: C_11  and  C_6 
REMARK    4  A    between atoms: C_13  and  C_11 
REMARK    5  A    between atoms: O_19  and  C_14 
REMARK    6  A    between atoms: C_20  and  O_19 
ROOT
ATOM      1  N   UNL d   1      48.719  35.210  52.499  0.00  0.00    -0.201 NA
ATOM      2  C   UNL d   1      49.459  34.991  52.787  0.00  0.00     0.280 C 
ATOM      3  O   UNL d   1      49.735  35.302  53.511  0.00  0.00    -0.265 OA
ENDROOT
BRANCH   2   4
ATOM      4  C   UNL d   1      49.932  34.462  52.360  0.00  0.00     0.062 C 
BRANCH   4   5
ATOM      5  C   UNL d   1      50.631  34.164  52.700  0.00  0.00     0.005 A 
ATOM      6  C   UNL d   1      50.607  33.479  53.159  0.00  0.00     0.002 A 
ATOM      7  C   UNL d   1      51.302  33.186  53.495  0.00  0.00     0.025 A 
ATOM      8  C   UNL d   1      52.030  33.584  53.370  0.00  0.00     0.100 A 
ATOM      9  C   UNL d   1      52.046  34.265  52.913  0.00  0.00     0.025 A 
ATOM     10  C   UNL d   1      51.358  34.562  52.575  0.00  0.00     0.002 A 
BRANCH   8  11
ATOM     11  O   UNL d   1      52.723  33.279  53.715  0.00  0.00    -0.305 OA
BRANCH  11  12
ATOM     12  C   UNL d   1      53.248  32.819  53.282  0.00  0.00     0.123 C 
ATOM     13  C   UNL d   1      53.933  32.525  53.625  0.00  0.00     0.029 C 
ENDBRANCH  11  12
ENDBRANCH   8  11
ENDBRANCH   4   5
ENDBRANCH   2   4
BRANCH   1  14
ATOM     14  C   UNL d   1      48.249  35.741  52.933  0.00  0.00     0.119 A 
ATOM     15  C   UNL d   1      47.545  36.077  52.665  0.00  0.00     0.084 A 
ATOM     16  C   UNL d   1      47.257  36.568  53.261  0.00  0.00     0.014 A 
ATOM     17  C   UNL d   1      47.789  36.537  53.907  0.00  0.00     0.037 A 
ATOM     18  S   UNL d   1      48.396  36.022  53.687  0.00  0.00    -0.067 SA
BRANCH  15  19
ATOM     19  C   UNL d   1      47.177  35.953  51.929  0.00  0.00     0.299 C 
ATOM     20  O   UNL d   1      47.437  36.338  51.257  0.00  0.00    -0.264 OA
ATOM     21  N   UNL d   1      46.535  35.428  51.884  0.00  0.00    -0.102 N 
ENDBRANCH  15  19
ENDBRANCH   1  14
TORSDOF 6
ENDMDL
