MODEL 1
REMARK VINA RESULT:       3.4      0.000      0.000
REMARK  5 active torsions:
REMARK  status: ('A' for Active; 'I' for Inactive)
REMARK    1  A    between atoms: N_2  and  S_1 
REMARK    2  A    between atoms: C_14  and  S_1 
REMARK    3  A    between atoms: C_4  and  N_2 
REMARK    4  A    between atoms: S_6  and  C_3 
REMARK    5  A    between atoms: C_10  and  S_6 
ROOT
ATOM      1  C   UNL d   1      32.915  20.639 -23.426  0.00  0.00     0.070 A 
ATOM      2  C   UNL d   1      33.104  21.928 -22.850  0.00  0.00     0.095 A 
ATOM      3  C   UNL d   1      32.841  20.983 -24.173  0.00  0.00     0.202 A 
ATOM      4  C   UNL d   1      33.046  21.112 -22.765  0.00  0.00     0.030 A 
ATOM      5  C   UNL d   1      32.900  21.800 -24.257  0.00  0.00     0.041 A 
ATOM      6  C   UNL d   1      33.031  22.273 -23.596  0.00  0.00     0.022 A 
ATOM      7  O   UNL d   1      32.707  20.505 -24.850  0.00  0.00    -0.286 OA
ATOM      8  C   UNL d   1      32.826  22.148 -25.011  0.00  0.00     0.003 A 
ATOM      9  C   UNL d   1      33.090  23.093 -23.679  0.00  0.00     0.002 A 
ATOM     10  C   UNL d   1      32.884  22.965 -25.096  0.00  0.00     0.000 A 
ATOM     11  C   UNL d   1      33.016  23.441 -24.433  0.00  0.00     0.000 A 
ENDROOT
BRANCH   1  12
ATOM     12  S   UNL d   1      32.857  19.822 -23.341  0.00  0.00    -0.082 SA
BRANCH  12  13
ATOM     13  C   UNL d   1      32.797  19.003 -23.252  0.00  0.00     0.047 A 
ATOM     14  C   UNL d   1      32.398  18.551 -23.815  0.00  0.00     0.087 A 
ATOM     15  N   UNL d   1      32.057  18.922 -24.469  0.00  0.00    -0.244 NA
ATOM     16  C   UNL d   1      32.341  17.736 -23.724  0.00  0.00     0.018 A 
ATOM     17  C   UNL d   1      31.658  18.470 -25.032  0.00  0.00     0.099 A 
ATOM     18  C   UNL d   1      31.602  17.650 -24.938  0.00  0.00     0.021 A 
ATOM     19  C   UNL d   1      31.937  17.280 -24.292  0.00  0.00     0.003 A 
ATOM     20  C   UNL d   1      32.679  17.367 -23.075  0.00  0.00     0.002 A 
ATOM     21  C   UNL d   1      33.080  17.809 -22.506  0.00  0.00     0.001 A 
ATOM     22  C   UNL d   1      33.141  18.632 -22.593  0.00  0.00     0.008 A 
ENDBRANCH  12  13
ENDBRANCH   1  12
BRANCH   2  23
ATOM     23  N   UNL d   1      33.239  22.407 -22.173  0.00  0.00    -0.158 NA
BRANCH  23  24
ATOM     24  S   UNL d   1      32.730  22.351 -21.523  0.00  0.00     0.285 S 
ATOM     25  O   UNL d   1      33.241  21.795 -21.167  0.00  0.00    -0.198 OA
ATOM     26  O   UNL d   1      32.222  22.900 -21.873  0.00  0.00    -0.198 OA
BRANCH  24  27
ATOM     27  C   UNL d   1      32.218  22.295 -20.871  0.00  0.00     0.105 A 
ATOM     28  C   UNL d   1      31.763  22.943 -20.647  0.00  0.00     0.013 A 
ATOM     29  C   UNL d   1      31.249  22.893 -19.995  0.00  0.00     0.001 A 
ATOM     30  C   UNL d   1      31.195  22.183 -19.568  0.00  0.00     0.000 A 
ATOM     31  C   UNL d   1      31.658  21.530 -19.801  0.00  0.00     0.001 A 
ATOM     32  C   UNL d   1      32.164  21.589 -20.447  0.00  0.00     0.013 A 
ENDBRANCH  24  27
ENDBRANCH  23  24
ENDBRANCH   2  23
TORSDOF 5
ENDMDL
MODEL 2
REMARK VINA RESULT:       4.3      1.627      4.768
REMARK  5 active torsions:
REMARK  status: ('A' for Active; 'I' for Inactive)
REMARK    1  A    between atoms: N_2  and  S_1 
REMARK    2  A    between atoms: C_14  and  S_1 
REMARK    3  A    between atoms: C_4  and  N_2 
REMARK    4  A    between atoms: S_6  and  C_3 
REMARK    5  A    between atoms: C_10  and  S_6 
ROOT
ATOM      1  C   UNL d   1      33.069  19.874 -22.238  0.00  0.00     0.070 A 
ATOM      2  C   UNL d   1      33.140  18.639 -22.946  0.00  0.00     0.095 A 
ATOM      3  C   UNL d   1      33.094  20.285 -22.952  0.00  0.00     0.202 A 
ATOM      4  C   UNL d   1      33.092  19.050 -22.235  0.00  0.00     0.030 A 
ATOM      5  C   UNL d   1      33.143  19.873 -23.663  0.00  0.00     0.041 A 
ATOM      6  C   UNL d   1      33.166  19.051 -23.661  0.00  0.00     0.022 A 
ATOM      7  O   UNL d   1      33.071  21.125 -22.959  0.00  0.00    -0.286 OA
ATOM      8  C   UNL d   1      33.169  20.290 -24.386  0.00  0.00     0.003 A 
ATOM      9  C   UNL d   1      33.214  18.636 -24.374  0.00  0.00     0.002 A 
ATOM     10  C   UNL d   1      33.217  19.879 -25.097  0.00  0.00     0.000 A 
ATOM     11  C   UNL d   1      33.240  19.052 -25.096  0.00  0.00     0.000 A 
ENDROOT
BRANCH   1  12
ATOM     12  S   UNL d   1      33.021  20.284 -21.526  0.00  0.00    -0.082 SA
BRANCH  12  13
ATOM     13  C   UNL d   1      32.975  20.697 -20.812  0.00  0.00     0.047 A 
ATOM     14  C   UNL d   1      32.669  21.464 -20.793  0.00  0.00     0.087 A 
ATOM     15  N   UNL d   1      32.409  21.816 -21.492  0.00  0.00    -0.244 NA
ATOM     16  C   UNL d   1      32.625  21.872 -20.081  0.00  0.00     0.018 A 
ATOM     17  C   UNL d   1      32.104  22.583 -21.474  0.00  0.00     0.099 A 
ATOM     18  C   UNL d   1      32.060  22.991 -20.756  0.00  0.00     0.021 A 
ATOM     19  C   UNL d   1      32.317  22.646 -20.062  0.00  0.00     0.003 A 
ATOM     20  C   UNL d   1      32.883  21.523 -19.386  0.00  0.00     0.002 A 
ATOM     21  C   UNL d   1      33.190  20.757 -19.393  0.00  0.00     0.001 A 
ATOM     22  C   UNL d   1      33.237  20.340 -20.109  0.00  0.00     0.008 A 
ENDBRANCH  12  13
ENDBRANCH   1  12
BRANCH   2  23
ATOM     23  N   UNL d   1      33.163  17.799 -22.939  0.00  0.00    -0.158 NA
BRANCH  23  24
ATOM     24  S   UNL d   1      32.472  17.369 -23.084  0.00  0.00     0.285 S 
ATOM     25  O   UNL d   1      32.152  17.633 -22.360  0.00  0.00    -0.198 OA
ATOM     26  O   UNL d   1      32.786  17.105 -23.801  0.00  0.00    -0.198 OA
BRANCH  24  27
ATOM     27  C   UNL d   1      31.778  16.936 -23.231  0.00  0.00     0.105 A 
ATOM     28  C   UNL d   1      31.784  16.115 -23.172  0.00  0.00     0.013 A 
ATOM     29  C   UNL d   1      31.093  15.676 -23.318  0.00  0.00     0.001 A 
ATOM     30  C   UNL d   1      30.392  16.070 -23.524  0.00  0.00     0.000 A 
ATOM     31  C   UNL d   1      30.393  16.902 -23.581  0.00  0.00     0.001 A 
ATOM     32  C   UNL d   1      31.082  17.328 -23.435  0.00  0.00     0.013 A 
ENDBRANCH  24  27
ENDBRANCH  23  24
ENDBRANCH   2  23
TORSDOF 5
ENDMDL
MODEL 3
REMARK VINA RESULT:       4.5      1.599      2.257
REMARK  5 active torsions:
REMARK  status: ('A' for Active; 'I' for Inactive)
REMARK    1  A    between atoms: N_2  and  S_1 
REMARK    2  A    between atoms: C_14  and  S_1 
REMARK    3  A    between atoms: C_4  and  N_2 
REMARK    4  A    between atoms: S_6  and  C_3 
REMARK    5  A    between atoms: C_10  and  S_6 
ROOT
ATOM      1  C   UNL d   1      31.991  18.684 -23.745  0.00  0.00     0.070 A 
ATOM      2  C   UNL d   1      32.812  19.640 -23.080  0.00  0.00     0.095 A 
ATOM      3  C   UNL d   1      31.969  19.167 -24.413  0.00  0.00     0.202 A 
ATOM      4  C   UNL d   1      32.412  18.920 -23.078  0.00  0.00     0.030 A 
ATOM      5  C   UNL d   1      32.370  19.887 -24.414  0.00  0.00     0.041 A 
ATOM      6  C   UNL d   1      32.791  20.123 -23.748  0.00  0.00     0.022 A 
ATOM      7  O   UNL d   1      31.541  18.930 -25.096  0.00  0.00    -0.286 OA
ATOM      8  C   UNL d   1      32.348  20.376 -25.090  0.00  0.00     0.003 A 
ATOM      9  C   UNL d   1      33.193  20.846 -23.747  0.00  0.00     0.002 A 
ATOM     10  C   UNL d   1      32.748  21.095 -25.091  0.00  0.00     0.000 A 
ATOM     11  C   UNL d   1      33.172  21.334 -24.423  0.00  0.00     0.000 A 
ENDROOT
BRANCH   1  12
ATOM     12  S   UNL d   1      31.591  17.964 -23.743  0.00  0.00    -0.082 SA
BRANCH  12  13
ATOM     13  C   UNL d   1      31.189  17.243 -23.744  0.00  0.00     0.047 A 
ATOM     14  C   UNL d   1      30.383  17.215 -23.918  0.00  0.00     0.087 A 
ATOM     15  N   UNL d   1      29.979  17.913 -24.093  0.00  0.00    -0.244 NA
ATOM     16  C   UNL d   1      29.986  16.494 -23.918  0.00  0.00     0.018 A 
ATOM     17  C   UNL d   1      29.174  17.885 -24.268  0.00  0.00     0.099 A 
ATOM     18  C   UNL d   1      28.777  17.159 -24.267  0.00  0.00     0.021 A 
ATOM     19  C   UNL d   1      29.173  16.466 -24.095  0.00  0.00     0.003 A 
ATOM     20  C   UNL d   1      30.387  15.800 -23.745  0.00  0.00     0.002 A 
ATOM     21  C   UNL d   1      31.192  15.816 -23.569  0.00  0.00     0.001 A 
ATOM     22  C   UNL d   1      31.598  16.541 -23.568  0.00  0.00     0.008 A 
ENDBRANCH  12  13
ENDBRANCH   1  12
BRANCH   2  23
ATOM     23  N   UNL d   1      33.241  19.877 -22.397  0.00  0.00    -0.158 NA
BRANCH  23  24
ATOM     24  S   UNL d   1      32.877  20.359 -21.831  0.00  0.00     0.285 S 
ATOM     25  O   UNL d   1      33.189  21.037 -22.205  0.00  0.00    -0.198 OA
ATOM     26  O   UNL d   1      32.568  19.690 -21.459  0.00  0.00    -0.198 OA
BRANCH  24  27
ATOM     27  C   UNL d   1      32.512  20.842 -21.263  0.00  0.00     0.105 A 
ATOM     28  C   UNL d   1      32.956  21.168 -20.652  0.00  0.00     0.013 A 
ATOM     29  C   UNL d   1      32.596  21.653 -20.079  0.00  0.00     0.001 A 
ATOM     30  C   UNL d   1      31.782  21.807 -20.126  0.00  0.00     0.000 A 
ATOM     31  C   UNL d   1      31.338  21.474 -20.748  0.00  0.00     0.001 A 
ATOM     32  C   UNL d   1      31.703  20.996 -21.309  0.00  0.00     0.013 A 
ENDBRANCH  24  27
ENDBRANCH  23  24
ENDBRANCH   2  23
TORSDOF 5
ENDMDL
