MODEL 1
REMARK VINA RESULT:      -8.1      0.000      0.000
REMARK  6 active torsions:
REMARK  status: ('A' for Active; 'I' for Inactive)
REMARK    1  A    between atoms: C_3  and  N_1 
REMARK       I    between atoms: C_2  and  N_5 
REMARK       I    between atoms: N_10  and  C_2 
REMARK    2  A    between atoms: N_5  and  C_8 
REMARK    3  A    between atoms: C_17  and  N_10 
REMARK    4  A    between atoms: O_18  and  C_11 
REMARK    5  A    between atoms: C_12  and  C_22 
REMARK    6  A    between atoms: C_22  and  C_17 
ROOT
ATOM      1  C   UNL d   1      51.641  33.579  52.883  0.00  0.00     0.369 C 
ATOM      2  N   UNL d   1      52.435  33.437  52.696  0.00  0.00    -0.191 NA
ATOM      3  O   UNL d   1      51.289  33.166  53.507  0.00  0.00    -0.242 OA
ATOM      4  N   UNL d   1      51.214  34.122  52.455  0.00  0.00    -0.189 NA
ENDROOT
BRANCH   2   5
ATOM      5  C   UNL d   1      52.871  32.887  53.129  0.00  0.00     0.088 A 
ATOM      6  C   UNL d   1      53.376  33.137  53.724  0.00  0.00     0.043 A 
ATOM      7  C   UNL d   1      53.809  32.597  54.155  0.00  0.00     0.128 A 
ATOM      8  C   UNL d   1      53.741  31.789  53.994  0.00  0.00     0.024 A 
ATOM      9  C   UNL d   1      53.233  31.533  53.394  0.00  0.00     0.003 A 
ATOM     10  C   UNL d   1      52.798  32.083  52.961  0.00  0.00     0.019 A 
BRANCH   7  11
ATOM     11  N   UNL d   1      54.318  32.851  54.757  0.00  0.00    -0.114 N 
ATOM     12  O   UNL d   1      54.975  33.307  54.575  0.00  0.00    -0.532 OA
ATOM     13  O   UNL d   1      54.163  32.644  55.534  0.00  0.00    -0.532 OA
ENDBRANCH   7  11
ENDBRANCH   2   5
BRANCH   4  14
ATOM     14  C   UNL d   1      50.420  34.264  52.643  0.00  0.00     0.104 C 
BRANCH  14  15
ATOM     15  C   UNL d   1      49.894  34.514  52.058  0.00  0.00     0.021 C 
BRANCH  15  16
ATOM     16  C   UNL d   1      49.216  34.924  52.266  0.00  0.00     0.002 A 
ATOM     17  C   UNL d   1      48.585  34.962  51.742  0.00  0.00     0.002 A 
ATOM     18  C   UNL d   1      47.898  35.376  51.950  0.00  0.00     0.024 A 
ATOM     19  C   UNL d   1      47.856  35.745  52.680  0.00  0.00     0.094 A 
ATOM     20  C   UNL d   1      48.484  35.707  53.201  0.00  0.00     0.024 A 
ATOM     21  C   UNL d   1      49.171  35.293  52.994  0.00  0.00     0.002 A 
BRANCH  19  22
ATOM     22  O   UNL d   1      47.174  36.158  52.890  0.00  0.00    -0.328 OA
ATOM     23  C   UNL d   1      46.661  36.428  52.303  0.00  0.00     0.181 C 
ENDBRANCH  19  22
ENDBRANCH  15  16
ENDBRANCH  14  15
ENDBRANCH   4  14
TORSDOF 6
ENDMDL
MODEL 2
REMARK VINA RESULT:      -7.8      1.703      5.999
REMARK  6 active torsions:
REMARK  status: ('A' for Active; 'I' for Inactive)
REMARK    1  A    between atoms: C_3  and  N_1 
REMARK       I    between atoms: C_2  and  N_5 
REMARK       I    between atoms: N_10  and  C_2 
REMARK    2  A    between atoms: N_5  and  C_8 
REMARK    3  A    between atoms: C_17  and  N_10 
REMARK    4  A    between atoms: O_18  and  C_11 
REMARK    5  A    between atoms: C_12  and  C_22 
REMARK    6  A    between atoms: C_22  and  C_17 
ROOT
ATOM      1  C   UNL d   1      51.234  33.453  52.714  0.00  0.00     0.369 C 
ATOM      2  N   UNL d   1      51.026  34.135  52.294  0.00  0.00    -0.191 NA
ATOM      3  O   UNL d   1      50.693  33.118  53.243  0.00  0.00    -0.242 OA
ATOM      4  N   UNL d   1      51.966  33.116  52.606  0.00  0.00    -0.189 NA
ENDROOT
BRANCH   2   5
ATOM      5  C   UNL d   1      50.284  34.478  52.402  0.00  0.00     0.088 A 
ATOM      6  C   UNL d   1      49.734  34.472  51.795  0.00  0.00     0.043 A 
ATOM      7  C   UNL d   1      48.999  34.810  51.896  0.00  0.00     0.128 A 
ATOM      8  C   UNL d   1      48.803  35.163  52.618  0.00  0.00     0.024 A 
ATOM      9  C   UNL d   1      49.354  35.171  53.233  0.00  0.00     0.003 A 
ATOM     10  C   UNL d   1      50.096  34.828  53.125  0.00  0.00     0.019 A 
BRANCH   7  11
ATOM     11  N   UNL d   1      48.444  34.803  51.282  0.00  0.00    -0.114 N 
ATOM     12  O   UNL d   1      48.512  34.259  50.672  0.00  0.00    -0.532 OA
ATOM     13  O   UNL d   1      47.828  35.343  51.286  0.00  0.00    -0.532 OA
ENDBRANCH   7  11
ENDBRANCH   2   5
BRANCH   4  14
ATOM     14  C   UNL d   1      52.174  32.435  53.026  0.00  0.00     0.104 C 
BRANCH  14  15
ATOM     15  C   UNL d   1      52.883  32.045  52.862  0.00  0.00     0.021 C 
BRANCH  15  16
ATOM     16  C   UNL d   1      53.018  31.296  53.164  0.00  0.00     0.002 A 
ATOM     17  C   UNL d   1      53.538  31.196  53.790  0.00  0.00     0.002 A 
ATOM     18  C   UNL d   1      53.677  30.439  54.098  0.00  0.00     0.024 A 
ATOM     19  C   UNL d   1      53.290  29.795  53.770  0.00  0.00     0.094 A 
ATOM     20  C   UNL d   1      52.772  29.895  53.147  0.00  0.00     0.024 A 
ATOM     21  C   UNL d   1      52.634  30.651  52.839  0.00  0.00     0.002 A 
BRANCH  19  22
ATOM     22  O   UNL d   1      53.426  29.041  54.074  0.00  0.00    -0.328 OA
ATOM     23  C   UNL d   1      53.308  28.893  54.877  0.00  0.00     0.181 C 
ENDBRANCH  19  22
ENDBRANCH  15  16
ENDBRANCH  14  15
ENDBRANCH   4  14
TORSDOF 6
ENDMDL
MODEL 3
REMARK VINA RESULT:      -7.7      1.172      1.406
REMARK  6 active torsions:
REMARK  status: ('A' for Active; 'I' for Inactive)
REMARK    1  A    between atoms: C_3  and  N_1 
REMARK       I    between atoms: C_2  and  N_5 
REMARK       I    between atoms: N_10  and  C_2 
REMARK    2  A    between atoms: N_5  and  C_8 
REMARK    3  A    between atoms: C_17  and  N_10 
REMARK    4  A    between atoms: O_18  and  C_11 
REMARK    5  A    between atoms: C_12  and  C_22 
REMARK    6  A    between atoms: C_22  and  C_17 
ROOT
ATOM      1  C   UNL d   1      51.569  33.597  52.950  0.00  0.00     0.369 C 
ATOM      2  N   UNL d   1      52.353  33.420  52.748  0.00  0.00    -0.191 NA
ATOM      3  O   UNL d   1      51.216  33.212  53.592  0.00  0.00    -0.242 OA
ATOM      4  N   UNL d   1      51.152  34.146  52.518  0.00  0.00    -0.189 NA
ENDROOT
BRANCH   2   5
ATOM      5  C   UNL d   1      52.777  32.864  53.184  0.00  0.00     0.088 A 
ATOM      6  C   UNL d   1      52.776  32.076  52.961  0.00  0.00     0.043 A 
ATOM      7  C   UNL d   1      53.194  31.522  53.388  0.00  0.00     0.128 A 
ATOM      8  C   UNL d   1      53.626  31.754  54.055  0.00  0.00     0.024 A 
ATOM      9  C   UNL d   1      53.630  32.548  54.284  0.00  0.00     0.003 A 
ATOM     10  C   UNL d   1      53.205  33.104  53.847  0.00  0.00     0.019 A 
BRANCH   7  11
ATOM     11  N   UNL d   1      53.192  30.726  53.162  0.00  0.00    -0.114 N 
ATOM     12  O   UNL d   1      53.522  30.157  53.652  0.00  0.00    -0.532 OA
ATOM     13  O   UNL d   1      52.859  30.509  52.445  0.00  0.00    -0.532 OA
ENDBRANCH   7  11
ENDBRANCH   2   5
BRANCH   4  14
ATOM     14  C   UNL d   1      50.370  34.322  52.721  0.00  0.00     0.104 C 
BRANCH  14  15
ATOM     15  C   UNL d   1      49.837  34.572  52.141  0.00  0.00     0.021 C 
BRANCH  15  16
ATOM     16  C   UNL d   1      49.162  34.982  52.356  0.00  0.00     0.002 A 
ATOM     17  C   UNL d   1      48.528  35.025  51.836  0.00  0.00     0.002 A 
ATOM     18  C   UNL d   1      47.843  35.439  52.051  0.00  0.00     0.024 A 
ATOM     19  C   UNL d   1      47.806  35.803  52.784  0.00  0.00     0.094 A 
ATOM     20  C   UNL d   1      48.436  35.759  53.301  0.00  0.00     0.024 A 
ATOM     21  C   UNL d   1      49.121  35.346  53.087  0.00  0.00     0.002 A 
BRANCH  19  22
ATOM     22  O   UNL d   1      47.125  36.215  53.000  0.00  0.00    -0.328 OA
ATOM     23  C   UNL d   1      46.690  36.619  52.427  0.00  0.00     0.181 C 
ENDBRANCH  19  22
ENDBRANCH  15  16
ENDBRANCH  14  15
ENDBRANCH   4  14
TORSDOF 6
ENDMDL
MODEL 4
REMARK VINA RESULT:      -7.7      1.868      6.308
REMARK  6 active torsions:
REMARK  status: ('A' for Active; 'I' for Inactive)
REMARK    1  A    between atoms: C_3  and  N_1 
REMARK       I    between atoms: C_2  and  N_5 
REMARK       I    between atoms: N_10  and  C_2 
REMARK    2  A    between atoms: N_5  and  C_8 
REMARK    3  A    between atoms: C_17  and  N_10 
REMARK    4  A    between atoms: O_18  and  C_11 
REMARK    5  A    between atoms: C_12  and  C_22 
REMARK    6  A    between atoms: C_22  and  C_17 
ROOT
ATOM      1  C   UNL d   1      48.904  35.041  52.151  0.00  0.00     0.369 C 
ATOM      2  N   UNL d   1      48.343  35.252  51.579  0.00  0.00    -0.191 NA
ATOM      3  O   UNL d   1      48.744  35.184  52.951  0.00  0.00    -0.242 OA
ATOM      4  N   UNL d   1      49.605  34.697  51.926  0.00  0.00    -0.189 NA
ENDROOT
BRANCH   2   5
ATOM      5  C   UNL d   1      47.631  35.601  51.806  0.00  0.00     0.088 A 
ATOM      6  C   UNL d   1      46.918  35.238  51.626  0.00  0.00     0.043 A 
ATOM      7  C   UNL d   1      46.212  35.579  51.847  0.00  0.00     0.128 A 
ATOM      8  C   UNL d   1      46.210  36.297  52.257  0.00  0.00     0.024 A 
ATOM      9  C   UNL d   1      46.926  36.666  52.441  0.00  0.00     0.003 A 
ATOM     10  C   UNL d   1      47.638  36.317  52.214  0.00  0.00     0.019 A 
BRANCH   7  11
ATOM     11  N   UNL d   1      45.492  35.212  51.665  0.00  0.00    -0.114 N 
ATOM     12  O   UNL d   1      45.192  35.250  50.903  0.00  0.00    -0.532 OA
ATOM     13  O   UNL d   1      45.083  34.811  52.250  0.00  0.00    -0.532 OA
ENDBRANCH   7  11
ENDBRANCH   2   5
BRANCH   4  14
ATOM     14  C   UNL d   1      50.165  34.488  52.498  0.00  0.00     0.104 C 
BRANCH  14  15
ATOM     15  C   UNL d   1      50.891  34.168  52.271  0.00  0.00     0.021 C 
BRANCH  15  16
ATOM     16  C   UNL d   1      51.481  34.056  52.827  0.00  0.00     0.002 A 
ATOM     17  C   UNL d   1      51.547  33.334  53.213  0.00  0.00     0.002 A 
ATOM     18  C   UNL d   1      52.144  33.219  53.777  0.00  0.00     0.024 A 
ATOM     19  C   UNL d   1      52.664  33.829  53.944  0.00  0.00     0.094 A 
ATOM     20  C   UNL d   1      52.598  34.547  53.560  0.00  0.00     0.024 A 
ATOM     21  C   UNL d   1      52.002  34.663  52.996  0.00  0.00     0.002 A 
BRANCH  19  22
ATOM     22  O   UNL d   1      53.258  33.716  54.504  0.00  0.00    -0.328 OA
ATOM     23  C   UNL d   1      53.841  33.148  54.376  0.00  0.00     0.181 C 
ENDBRANCH  19  22
ENDBRANCH  15  16
ENDBRANCH  14  15
ENDBRANCH   4  14
TORSDOF 6
ENDMDL
