MODEL 1
REMARK VINA RESULT:      -8.6      0.000      0.000
REMARK  5 active torsions:
REMARK  status: ('A' for Active; 'I' for Inactive)
REMARK    1  A    between atoms: C_6  and  C_3 
REMARK    2  A    between atoms: C_7  and  C_6 
REMARK    3  A    between atoms: C_8  and  C_7 
REMARK    4  A    between atoms: O_16  and  C_10 
REMARK    5  A    between atoms: O_17  and  C_12 
ROOT
ATOM      1  C   UNL d   1      53.851  32.617  53.694  0.00  0.00     0.198 C 
ATOM      2  O   UNL d   1      54.439  32.504  53.122  0.00  0.00    -0.286 OA
ENDROOT
BRANCH   1   3
ATOM      3  C   UNL d   1      53.552  31.964  54.110  0.00  0.00     0.067 C 
BRANCH   3   4
ATOM      4  C   UNL d   1      53.383  31.265  53.709  0.00  0.00     0.107 A 
ATOM      5  O   UNL d   1      53.231  31.186  52.893  0.00  0.00    -0.273 OA
ATOM      6  C   UNL d   1      53.091  30.394  52.734  0.00  0.00     0.300 A 
ATOM      7  C   UNL d   1      53.155  29.975  53.447  0.00  0.00     0.065 A 
ATOM      8  O   UNL d   1      52.916  30.066  51.995  0.00  0.00    -0.259 OA
ATOM      9  C   UNL d   1      53.335  30.515  54.045  0.00  0.00     0.028 A 
ATOM     10  C   UNL d   1      53.071  29.173  53.622  0.00  0.00     0.005 A 
ATOM     11  C   UNL d   1      53.433  30.252  54.828  0.00  0.00     0.002 A 
ATOM     12  C   UNL d   1      53.350  29.451  55.003  0.00  0.00     0.000 A 
ATOM     13  C   UNL d   1      53.168  28.911  54.396  0.00  0.00     0.000 A 
ENDBRANCH   3   4
ENDBRANCH   1   3
BRANCH   1  14
ATOM     14  C   UNL d   1      53.561  33.370  53.852  0.00  0.00     0.041 A 
ATOM     15  C   UNL d   1      53.026  33.716  53.333  0.00  0.00     0.029 A 
ATOM     16  C   UNL d   1      52.729  34.471  53.482  0.00  0.00     0.116 A 
ATOM     17  C   UNL d   1      52.972  34.880  54.158  0.00  0.00     0.116 A 
ATOM     18  C   UNL d   1      53.512  34.528  54.680  0.00  0.00     0.026 A 
ATOM     19  C   UNL d   1      53.802  33.775  54.522  0.00  0.00     0.005 A 
BRANCH  16  20
ATOM     20  O   UNL d   1      52.194  34.817  52.962  0.00  0.00    -0.326 OA
ATOM     21  C   UNL d   1      51.649  34.343  52.555  0.00  0.00     0.181 C 
ENDBRANCH  16  20
BRANCH  17  22
ATOM     22  O   UNL d   1      52.682  35.634  54.317  0.00  0.00    -0.326 OA
ATOM     23  C   UNL d   1      53.036  36.106  54.897  0.00  0.00     0.181 C 
ENDBRANCH  17  22
ENDBRANCH   1  14
TORSDOF 5
ENDMDL
MODEL 2
REMARK VINA RESULT:      -8.2      2.438      5.078
REMARK  5 active torsions:
REMARK  status: ('A' for Active; 'I' for Inactive)
REMARK    1  A    between atoms: C_6  and  C_3 
REMARK    2  A    between atoms: C_7  and  C_6 
REMARK    3  A    between atoms: C_8  and  C_7 
REMARK    4  A    between atoms: O_16  and  C_10 
REMARK    5  A    between atoms: O_17  and  C_12 
ROOT
ATOM      1  C   UNL d   1      51.044  34.301  52.487  0.00  0.00     0.198 C 
ATOM      2  O   UNL d   1      51.107  34.357  51.664  0.00  0.00    -0.286 OA
ENDROOT
BRANCH   1   3
ATOM      3  C   UNL d   1      50.321  34.474  52.856  0.00  0.00     0.067 C 
BRANCH   3   4
ATOM      4  C   UNL d   1      49.654  34.627  52.399  0.00  0.00     0.107 A 
ATOM      5  O   UNL d   1      49.493  34.324  51.639  0.00  0.00    -0.273 OA
ATOM      6  C   UNL d   1      48.769  34.620  51.393  0.00  0.00     0.300 A 
ATOM      7  C   UNL d   1      48.475  35.109  51.994  0.00  0.00     0.065 A 
ATOM      8  O   UNL d   1      48.395  34.463  50.672  0.00  0.00    -0.259 OA
ATOM      9  C   UNL d   1      49.022  35.111  52.613  0.00  0.00     0.028 A 
ATOM     10  C   UNL d   1      47.780  35.549  52.053  0.00  0.00     0.005 A 
ATOM     11  C   UNL d   1      48.875  35.557  53.299  0.00  0.00     0.002 A 
ATOM     12  C   UNL d   1      48.180  35.997  53.358  0.00  0.00     0.000 A 
ATOM     13  C   UNL d   1      47.632  35.992  52.731  0.00  0.00     0.000 A 
ENDBRANCH   3   4
ENDBRANCH   1   3
BRANCH   1  14
ATOM     14  C   UNL d   1      51.691  34.075  52.941  0.00  0.00     0.041 A 
ATOM     15  C   UNL d   1      51.872  33.277  53.020  0.00  0.00     0.029 A 
ATOM     16  C   UNL d   1      52.519  33.039  53.473  0.00  0.00     0.116 A 
ATOM     17  C   UNL d   1      52.986  33.608  53.850  0.00  0.00     0.116 A 
ATOM     18  C   UNL d   1      52.801  34.412  53.768  0.00  0.00     0.026 A 
ATOM     19  C   UNL d   1      52.154  34.639  53.314  0.00  0.00     0.005 A 
BRANCH  16  20
ATOM     20  O   UNL d   1      52.700  32.241  53.553  0.00  0.00    -0.326 OA
ATOM     21  C   UNL d   1      52.624  31.734  52.901  0.00  0.00     0.181 C 
ENDBRANCH  16  20
BRANCH  17  22
ATOM     22  O   UNL d   1      53.634  33.382  54.304  0.00  0.00    -0.326 OA
ATOM     23  C   UNL d   1      54.014  33.930  54.794  0.00  0.00     0.181 C 
ENDBRANCH  17  22
ENDBRANCH   1  14
TORSDOF 5
ENDMDL
MODEL 3
REMARK VINA RESULT:      -8.2      2.076      3.494
REMARK  5 active torsions:
REMARK  status: ('A' for Active; 'I' for Inactive)
REMARK    1  A    between atoms: C_6  and  C_3 
REMARK    2  A    between atoms: C_7  and  C_6 
REMARK    3  A    between atoms: C_8  and  C_7 
REMARK    4  A    between atoms: O_16  and  C_10 
REMARK    5  A    between atoms: O_17  and  C_12 
ROOT
ATOM      1  C   UNL d   1      51.171  34.081  52.560  0.00  0.00     0.198 C 
ATOM      2  O   UNL d   1      51.511  33.930  51.821  0.00  0.00    -0.286 OA
ENDROOT
BRANCH   1   3
ATOM      3  C   UNL d   1      51.573  33.856  53.251  0.00  0.00     0.067 C 
BRANCH   3   4
ATOM      4  C   UNL d   1      52.119  33.240  53.225  0.00  0.00     0.107 A 
ATOM      5  O   UNL d   1      52.077  32.560  52.743  0.00  0.00    -0.273 OA
ATOM      6  C   UNL d   1      52.736  32.097  52.897  0.00  0.00     0.300 A 
ATOM      7  C   UNL d   1      53.191  32.482  53.473  0.00  0.00     0.065 A 
ATOM      8  O   UNL d   1      52.918  31.371  52.542  0.00  0.00    -0.259 OA
ATOM      9  C   UNL d   1      52.808  33.186  53.672  0.00  0.00     0.028 A 
ATOM     10  C   UNL d   1      53.902  32.279  53.837  0.00  0.00     0.005 A 
ATOM     11  C   UNL d   1      53.138  33.694  54.242  0.00  0.00     0.002 A 
ATOM     12  C   UNL d   1      53.850  33.490  54.606  0.00  0.00     0.000 A 
ATOM     13  C   UNL d   1      54.232  32.779  54.402  0.00  0.00     0.000 A 
ENDBRANCH   3   4
ENDBRANCH   1   3
BRANCH   1  14
ATOM     14  C   UNL d   1      50.439  34.451  52.616  0.00  0.00     0.041 A 
ATOM     15  C   UNL d   1      49.931  34.442  51.970  0.00  0.00     0.029 A 
ATOM     16  C   UNL d   1      49.194  34.811  52.015  0.00  0.00     0.116 A 
ATOM     17  C   UNL d   1      48.967  35.190  52.714  0.00  0.00     0.116 A 
ATOM     18  C   UNL d   1      49.483  35.197  53.363  0.00  0.00     0.026 A 
ATOM     19  C   UNL d   1      50.215  34.827  53.308  0.00  0.00     0.005 A 
BRANCH  16  20
ATOM     20  O   UNL d   1      48.685  34.802  51.369  0.00  0.00    -0.326 OA
ATOM     21  C   UNL d   1      48.909  34.413  50.672  0.00  0.00     0.181 C 
ENDBRANCH  16  20
BRANCH  17  22
ATOM     22  O   UNL d   1      48.235  35.561  52.769  0.00  0.00    -0.326 OA
ATOM     23  C   UNL d   1      48.053  36.036  53.422  0.00  0.00     0.181 C 
ENDBRANCH  17  22
ENDBRANCH   1  14
TORSDOF 5
ENDMDL
MODEL 4
REMARK VINA RESULT:      -8.2      1.803      3.333
REMARK  5 active torsions:
REMARK  status: ('A' for Active; 'I' for Inactive)
REMARK    1  A    between atoms: C_6  and  C_3 
REMARK    2  A    between atoms: C_7  and  C_6 
REMARK    3  A    between atoms: C_8  and  C_7 
REMARK    4  A    between atoms: O_16  and  C_10 
REMARK    5  A    between atoms: O_17  and  C_12 
ROOT
ATOM      1  C   UNL d   1      51.650  33.935  52.828  0.00  0.00     0.198 C 
ATOM      2  O   UNL d   1      52.228  34.502  52.998  0.00  0.00    -0.286 OA
ENDROOT
BRANCH   1   3
ATOM      3  C   UNL d   1      51.790  33.137  53.013  0.00  0.00     0.067 C 
BRANCH   3   4
ATOM      4  C   UNL d   1      52.518  32.910  53.321  0.00  0.00     0.107 A 
ATOM      5  O   UNL d   1      53.071  33.404  53.703  0.00  0.00    -0.273 OA
ATOM      6  C   UNL d   1      53.716  32.947  53.920  0.00  0.00     0.300 A 
ATOM      7  C   UNL d   1      53.572  32.168  53.676  0.00  0.00     0.065 A 
ATOM      8  O   UNL d   1      54.395  33.212  54.313  0.00  0.00    -0.259 OA
ATOM      9  C   UNL d   1      52.833  32.149  53.308  0.00  0.00     0.028 A 
ATOM     10  C   UNL d   1      54.020  31.479  53.744  0.00  0.00     0.005 A 
ATOM     11  C   UNL d   1      52.537  31.434  53.003  0.00  0.00     0.002 A 
ATOM     12  C   UNL d   1      52.985  30.745  53.072  0.00  0.00     0.000 A 
ATOM     13  C   UNL d   1      53.729  30.770  53.444  0.00  0.00     0.000 A 
ENDBRANCH   3   4
ENDBRANCH   1   3
BRANCH   1  14
ATOM     14  C   UNL d   1      50.939  34.154  52.479  0.00  0.00     0.041 A 
ATOM     15  C   UNL d   1      50.336  34.461  52.946  0.00  0.00     0.029 A 
ATOM     16  C   UNL d   1      49.619  34.685  52.606  0.00  0.00     0.116 A 
ATOM     17  C   UNL d   1      49.507  34.600  51.791  0.00  0.00     0.116 A 
ATOM     18  C   UNL d   1      50.118  34.290  51.323  0.00  0.00     0.026 A 
ATOM     19  C   UNL d   1      50.829  34.070  51.672  0.00  0.00     0.005 A 
BRANCH  16  20
ATOM     20  O   UNL d   1      49.015  34.991  53.073  0.00  0.00    -0.326 OA
ATOM     21  C   UNL d   1      49.184  35.580  53.632  0.00  0.00     0.181 C 
ENDBRANCH  16  20
BRANCH  17  22
ATOM     22  O   UNL d   1      48.795  34.820  51.442  0.00  0.00    -0.326 OA
ATOM     23  C   UNL d   1      48.613  34.576  50.672  0.00  0.00     0.181 C 
ENDBRANCH  17  22
ENDBRANCH   1  14
TORSDOF 5
ENDMDL
MODEL 5
REMARK VINA RESULT:      -8.2      1.072      4.492
REMARK  5 active torsions:
REMARK  status: ('A' for Active; 'I' for Inactive)
REMARK    1  A    between atoms: C_6  and  C_3 
REMARK    2  A    between atoms: C_7  and  C_6 
REMARK    3  A    between atoms: C_8  and  C_7 
REMARK    4  A    between atoms: O_16  and  C_10 
REMARK    5  A    between atoms: O_17  and  C_12 
ROOT
ATOM      1  C   UNL d   1      53.052  31.879  53.003  0.00  0.00     0.198 C 
ATOM      2  O   UNL d   1      52.876  32.024  52.207  0.00  0.00    -0.286 OA
ENDROOT
BRANCH   1   3
ATOM      3  C   UNL d   1      53.215  32.516  53.510  0.00  0.00     0.067 C 
BRANCH   3   4
ATOM      4  C   UNL d   1      52.852  33.243  53.384  0.00  0.00     0.107 A 
ATOM      5  O   UNL d   1      52.279  33.418  52.803  0.00  0.00    -0.273 OA
ATOM      6  C   UNL d   1      52.071  34.207  52.877  0.00  0.00     0.300 A 
ATOM      7  C   UNL d   1      52.510  34.530  53.501  0.00  0.00     0.065 A 
ATOM      8  O   UNL d   1      51.520  34.614  52.412  0.00  0.00    -0.259 OA
ATOM      9  C   UNL d   1      52.990  33.934  53.811  0.00  0.00     0.028 A 
ATOM     10  C   UNL d   1      52.531  35.289  53.823  0.00  0.00     0.005 A 
ATOM     11  C   UNL d   1      53.497  34.096  54.450  0.00  0.00     0.002 A 
ATOM     12  C   UNL d   1      53.518  34.855  54.771  0.00  0.00     0.000 A 
ATOM     13  C   UNL d   1      53.032  35.453  54.455  0.00  0.00     0.000 A 
ENDBRANCH   3   4
ENDBRANCH   1   3
BRANCH   1  14
ATOM     14  C   UNL d   1      53.068  31.111  53.294  0.00  0.00     0.041 A 
ATOM     15  C   UNL d   1      52.382  30.658  53.280  0.00  0.00     0.029 A 
ATOM     16  C   UNL d   1      52.386  29.886  53.570  0.00  0.00     0.116 A 
ATOM     17  C   UNL d   1      53.085  29.567  53.876  0.00  0.00     0.116 A 
ATOM     18  C   UNL d   1      53.775  30.026  53.889  0.00  0.00     0.026 A 
ATOM     19  C   UNL d   1      53.760  30.795  53.597  0.00  0.00     0.005 A 
BRANCH  16  20
ATOM     20  O   UNL d   1      51.699  29.433  53.556  0.00  0.00    -0.326 OA
ATOM     21  C   UNL d   1      50.962  29.797  53.664  0.00  0.00     0.181 C 
ENDBRANCH  16  20
BRANCH  17  22
ATOM     22  O   UNL d   1      53.100  28.797  54.167  0.00  0.00    -0.326 OA
ATOM     23  C   UNL d   1      53.685  28.564  54.704  0.00  0.00     0.181 C 
ENDBRANCH  17  22
ENDBRANCH   1  14
TORSDOF 5
ENDMDL
