MODEL 1
REMARK VINA RESULT:      77.0      0.000      0.000
REMARK  5 active torsions:
REMARK  status: ('A' for Active; 'I' for Inactive)
REMARK    1  A    between atoms: S_2  and  C_12 
REMARK    2  A    between atoms: N_7  and  S_2 
REMARK    3  A    between atoms: C_5  and  N_7 
REMARK    4  A    between atoms: O_26  and  C_22 
REMARK    5  A    between atoms: C_27  and  O_26 
ROOT
ATOM      1  S   UNL d   1     -47.807  29.170  35.264  0.00  0.00     0.287 S 
ATOM      2  O   UNL d   1     -47.511  29.058  34.495  0.00  0.00    -0.198 OA
ATOM      3  O   UNL d   1     -48.105  29.288  36.039  0.00  0.00    -0.198 OA
ENDROOT
BRANCH   1   4
ATOM      4  C   UNL d   1     -47.683  29.994  35.190  0.00  0.00     0.107 A 
ATOM      5  C   UNL d   1     -48.090  30.426  34.612  0.00  0.00     0.032 A 
ATOM      6  C   UNL d   1     -47.968  31.235  34.540  0.00  0.00     0.085 A 
ATOM      7  N   UNL d   1     -48.285  31.802  34.030  0.00  0.00    -0.256 N 
ATOM      8  C   UNL d   1     -47.437  31.623  35.046  0.00  0.00     0.085 A 
ATOM      9  C   UNL d   1     -47.947  32.533  34.224  0.00  0.00     0.339 A 
ATOM     10  C   UNL d   1     -48.835  31.670  33.436  0.00  0.00     0.104 C 
ATOM     11  N   UNL d   1     -47.432  32.425  34.841  0.00  0.00    -0.256 N 
ATOM     12  O   UNL d   1     -48.104  33.258  33.856  0.00  0.00    -0.245 OA
ATOM     13  C   UNL d   1     -46.982  33.007  35.204  0.00  0.00     0.104 C 
ATOM     14  C   UNL d   1     -47.034  31.185  35.621  0.00  0.00     0.020 A 
ATOM     15  C   UNL d   1     -47.156  30.375  35.693  0.00  0.00     0.015 A 
ENDBRANCH   1   4
BRANCH   1  16
ATOM     16  N   UNL d   1     -47.933  28.351  35.344  0.00  0.00    -0.132 NA
BRANCH  16  17
ATOM     17  C   UNL d   1     -48.545  27.982  34.934  0.00  0.00     0.206 A 
ATOM     18  N   UNL d   1     -48.382  27.376  34.402  0.00  0.00    -0.220 NA
ATOM     19  C   UNL d   1     -49.102  27.119  34.080  0.00  0.00     0.090 A 
ATOM     20  C   UNL d   1     -49.292  26.537  33.528  0.00  0.00     0.022 A 
ATOM     21  C   UNL d   1     -49.702  27.574  34.422  0.00  0.00     0.052 A 
ATOM     22  C   UNL d   1     -50.069  26.410  33.318  0.00  0.00     0.026 A 
ATOM     23  C   UNL d   1     -50.672  26.859  33.653  0.00  0.00     0.101 A 
ATOM     24  C   UNL d   1     -50.486  27.443  34.208  0.00  0.00     0.033 A 
ATOM     25  S   UNL d   1     -49.376  28.102  34.942  0.00  0.00    -0.046 SA
BRANCH  23  26
ATOM     26  O   UNL d   1     -51.462  26.733  33.443  0.00  0.00    -0.305 OA
BRANCH  26  27
ATOM     27  C   UNL d   1     -51.781  25.968  33.509  0.00  0.00     0.123 C 
ATOM     28  C   UNL d   1     -52.574  25.834  33.326  0.00  0.00     0.029 C 
ENDBRANCH  26  27
ENDBRANCH  23  26
ENDBRANCH  16  17
ENDBRANCH   1  16
TORSDOF 5
ENDMDL
