MODEL 1
REMARK VINA RESULT:      90.6      0.000      0.000
REMARK  8 active torsions:
REMARK  status: ('A' for Active; 'I' for Inactive)
REMARK    1  A    between atoms: N_4  and  S_1 
REMARK    2  A    between atoms: C_10  and  S_1 
REMARK    3  A    between atoms: C_7  and  N_2 
REMARK    4  A    between atoms: N_3  and  C_6 
REMARK    5  A    between atoms: C_5  and  N_4 
REMARK    6  A    between atoms: C_6  and  C_5 
REMARK    7  A    between atoms: C_11  and  C_6 
REMARK    8  A    between atoms: O_19  and  C_17 
ROOT
ATOM      1  C   UNL d   1     -50.334  25.755  33.534  0.00  0.00     0.086 C 
ENDROOT
BRANCH   1   2
ATOM      2  N   UNL d   1     -49.938  26.425  33.815  0.00  0.00    -0.300 N 
ATOM      3  C   UNL d   1     -49.684  26.456  34.603  0.00  0.00     0.100 A 
ATOM      4  C   UNL d   1     -49.291  27.121  34.884  0.00  0.00     0.100 A 
ATOM      5  N   UNL d   1     -49.148  27.758  34.383  0.00  0.00    -0.300 N 
ATOM      6  C   UNL d   1     -49.399  27.731  33.602  0.00  0.00     0.100 A 
ATOM      7  C   UNL d   1     -49.796  27.063  33.315  0.00  0.00     0.100 A 
BRANCH   5   8
ATOM      8  C   UNL d   1     -48.756  28.422  34.665  0.00  0.00     0.086 A 
ATOM      9  C   UNL d   1     -47.939  28.409  34.751  0.00  0.00     0.110 A 
ATOM     10  C   UNL d   1     -47.543  29.075  35.033  0.00  0.00     0.026 A 
ATOM     11  C   UNL d   1     -47.971  29.760  35.230  0.00  0.00     0.002 A 
ATOM     12  C   UNL d   1     -48.791  29.771  35.143  0.00  0.00     0.002 A 
ATOM     13  C   UNL d   1     -49.184  29.107  34.862  0.00  0.00     0.019 A 
BRANCH   9  14
ATOM     14  O   UNL d   1     -47.515  27.731  34.555  0.00  0.00    -0.327 OA
ATOM     15  C   UNL d   1     -46.911  27.468  35.046  0.00  0.00     0.181 C 
ENDBRANCH   9  14
ENDBRANCH   5   8
ENDBRANCH   1   2
BRANCH   1  16
ATOM     16  C   UNL d   1     -51.132  25.807  33.306  0.00  0.00     0.130 C 
BRANCH  16  17
ATOM     17  N   UNL d   1     -51.710  25.411  33.743  0.00  0.00    -0.155 NA
BRANCH  17  18
ATOM     18  S   UNL d   1     -52.507  25.614  33.648  0.00  0.00     0.285 S 
ATOM     19  O   UNL d   1     -53.302  25.814  33.554  0.00  0.00    -0.198 OA
ATOM     20  O   UNL d   1     -52.297  26.414  33.674  0.00  0.00    -0.198 OA
BRANCH  18  21
ATOM     21  C   UNL d   1     -52.712  24.807  33.623  0.00  0.00     0.105 A 
ATOM     22  C   UNL d   1     -53.449  24.582  33.335  0.00  0.00     0.013 A 
ATOM     23  C   UNL d   1     -53.656  23.789  33.308  0.00  0.00     0.001 A 
ATOM     24  C   UNL d   1     -53.117  23.200  33.574  0.00  0.00     0.000 A 
ATOM     25  C   UNL d   1     -52.374  23.434  33.864  0.00  0.00     0.001 A 
ATOM     26  C   UNL d   1     -52.178  24.239  33.886  0.00  0.00     0.013 A 
ENDBRANCH  18  21
ENDBRANCH  17  18
ENDBRANCH  16  17
ENDBRANCH   1  16
BRANCH   1  27
ATOM     27  C   UNL d   1     -49.940  25.035  33.479  0.00  0.00     0.037 A 
ATOM     28  C   UNL d   1     -49.126  25.018  33.368  0.00  0.00     0.100 A 
ATOM     29  N   UNL d   1     -48.728  24.290  33.312  0.00  0.00    -0.242 NA
ATOM     30  C   UNL d   1     -49.148  23.587  33.368  0.00  0.00     0.099 A 
ATOM     31  C   UNL d   1     -49.962  23.603  33.479  0.00  0.00     0.021 A 
ATOM     32  C   UNL d   1     -50.360  24.331  33.535  0.00  0.00     0.005 A 
ENDBRANCH   1  27
TORSDOF 8
ENDMDL
