MODEL 1
REMARK VINA RESULT:       5.8      0.000      0.000
REMARK  5 active torsions:
REMARK  status: ('A' for Active; 'I' for Inactive)
REMARK       I    between atoms: N_4  and  C_1 
REMARK       I    between atoms: N_8  and  C_1 
REMARK    1  A    between atoms: C_2  and  C_3 
REMARK    2  A    between atoms: C_5  and  C_2 
REMARK    3  A    between atoms: N_6  and  C_2 
REMARK    4  A    between atoms: C_3  and  N_4 
REMARK    5  A    between atoms: C_12  and  N_8 
ROOT
ATOM      1  C   UNL d   1     -42.106-121.802 -50.536  0.00  0.00     0.103 C 
ATOM      2  C   UNL d   1     -42.034-121.037 -50.261  0.00  0.00     0.022 C 
ENDROOT
BRANCH   1   3
ATOM      3  C   UNL d   1     -42.435-122.387 -50.060  0.00  0.00     0.088 C 
BRANCH   3   4
ATOM      4  C   UNL d   1     -43.194-122.658 -50.208  0.00  0.00     0.047 A 
ATOM      5  S   UNL d   1     -43.427-123.445 -50.283  0.00  0.00    -0.085 SA
ATOM      6  C   UNL d   1     -44.240-123.461 -50.430  0.00  0.00     0.035 A 
ATOM      7  C   UNL d   1     -44.517-122.682 -50.447  0.00  0.00     0.007 A 
ATOM      8  C   UNL d   1     -43.870-122.188 -50.310  0.00  0.00     0.009 A 
ENDBRANCH   3   4
BRANCH   3   9
ATOM      9  N   UNL d   1     -41.998-122.704 -49.429  0.00  0.00    -0.299 N 
ATOM     10  C   UNL d   1     -41.803-123.501 -49.420  0.00  0.00     0.107 A 
ATOM     11  C   UNL d   1     -41.370-123.817 -48.796  0.00  0.00     0.142 A 
ATOM     12  O   UNL d   1     -41.123-123.333 -48.166  0.00  0.00    -0.300 OA
ATOM     13  C   UNL d   1     -41.322-122.526 -48.180  0.00  0.00     0.142 A 
ATOM     14  C   UNL d   1     -41.757-122.210 -48.807  0.00  0.00     0.107 A 
ENDBRANCH   3   9
ENDBRANCH   1   3
BRANCH   1  15
ATOM     15  N   UNL d   1     -41.846-121.992 -51.301  0.00  0.00    -0.190 NA
ATOM     16  C   UNL d   1     -41.384-121.456 -51.720  0.00  0.00     0.369 C 
ATOM     17  N   UNL d   1     -41.127-121.647 -52.482  0.00  0.00    -0.191 NA
ATOM     18  O   UNL d   1     -41.178-120.735 -51.387  0.00  0.00    -0.242 OA
BRANCH  17  19
ATOM     19  C   UNL d   1     -41.332-122.371 -52.820  0.00  0.00     0.086 A 
ATOM     20  C   UNL d   1     -41.740-122.387 -53.535  0.00  0.00     0.019 A 
ATOM     21  C   UNL d   1     -41.944-123.103 -53.871  0.00  0.00     0.002 A 
ATOM     22  C   UNL d   1     -42.355-123.125 -54.591  0.00  0.00     0.000 C 
ATOM     23  C   UNL d   1     -41.742-123.817 -53.494  0.00  0.00     0.000 A 
ATOM     24  C   UNL d   1     -41.333-123.799 -52.778  0.00  0.00     0.002 A 
ATOM     25  C   UNL d   1     -41.127-123.070 -52.439  0.00  0.00     0.019 A 
ENDBRANCH  17  19
ENDBRANCH   1  15
TORSDOF 5
ENDMDL
