MODEL 1
REMARK VINA RESULT:      63.0      0.000      0.000
REMARK  5 active torsions:
REMARK  status: ('A' for Active; 'I' for Inactive)
REMARK    1  A    between atoms: C_13  and  C_2 
REMARK       I    between atoms: N_7  and  C_10 
REMARK    2  A    between atoms: S_14  and  C_8 
REMARK    3  A    between atoms: C_20  and  N_9 
REMARK    4  A    between atoms: C_10  and  C_19 
REMARK    5  A    between atoms: C_19  and  S_14 
ROOT
ATOM      1  S   UNL d   1      13.265  15.038  -4.268  0.00  0.00    -0.061 SA
ENDROOT
BRANCH   1   2
ATOM      2  C   UNL d   1      13.226  14.219  -4.165  0.00  0.00     0.131 A 
ATOM      3  N   UNL d   1      13.546  13.870  -3.489  0.00  0.00    -0.156 NA
ATOM      4  N   UNL d   1      13.507  13.039  -3.385  0.00  0.00    -0.191 N 
ATOM      5  C   UNL d   1      13.773  12.554  -2.781  0.00  0.00     0.187 A 
ATOM      6  C   UNL d   1      13.148  12.579  -3.961  0.00  0.00     0.187 A 
ATOM      7  N   UNL d   1      13.581  11.781  -2.977  0.00  0.00    -0.127 NA
ATOM      8  N   UNL d   1      13.194  11.788  -3.706  0.00  0.00    -0.127 NA
ATOM      9  C   UNL d   1      12.828  12.928  -4.637  0.00  0.00     0.043 A 
ATOM     10  C   UNL d   1      12.867  13.747  -4.739  0.00  0.00     0.031 A 
BRANCH   5  11
ATOM     11  C   UNL d   1      14.163  12.790  -2.100  0.00  0.00     0.038 A 
ATOM     12  C   UNL d   1      14.079  12.364  -1.405  0.00  0.00     0.003 A 
ATOM     13  C   UNL d   1      14.471  12.600  -0.716  0.00  0.00     0.000 A 
ATOM     14  C   UNL d   1      14.951  13.274  -0.735  0.00  0.00     0.000 A 
ATOM     15  C   UNL d   1      15.038  13.706  -1.432  0.00  0.00     0.000 A 
ATOM     16  C   UNL d   1      14.643  13.464  -2.119  0.00  0.00     0.003 A 
ENDBRANCH   5  11
ENDBRANCH   1   2
BRANCH   1  17
ATOM     17  C   UNL d   1      13.791  15.358  -4.813  0.00  0.00     0.098 C 
BRANCH  17  18
ATOM     18  C   UNL d   1      13.505  15.738  -5.478  0.00  0.00     0.272 C 
ATOM     19  N   UNL d   1      13.666  16.540  -5.588  0.00  0.00    -0.269 N 
ATOM     20  C   UNL d   1      13.380  16.917  -6.251  0.00  0.00     0.102 A 
ATOM     21  C   UNL d   1      14.113  16.950  -5.028  0.00  0.00     0.102 A 
ATOM     22  C   UNL d   1      13.536  17.707  -6.363  0.00  0.00     0.100 A 
ATOM     23  N   UNL d   1      13.982  18.133  -5.811  0.00  0.00    -0.301 N 
ATOM     24  C   UNL d   1      14.269  17.745  -5.142  0.00  0.00     0.100 A 
ATOM     25  O   UNL d   1      13.061  15.326  -6.034  0.00  0.00    -0.266 OA
BRANCH  23  26
ATOM     26  C   UNL d   1      14.135  18.928  -5.930  0.00  0.00     0.064 A 
ATOM     27  C   UNL d   1      14.863  19.248  -5.719  0.00  0.00     0.018 A 
ATOM     28  C   UNL d   1      15.012  20.052  -5.842  0.00  0.00     0.002 A 
ATOM     29  C   UNL d   1      14.434  20.526  -6.173  0.00  0.00     0.000 A 
ATOM     30  C   UNL d   1      13.693  20.207  -6.388  0.00  0.00     0.002 A 
ATOM     31  C   UNL d   1      13.551  19.408  -6.264  0.00  0.00     0.018 A 
ENDBRANCH  23  26
ENDBRANCH  17  18
ENDBRANCH   1  17
TORSDOF 5
ENDMDL
