MODEL 1
REMARK VINA RESULT:      -4.5      0.000      0.000
REMARK  7 active torsions:
REMARK  status: ('A' for Active; 'I' for Inactive)
REMARK    1  A    between atoms: N_4  and  C_1 
REMARK    2  A    between atoms: C_9  and  C_2 
REMARK    3  A    between atoms: C_7  and  N_4 
REMARK    4  A    between atoms: N_8  and  C_7 
REMARK       I    between atoms: C_10  and  N_8 
REMARK    5  A    between atoms: C_15  and  C_10 
REMARK    6  A    between atoms: C_18  and  C_15 
REMARK    7  A    between atoms: C_19  and  C_18 
ROOT
ATOM      1  C   UNL d   1     -41.583-123.157 -51.081  0.00  0.00     0.224 C 
ATOM      2  S   UNL d   1     -41.123-123.817 -50.892  0.00  0.00    -0.037 SA
ENDROOT
BRANCH   1   3
ATOM      3  N   UNL d   1     -42.172-122.911 -50.588  0.00  0.00    -0.211 NA
BRANCH   3   4
ATOM      4  C   UNL d   1     -42.106-123.031 -49.784  0.00  0.00     0.118 A 
ATOM      5  C   UNL d   1     -42.730-123.088 -49.246  0.00  0.00     0.084 A 
ATOM      6  C   UNL d   1     -42.419-123.206 -48.520  0.00  0.00     0.013 A 
ATOM      7  C   UNL d   1     -42.854-123.294 -47.813  0.00  0.00     0.001 C 
ATOM      8  C   UNL d   1     -41.634-123.226 -48.571  0.00  0.00     0.031 A 
ATOM      9  S   UNL d   1     -41.424-123.120 -49.345  0.00  0.00    -0.068 SA
ATOM     10  C   UNL d   1     -41.128-123.338 -47.923  0.00  0.00     0.007 C 
BRANCH   5  11
ATOM     11  C   UNL d   1     -43.540-123.032 -49.435  0.00  0.00     0.299 C 
ATOM     12  O   UNL d   1     -43.983-123.716 -49.569  0.00  0.00    -0.264 OA
ATOM     13  N   UNL d   1     -43.912-122.287 -49.491  0.00  0.00    -0.102 N 
ENDBRANCH   5  11
ENDBRANCH   3   4
ENDBRANCH   1   3
BRANCH   1  14
ATOM     14  N   UNL d   1     -41.445-122.742 -51.777  0.00  0.00    -0.179 NA
ATOM     15  C   UNL d   1     -41.613-123.061 -52.496  0.00  0.00     0.281 C 
ATOM     16  O   UNL d   1     -41.925-123.808 -52.547  0.00  0.00    -0.265 OA
BRANCH  15  17
ATOM     17  C   UNL d   1     -41.473-122.639 -53.205  0.00  0.00     0.063 C 
BRANCH  17  18
ATOM     18  C   UNL d   1     -41.496-123.021 -53.915  0.00  0.00     0.005 C 
BRANCH  18  19
ATOM     19  C   UNL d   1     -41.728-122.597 -54.583  0.00  0.00     0.000 A 
ATOM     20  C   UNL d   1     -41.208-122.069 -54.960  0.00  0.00     0.000 A 
ATOM     21  C   UNL d   1     -41.449-121.657 -55.617  0.00  0.00     0.000 A 
ATOM     22  C   UNL d   1     -42.221-121.759 -55.921  0.00  0.00     0.000 A 
ATOM     23  C   UNL d   1     -42.731-122.281 -55.546  0.00  0.00     0.000 A 
ATOM     24  C   UNL d   1     -42.472-122.696 -54.874  0.00  0.00     0.000 A 
ENDBRANCH  18  19
ENDBRANCH  17  18
ENDBRANCH  15  17
ENDBRANCH   1  14
TORSDOF 7
ENDMDL
MODEL 2
REMARK VINA RESULT:      -3.4      1.329      5.435
REMARK  7 active torsions:
REMARK  status: ('A' for Active; 'I' for Inactive)
REMARK    1  A    between atoms: N_4  and  C_1 
REMARK    2  A    between atoms: C_9  and  C_2 
REMARK    3  A    between atoms: C_7  and  N_4 
REMARK    4  A    between atoms: N_8  and  C_7 
REMARK       I    between atoms: C_10  and  N_8 
REMARK    5  A    between atoms: C_15  and  C_10 
REMARK    6  A    between atoms: C_18  and  C_15 
REMARK    7  A    between atoms: C_19  and  C_18 
ROOT
ATOM      1  C   UNL d   1     -41.388-122.942 -52.252  0.00  0.00     0.224 C 
ATOM      2  S   UNL d   1     -41.123-123.692 -52.479  0.00  0.00    -0.037 SA
ENDROOT
BRANCH   1   3
ATOM      3  N   UNL d   1     -41.631-122.407 -52.804  0.00  0.00    -0.211 NA
BRANCH   3   4
ATOM      4  C   UNL d   1     -41.631-122.610 -53.595  0.00  0.00     0.118 A 
ATOM      5  C   UNL d   1     -42.039-122.221 -54.198  0.00  0.00     0.084 A 
ATOM      6  C   UNL d   1     -41.885-122.601 -54.883  0.00  0.00     0.013 A 
ATOM      7  C   UNL d   1     -42.187-122.392 -55.634  0.00  0.00     0.001 C 
ATOM      8  C   UNL d   1     -41.403-123.207 -54.745  0.00  0.00     0.031 A 
ATOM      9  S   UNL d   1     -41.236-123.227 -53.954  0.00  0.00    -0.068 SA
ATOM     10  C   UNL d   1     -41.126-123.725 -55.330  0.00  0.00     0.007 C 
BRANCH   5  11
ATOM     11  C   UNL d   1     -42.525-121.550 -54.101  0.00  0.00     0.299 C 
ATOM     12  O   UNL d   1     -43.344-121.636 -54.039  0.00  0.00    -0.264 OA
ATOM     13  N   UNL d   1     -42.191-120.785 -54.067  0.00  0.00    -0.102 N 
ENDBRANCH   5  11
ENDBRANCH   3   4
ENDBRANCH   1   3
BRANCH   1  14
ATOM     14  N   UNL d   1     -41.406-122.733 -51.458  0.00  0.00    -0.179 NA
ATOM     15  C   UNL d   1     -41.824-123.162 -50.920  0.00  0.00     0.281 C 
ATOM     16  O   UNL d   1     -42.238-123.817 -51.157  0.00  0.00    -0.265 OA
BRANCH  15  17
ATOM     17  C   UNL d   1     -41.843-122.949 -50.111  0.00  0.00     0.063 C 
BRANCH  17  18
ATOM     18  C   UNL d   1     -42.368-123.303 -49.612  0.00  0.00     0.005 C 
BRANCH  18  19
ATOM     19  C   UNL d   1     -42.251-123.229 -48.799  0.00  0.00     0.000 A 
ATOM     20  C   UNL d   1     -41.520-123.418 -48.451  0.00  0.00     0.000 A 
ATOM     21  C   UNL d   1     -41.418-123.340 -47.649  0.00  0.00     0.000 A 
ATOM     22  C   UNL d   1     -42.045-123.069 -47.166  0.00  0.00     0.000 A 
ATOM     23  C   UNL d   1     -42.763-122.884 -47.514  0.00  0.00     0.000 A 
ATOM     24  C   UNL d   1     -42.856-122.968 -48.336  0.00  0.00     0.000 A 
ENDBRANCH  18  19
ENDBRANCH  17  18
ENDBRANCH  15  17
ENDBRANCH   1  14
TORSDOF 7
ENDMDL
