MODEL 1
REMARK VINA RESULT:     -11.7      0.000      0.000
REMARK  2 active torsions:
REMARK  status: ('A' for Active; 'I' for Inactive)
REMARK    1  A    between atoms: C_9  and  C_1 
REMARK    2  A    between atoms: N_7  and  C_2 
ROOT
ATOM      1  C   UNL d   1      53.227  32.714  53.682  0.00  0.00     0.022 A 
ATOM      2  C   UNL d   1      52.675  33.263  53.426  0.00  0.00     0.123 A 
ATOM      3  C   UNL d   1      52.056  33.032  52.955  0.00  0.00     0.295 A 
ATOM      4  C   UNL d   1      53.154  31.911  53.458  0.00  0.00     0.020 A 
ATOM      5  N   UNL d   1      51.974  32.247  52.729  0.00  0.00    -0.207 NA
ATOM      6  C   UNL d   1      52.535  31.680  52.988  0.00  0.00     0.085 A 
ATOM      7  C   UNL d   1      53.704  31.371  53.714  0.00  0.00     0.013 A 
ATOM      8  O   UNL d   1      51.506  33.622  52.710  0.00  0.00    -0.264 OA
ATOM      9  C   UNL d   1      52.451  30.903  52.762  0.00  0.00     0.020 A 
ATOM     10  C   UNL d   1      53.631  30.568  53.490  0.00  0.00     0.058 A 
ATOM     11  C   UNL d   1      53.012  30.337  53.020  0.00  0.00     0.013 A 
ATOM     12 CL   UNL d   1      54.180  29.982  53.736  0.00  0.00    -0.082 Cl
ENDROOT
BRANCH   1  13
ATOM     13  C   UNL d   1      53.864  32.952  54.165  0.00  0.00     0.002 A 
ATOM     14  C   UNL d   1      53.786  32.948  54.976  0.00  0.00     0.000 A 
ATOM     15  C   UNL d   1      54.414  33.183  55.453  0.00  0.00     0.000 A 
ATOM     16  C   UNL d   1      55.123  33.421  55.103  0.00  0.00     0.000 A 
ATOM     17  C   UNL d   1      55.206  33.427  54.292  0.00  0.00     0.000 A 
ATOM     18  C   UNL d   1      54.568  33.189  53.808  0.00  0.00     0.000 A 
ENDBRANCH   1  13
BRANCH   2  19
ATOM     19  N   UNL d   1      52.759  34.035  53.650  0.00  0.00    -0.296 N 
ATOM     20  C   UNL d   1      53.165  34.565  53.151  0.00  0.00     0.107 A 
ATOM     21  C   UNL d   1      53.257  35.359  53.371  0.00  0.00     0.142 A 
ATOM     22  O   UNL d   1      52.940  35.627  54.094  0.00  0.00    -0.300 OA
ATOM     23  C   UNL d   1      52.540  35.102  54.585  0.00  0.00     0.142 A 
ATOM     24  C   UNL d   1      52.443  34.306  54.373  0.00  0.00     0.107 A 
ENDBRANCH   2  19
TORSDOF 2
ENDMDL
MODEL 2
REMARK VINA RESULT:     -10.9      1.176      2.402
REMARK  2 active torsions:
REMARK  status: ('A' for Active; 'I' for Inactive)
REMARK    1  A    between atoms: C_9  and  C_1 
REMARK    2  A    between atoms: N_7  and  C_2 
ROOT
ATOM      1  C   UNL d   1      53.012  33.081  53.690  0.00  0.00     0.022 A 
ATOM      2  C   UNL d   1      53.501  33.544  54.156  0.00  0.00     0.123 A 
ATOM      3  C   UNL d   1      54.150  33.218  54.517  0.00  0.00     0.295 A 
ATOM      4  C   UNL d   1      53.181  32.269  53.584  0.00  0.00     0.020 A 
ATOM      5  N   UNL d   1      54.326  32.422  54.421  0.00  0.00    -0.207 NA
ATOM      6  C   UNL d   1      53.830  31.943  53.945  0.00  0.00     0.085 A 
ATOM      7  C   UNL d   1      52.693  31.813  53.121  0.00  0.00     0.013 A 
ATOM      8  O   UNL d   1      54.633  33.724  54.991  0.00  0.00    -0.264 OA
ATOM      9  C   UNL d   1      54.007  31.154  53.852  0.00  0.00     0.020 A 
ATOM     10  C   UNL d   1      52.862  31.001  53.015  0.00  0.00     0.058 A 
ATOM     11  C   UNL d   1      53.511  30.675  53.376  0.00  0.00     0.013 A 
ATOM     12 CL   UNL d   1      52.381  30.500  52.543  0.00  0.00    -0.082 Cl
ENDROOT
BRANCH   1  13
ATOM     13  C   UNL d   1      52.344  33.416  53.318  0.00  0.00     0.002 A 
ATOM     14  C   UNL d   1      52.413  33.760  52.583  0.00  0.00     0.000 A 
ATOM     15  C   UNL d   1      51.754  34.090  52.217  0.00  0.00     0.000 A 
ATOM     16  C   UNL d   1      51.024  34.069  52.600  0.00  0.00     0.000 A 
ATOM     17  C   UNL d   1      50.950  33.726  53.336  0.00  0.00     0.000 A 
ATOM     18  C   UNL d   1      51.618  33.391  53.708  0.00  0.00     0.000 A 
ENDBRANCH   1  13
BRANCH   2  19
ATOM     19  N   UNL d   1      53.325  34.328  54.249  0.00  0.00    -0.296 N 
ATOM     20  C   UNL d   1      52.874  34.571  54.906  0.00  0.00     0.107 A 
ATOM     21  C   UNL d   1      52.687  35.372  55.012  0.00  0.00     0.142 A 
ATOM     22  O   UNL d   1      52.954  35.935  54.457  0.00  0.00    -0.300 OA
ATOM     23  C   UNL d   1      53.399  35.692  53.810  0.00  0.00     0.142 A 
ATOM     24  C   UNL d   1      53.590  34.893  53.697  0.00  0.00     0.107 A 
ENDBRANCH   2  19
TORSDOF 2
ENDMDL
MODEL 3
REMARK VINA RESULT:      -9.0      1.796      2.797
REMARK  2 active torsions:
REMARK  status: ('A' for Active; 'I' for Inactive)
REMARK    1  A    between atoms: C_9  and  C_1 
REMARK    2  A    between atoms: N_7  and  C_2 
ROOT
ATOM      1  C   UNL d   1      52.696  33.644  53.742  0.00  0.00     0.022 A 
ATOM      2  C   UNL d   1      53.223  33.024  53.834  0.00  0.00     0.123 A 
ATOM      3  C   UNL d   1      53.037  32.284  53.557  0.00  0.00     0.295 A 
ATOM      4  C   UNL d   1      51.961  33.516  53.362  0.00  0.00     0.020 A 
ATOM      5  N   UNL d   1      52.320  32.147  53.182  0.00  0.00    -0.207 NA
ATOM      6  C   UNL d   1      51.776  32.777  53.085  0.00  0.00     0.085 A 
ATOM      7  C   UNL d   1      51.441  34.134  53.273  0.00  0.00     0.013 A 
ATOM      8  O   UNL d   1      53.604  31.668  53.668  0.00  0.00    -0.264 OA
ATOM      9  C   UNL d   1      51.066  32.637  52.713  0.00  0.00     0.020 A 
ATOM     10  C   UNL d   1      50.707  34.006  52.893  0.00  0.00     0.058 A 
ATOM     11  C   UNL d   1      50.522  33.267  52.616  0.00  0.00     0.013 A 
ATOM     12 CL   UNL d   1      50.146  34.620  52.783  0.00  0.00    -0.082 Cl
ENDROOT
BRANCH   1  13
ATOM     13  C   UNL d   1      52.886  34.404  54.027  0.00  0.00     0.002 A 
ATOM     14  C   UNL d   1      52.718  34.608  54.798  0.00  0.00     0.000 A 
ATOM     15  C   UNL d   1      52.906  35.358  55.078  0.00  0.00     0.000 A 
ATOM     16  C   UNL d   1      53.266  35.902  54.573  0.00  0.00     0.000 A 
ATOM     17  C   UNL d   1      53.436  35.703  53.800  0.00  0.00     0.000 A 
ATOM     18  C   UNL d   1      53.245  34.942  53.516  0.00  0.00     0.000 A 
ENDBRANCH   1  13
BRANCH   2  19
ATOM     19  N   UNL d   1      53.929  33.162  54.204  0.00  0.00    -0.296 N 
ATOM     20  C   UNL d   1      54.601  33.347  53.747  0.00  0.00     0.107 A 
ATOM     21  C   UNL d   1      55.330  33.491  54.116  0.00  0.00     0.142 A 
ATOM     22  O   UNL d   1      55.388  33.450  54.947  0.00  0.00    -0.300 OA
ATOM     23  C   UNL d   1      54.723  33.268  55.395  0.00  0.00     0.142 A 
ATOM     24  C   UNL d   1      53.990  33.122  55.035  0.00  0.00     0.107 A 
ENDBRANCH   2  19
TORSDOF 2
ENDMDL
MODEL 4
REMARK VINA RESULT:      -8.8      1.764      3.161
REMARK  2 active torsions:
REMARK  status: ('A' for Active; 'I' for Inactive)
REMARK    1  A    between atoms: C_9  and  C_1 
REMARK    2  A    between atoms: N_7  and  C_2 
ROOT
ATOM      1  C   UNL d   1      53.046  33.011  53.659  0.00  0.00     0.022 A 
ATOM      2  C   UNL d   1      52.791  32.308  53.326  0.00  0.00     0.123 A 
ATOM      3  C   UNL d   1      52.104  32.284  52.896  0.00  0.00     0.295 A 
ATOM      4  C   UNL d   1      52.598  33.710  53.557  0.00  0.00     0.020 A 
ATOM      5  N   UNL d   1      51.655  32.963  52.788  0.00  0.00    -0.207 NA
ATOM      6  C   UNL d   1      51.911  33.686  53.126  0.00  0.00     0.085 A 
ATOM      7  C   UNL d   1      52.855  34.405  53.889  0.00  0.00     0.013 A 
ATOM      8  O   UNL d   1      51.870  31.543  52.566  0.00  0.00    -0.264 OA
ATOM      9  C   UNL d   1      51.464  34.358  53.018  0.00  0.00     0.020 A 
ATOM     10  C   UNL d   1      52.407  35.104  53.786  0.00  0.00     0.058 A 
ATOM     11  C   UNL d   1      51.720  35.081  53.356  0.00  0.00     0.013 A 
ATOM     12 CL   UNL d   1      52.642  35.840  54.115  0.00  0.00    -0.082 Cl
ENDROOT
BRANCH   1  13
ATOM     13  C   UNL d   1      53.753  33.035  54.102  0.00  0.00     0.002 A 
ATOM     14  C   UNL d   1      54.465  33.173  53.731  0.00  0.00     0.000 A 
ATOM     15  C   UNL d   1      55.162  33.197  54.167  0.00  0.00     0.000 A 
ATOM     16  C   UNL d   1      55.134  33.079  54.984  0.00  0.00     0.000 A 
ATOM     17  C   UNL d   1      54.423  32.941  55.360  0.00  0.00     0.000 A 
ATOM     18  C   UNL d   1      53.716  32.917  54.917  0.00  0.00     0.000 A 
ENDBRANCH   1  13
BRANCH   2  19
ATOM     19  N   UNL d   1      53.234  31.640  53.434  0.00  0.00    -0.296 N 
ATOM     20  C   UNL d   1      53.066  31.136  54.076  0.00  0.00     0.107 A 
ATOM     21  C   UNL d   1      53.515  30.448  54.196  0.00  0.00     0.142 A 
ATOM     22  O   UNL d   1      54.136  30.264  53.671  0.00  0.00    -0.300 OA
ATOM     23  C   UNL d   1      54.300  30.763  53.038  0.00  0.00     0.142 A 
ATOM     24  C   UNL d   1      53.856  31.452  52.911  0.00  0.00     0.107 A 
ENDBRANCH   2  19
TORSDOF 2
ENDMDL
