MODEL 1
REMARK VINA RESULT:      -4.6      0.000      0.000
REMARK  4 active torsions:
REMARK  status: ('A' for Active; 'I' for Inactive)
REMARK    1  A    between atoms: C_7  and  C_1 
REMARK    2  A    between atoms: C_6  and  C_3 
REMARK    3  A    between atoms: O_15  and  C_8 
REMARK    4  A    between atoms: O_16  and  C_12 
ROOT
ATOM      1  C   UNL d   1     -41.471-123.020 -51.573  0.00  0.00     0.042 A 
ATOM      2  C   UNL d   1     -41.252-122.264 -51.814  0.00  0.00     0.098 A 
ATOM      3  C   UNL d   1     -41.137-122.105 -52.611  0.00  0.00     0.048 A 
ATOM      4  C   UNL d   1     -41.574-123.618 -52.127  0.00  0.00     0.005 A 
ATOM      5  C   UNL d   1     -41.239-122.704 -53.173  0.00  0.00     0.096 A 
ATOM      6  C   UNL d   1     -41.459-123.464 -52.928  0.00  0.00     0.024 A 
ENDROOT
BRANCH   1   7
ATOM      7  C   UNL d   1     -41.586-123.175 -50.770  0.00  0.00     0.107 A 
ATOM      8  C   UNL d   1     -42.603-122.853 -49.825  0.00  0.00     0.048 A 
ATOM      9  C   UNL d   1     -42.181-123.255 -49.241  0.00  0.00     0.169 A 
ATOM     10  N   UNL d   1     -41.462-123.620 -49.412  0.00  0.00    -0.142 NA
ATOM     11  N   UNL d   1     -41.168-123.576 -50.183  0.00  0.00    -0.148 NA
BRANCH   9  12
ATOM     12  C   UNL d   1     -42.483-123.294 -48.473  0.00  0.00     0.231 C 
ATOM     13  O   UNL d   1     -42.173-122.806 -47.884  0.00  0.00    -0.643 OA
ATOM     14  O   UNL d   1     -43.093-123.817 -48.295  0.00  0.00    -0.643 OA
ENDBRANCH   9  12
ENDBRANCH   1   7
BRANCH   2  15
ATOM     15  O   UNL d   1     -41.150-121.665 -51.252  0.00  0.00    -0.328 OA
ATOM     16  C   UNL d   1     -41.154-120.873 -51.491  0.00  0.00     0.181 C 
ENDBRANCH   2  15
BRANCH   5  17
ATOM     17  O   UNL d   1     -41.123-122.544 -53.973  0.00  0.00    -0.328 OA
ATOM     18  C   UNL d   1     -41.530-122.979 -54.548  0.00  0.00     0.181 C 
ENDBRANCH   5  17
TORSDOF 4
ENDMDL
MODEL 2
REMARK VINA RESULT:      -2.7      0.986      1.345
REMARK  4 active torsions:
REMARK  status: ('A' for Active; 'I' for Inactive)
REMARK    1  A    between atoms: C_7  and  C_1 
REMARK    2  A    between atoms: C_6  and  C_3 
REMARK    3  A    between atoms: O_15  and  C_8 
REMARK    4  A    between atoms: O_16  and  C_12 
ROOT
ATOM      1  C   UNL d   1     -41.493-123.033 -52.826  0.00  0.00     0.042 A 
ATOM      2  C   UNL d   1     -41.444-122.247 -53.065  0.00  0.00     0.098 A 
ATOM      3  C   UNL d   1     -41.462-122.059 -53.863  0.00  0.00     0.048 A 
ATOM      4  C   UNL d   1     -41.559-123.633 -53.383  0.00  0.00     0.005 A 
ATOM      5  C   UNL d   1     -41.529-122.660 -54.429  0.00  0.00     0.096 A 
ATOM      6  C   UNL d   1     -41.577-123.449 -54.187  0.00  0.00     0.024 A 
ENDROOT
BRANCH   1   7
ATOM      7  C   UNL d   1     -41.475-123.217 -52.021  0.00  0.00     0.107 A 
ATOM      8  C   UNL d   1     -42.047-122.641 -50.850  0.00  0.00     0.048 A 
ATOM      9  C   UNL d   1     -41.693-123.230 -50.393  0.00  0.00     0.169 A 
ATOM     10  N   UNL d   1     -41.229-123.815 -50.740  0.00  0.00    -0.142 NA
ATOM     11  N   UNL d   1     -41.123-123.804 -51.560  0.00  0.00    -0.148 NA
BRANCH   9  12
ATOM     12  C   UNL d   1     -41.805-123.233 -49.574  0.00  0.00     0.231 C 
ATOM     13  O   UNL d   1     -42.412-122.784 -49.240  0.00  0.00    -0.643 OA
ATOM     14  O   UNL d   1     -41.312-123.683 -49.091  0.00  0.00    -0.643 OA
ENDBRANCH   9  12
ENDBRANCH   1   7
BRANCH   2  15
ATOM     15  O   UNL d   1     -41.377-121.647 -52.499  0.00  0.00    -0.328 OA
ATOM     16  C   UNL d   1     -41.203-120.874 -52.738  0.00  0.00     0.181 C 
ENDBRANCH   2  15
BRANCH   5  17
ATOM     17  O   UNL d   1     -41.546-122.471 -55.232  0.00  0.00    -0.328 OA
ATOM     18  C   UNL d   1     -42.238-122.171 -55.573  0.00  0.00     0.181 C 
ENDBRANCH   5  17
TORSDOF 4
ENDMDL
