MODEL 1
REMARK VINA RESULT:      -8.6      0.000      0.000
REMARK  7 active torsions:
REMARK  status: ('A' for Active; 'I' for Inactive)
REMARK    1  A    between atoms: C_7  and  C_1 
REMARK    2  A    between atoms: S_8  and  C_3 
REMARK       I    between atoms: C_6  and  N_13 
REMARK    3  A    between atoms: C_10  and  C_6 
REMARK    4  A    between atoms: C_20  and  S_8 
REMARK    5  A    between atoms: N_13  and  C_21 
REMARK    6  A    between atoms: O_19  and  C_14 
REMARK    7  A    between atoms: C_21  and  C_20 
ROOT
ATOM      1  C   UNL d   1      52.403  34.116  53.637  0.00  0.00     0.087 A 
ATOM      2  N   UNL d   1      52.809  34.757  53.950  0.00  0.00    -0.245 NA
ATOM      3  C   UNL d   1      52.776  33.426  53.891  0.00  0.00     0.049 A 
ATOM      4  C   UNL d   1      53.413  33.634  54.362  0.00  0.00     0.025 A 
ATOM      5  C   UNL d   1      53.437  34.463  54.400  0.00  0.00     0.082 A 
ATOM      6  C   UNL d   1      53.975  33.190  54.761  0.00  0.00     0.002 A 
ATOM      7  C   UNL d   1      54.025  34.841  54.839  0.00  0.00     0.019 A 
ATOM      8  C   UNL d   1      54.563  33.569  55.200  0.00  0.00     0.000 A 
ATOM      9  C   UNL d   1      54.585  34.388  55.237  0.00  0.00     0.002 A 
ENDROOT
BRANCH   3  10
ATOM     10  S   UNL d   1      52.548  32.653  53.706  0.00  0.00    -0.083 SA
BRANCH  10  11
ATOM     11  C   UNL d   1      53.074  32.160  53.287  0.00  0.00     0.056 C 
BRANCH  11  12
ATOM     12  C   UNL d   1      52.973  31.340  53.316  0.00  0.00     0.109 C 
BRANCH  12  13
ATOM     13  N   UNL d   1      52.938  30.919  52.619  0.00  0.00    -0.206 NA
ATOM     14  C   UNL d   1      52.998  30.099  52.635  0.00  0.00     0.279 C 
ATOM     15  O   UNL d   1      52.963  29.668  51.920  0.00  0.00    -0.265 OA
BRANCH  14  16
ATOM     16  C   UNL d   1      53.094  29.703  53.354  0.00  0.00     0.058 A 
ATOM     17  C   UNL d   1      52.425  29.415  53.760  0.00  0.00     0.005 A 
ATOM     18  C   UNL d   1      52.521  29.018  54.479  0.00  0.00     0.000 A 
ATOM     19  C   UNL d   1      53.280  28.909  54.792  0.00  0.00     0.000 A 
ATOM     20  C   UNL d   1      53.941  29.194  54.391  0.00  0.00     0.000 A 
ATOM     21  C   UNL d   1      53.845  29.590  53.673  0.00  0.00     0.005 A 
ENDBRANCH  14  16
ENDBRANCH  12  13
ENDBRANCH  11  12
ENDBRANCH  10  11
ENDBRANCH   3  10
BRANCH   1  22
ATOM     22  C   UNL d   1      51.743  34.194  53.157  0.00  0.00     0.018 A 
ATOM     23  C   UNL d   1      50.984  34.145  53.482  0.00  0.00     0.004 A 
ATOM     24  C   UNL d   1      50.321  34.223  53.005  0.00  0.00     0.024 A 
ATOM     25  C   UNL d   1      50.413  34.352  52.198  0.00  0.00     0.094 A 
ATOM     26  C   UNL d   1      51.174  34.403  51.866  0.00  0.00     0.024 A 
ATOM     27  C   UNL d   1      51.837  34.324  52.343  0.00  0.00     0.004 A 
BRANCH  25  28
ATOM     28  O   UNL d   1      49.739  34.432  51.712  0.00  0.00    -0.328 OA
ATOM     29  C   UNL d   1      49.077  34.851  51.986  0.00  0.00     0.181 C 
ENDBRANCH  25  28
ENDBRANCH   1  22
TORSDOF 7
ENDMDL
MODEL 2
REMARK VINA RESULT:      -7.2      1.551      4.845
REMARK  7 active torsions:
REMARK  status: ('A' for Active; 'I' for Inactive)
REMARK    1  A    between atoms: C_7  and  C_1 
REMARK    2  A    between atoms: S_8  and  C_3 
REMARK       I    between atoms: C_6  and  N_13 
REMARK    3  A    between atoms: C_10  and  C_6 
REMARK    4  A    between atoms: C_20  and  S_8 
REMARK    5  A    between atoms: N_13  and  C_21 
REMARK    6  A    between atoms: O_19  and  C_14 
REMARK    7  A    between atoms: C_21  and  C_20 
ROOT
ATOM      1  C   UNL d   1      53.796  31.684  53.979  0.00  0.00     0.087 A 
ATOM      2  N   UNL d   1      53.977  30.907  54.172  0.00  0.00    -0.245 NA
ATOM      3  C   UNL d   1      53.166  31.678  53.448  0.00  0.00     0.049 A 
ATOM      4  C   UNL d   1      52.953  30.899  53.308  0.00  0.00     0.025 A 
ATOM      5  C   UNL d   1      53.457  30.416  53.758  0.00  0.00     0.082 A 
ATOM      6  C   UNL d   1      52.374  30.560  52.837  0.00  0.00     0.002 A 
ATOM      7  C   UNL d   1      53.376  29.595  53.732  0.00  0.00     0.019 A 
ATOM      8  C   UNL d   1      52.293  29.739  52.811  0.00  0.00     0.000 A 
ATOM      9  C   UNL d   1      52.792  29.262  53.256  0.00  0.00     0.002 A 
ENDROOT
BRANCH   3  10
ATOM     10  S   UNL d   1      52.807  32.342  53.111  0.00  0.00    -0.083 SA
BRANCH  10  11
ATOM     11  C   UNL d   1      52.014  32.518  53.296  0.00  0.00     0.056 C 
BRANCH  11  12
ATOM     12  C   UNL d   1      51.659  33.190  52.972  0.00  0.00     0.109 C 
BRANCH  12  13
ATOM     13  N   UNL d   1      51.722  33.902  53.365  0.00  0.00    -0.206 NA
ATOM     14  C   UNL d   1      51.236  34.529  53.150  0.00  0.00     0.279 C 
ATOM     15  O   UNL d   1      51.300  35.258  53.553  0.00  0.00    -0.265 OA
BRANCH  14  16
ATOM     16  C   UNL d   1      50.687  34.441  52.538  0.00  0.00     0.058 A 
ATOM     17  C   UNL d   1      49.874  34.403  52.715  0.00  0.00     0.005 A 
ATOM     18  C   UNL d   1      49.324  34.315  52.103  0.00  0.00     0.000 A 
ATOM     19  C   UNL d   1      49.586  34.264  51.318  0.00  0.00     0.000 A 
ATOM     20  C   UNL d   1      50.389  34.301  51.144  0.00  0.00     0.000 A 
ATOM     21  C   UNL d   1      50.938  34.389  51.755  0.00  0.00     0.005 A 
ENDBRANCH  14  16
ENDBRANCH  12  13
ENDBRANCH  11  12
ENDBRANCH  10  11
ENDBRANCH   3  10
BRANCH   1  22
ATOM     22  C   UNL d   1      54.201  32.327  54.287  0.00  0.00     0.018 A 
ATOM     23  C   UNL d   1      54.064  32.570  55.066  0.00  0.00     0.004 A 
ATOM     24  C   UNL d   1      54.468  33.214  55.378  0.00  0.00     0.024 A 
ATOM     25  C   UNL d   1      55.010  33.619  54.911  0.00  0.00     0.094 A 
ATOM     26  C   UNL d   1      55.150  33.379  54.128  0.00  0.00     0.024 A 
ATOM     27  C   UNL d   1      54.747  32.736  53.816  0.00  0.00     0.004 A 
BRANCH  25  28
ATOM     28  O   UNL d   1      55.420  34.274  55.228  0.00  0.00    -0.328 OA
ATOM     29  C   UNL d   1      55.055  35.019  55.256  0.00  0.00     0.181 C 
ENDBRANCH  25  28
ENDBRANCH   1  22
TORSDOF 7
ENDMDL
MODEL 3
REMARK VINA RESULT:      -6.8      1.546      3.972
REMARK  7 active torsions:
REMARK  status: ('A' for Active; 'I' for Inactive)
REMARK    1  A    between atoms: C_7  and  C_1 
REMARK    2  A    between atoms: S_8  and  C_3 
REMARK       I    between atoms: C_6  and  N_13 
REMARK    3  A    between atoms: C_10  and  C_6 
REMARK    4  A    between atoms: C_20  and  S_8 
REMARK    5  A    between atoms: N_13  and  C_21 
REMARK    6  A    between atoms: O_19  and  C_14 
REMARK    7  A    between atoms: C_21  and  C_20 
ROOT
ATOM      1  C   UNL d   1      52.099  31.822  53.062  0.00  0.00     0.087 A 
ATOM      2  N   UNL d   1      51.741  31.084  53.101  0.00  0.00    -0.245 NA
ATOM      3  C   UNL d   1      52.910  31.721  53.168  0.00  0.00     0.049 A 
ATOM      4  C   UNL d   1      53.060  30.922  53.272  0.00  0.00     0.025 A 
ATOM      5  C   UNL d   1      52.334  30.523  53.230  0.00  0.00     0.082 A 
ATOM      6  C   UNL d   1      53.752  30.500  53.398  0.00  0.00     0.002 A 
ATOM      7  C   UNL d   1      52.306  29.702  53.316  0.00  0.00     0.019 A 
ATOM      8  C   UNL d   1      53.724  29.680  53.484  0.00  0.00     0.000 A 
ATOM      9  C   UNL d   1      53.005  29.286  53.443  0.00  0.00     0.002 A 
ENDROOT
BRANCH   3  10
ATOM     10  S   UNL d   1      53.480  32.320  53.169  0.00  0.00    -0.083 SA
BRANCH  10  11
ATOM     11  C   UNL d   1      53.958  32.430  53.842  0.00  0.00     0.056 C 
BRANCH  11  12
ATOM     12  C   UNL d   1      54.157  33.197  54.079  0.00  0.00     0.109 C 
BRANCH  12  13
ATOM     13  N   UNL d   1      54.751  33.302  54.628  0.00  0.00    -0.206 NA
ATOM     14  C   UNL d   1      54.783  33.998  55.064  0.00  0.00     0.279 C 
ATOM     15  O   UNL d   1      55.391  34.105  55.626  0.00  0.00    -0.265 OA
BRANCH  14  16
ATOM     16  C   UNL d   1      54.216  34.589  54.948  0.00  0.00     0.058 A 
ATOM     17  C   UNL d   1      53.575  34.657  55.475  0.00  0.00     0.005 A 
ATOM     18  C   UNL d   1      53.008  35.248  55.359  0.00  0.00     0.000 A 
ATOM     19  C   UNL d   1      53.082  35.770  54.719  0.00  0.00     0.000 A 
ATOM     20  C   UNL d   1      53.716  35.703  54.198  0.00  0.00     0.000 A 
ATOM     21  C   UNL d   1      54.282  35.112  54.314  0.00  0.00     0.005 A 
ENDBRANCH  14  16
ENDBRANCH  12  13
ENDBRANCH  11  12
ENDBRANCH  10  11
ENDBRANCH   3  10
BRANCH   1  22
ATOM     22  C   UNL d   1      51.682  32.517  52.938  0.00  0.00     0.018 A 
ATOM     23  C   UNL d   1      51.095  32.750  53.473  0.00  0.00     0.004 A 
ATOM     24  C   UNL d   1      50.675  33.445  53.352  0.00  0.00     0.024 A 
ATOM     25  C   UNL d   1      50.839  33.911  52.695  0.00  0.00     0.094 A 
ATOM     26  C   UNL d   1      51.427  33.680  52.155  0.00  0.00     0.024 A 
ATOM     27  C   UNL d   1      51.847  32.986  52.275  0.00  0.00     0.004 A 
BRANCH  25  28
ATOM     28  O   UNL d   1      50.411  34.617  52.572  0.00  0.00    -0.328 OA
ATOM     29  C   UNL d   1      49.631  34.587  52.291  0.00  0.00     0.181 C 
ENDBRANCH  25  28
ENDBRANCH   1  22
TORSDOF 7
ENDMDL
MODEL 4
REMARK VINA RESULT:      -6.6      1.351      3.116
REMARK  7 active torsions:
REMARK  status: ('A' for Active; 'I' for Inactive)
REMARK    1  A    between atoms: C_7  and  C_1 
REMARK    2  A    between atoms: S_8  and  C_3 
REMARK       I    between atoms: C_6  and  N_13 
REMARK    3  A    between atoms: C_10  and  C_6 
REMARK    4  A    between atoms: C_20  and  S_8 
REMARK    5  A    between atoms: N_13  and  C_21 
REMARK    6  A    between atoms: O_19  and  C_14 
REMARK    7  A    between atoms: C_21  and  C_20 
ROOT
ATOM      1  C   UNL d   1      52.101  34.284  53.626  0.00  0.00     0.087 A 
ATOM      2  N   UNL d   1      51.511  34.849  53.715  0.00  0.00    -0.245 NA
ATOM      3  C   UNL d   1      51.851  33.736  53.064  0.00  0.00     0.049 A 
ATOM      4  C   UNL d   1      51.106  33.957  52.801  0.00  0.00     0.025 A 
ATOM      5  C   UNL d   1      50.893  34.650  53.205  0.00  0.00     0.082 A 
ATOM      6  C   UNL d   1      50.593  33.628  52.252  0.00  0.00     0.002 A 
ATOM      7  C   UNL d   1      50.164  35.008  53.056  0.00  0.00     0.019 A 
ATOM      8  C   UNL d   1      49.865  33.987  52.103  0.00  0.00     0.000 A 
ATOM      9  C   UNL d   1      49.654  34.672  52.504  0.00  0.00     0.002 A 
ENDROOT
BRANCH   3  10
ATOM     10  S   UNL d   1      52.275  33.076  52.805  0.00  0.00    -0.083 SA
BRANCH  10  11
ATOM     11  C   UNL d   1      51.929  32.319  52.860  0.00  0.00     0.056 C 
BRANCH  11  12
ATOM     12  C   UNL d   1      52.413  31.657  52.964  0.00  0.00     0.109 C 
BRANCH  12  13
ATOM     13  N   UNL d   1      52.637  31.222  52.312  0.00  0.00    -0.206 NA
ATOM     14  C   UNL d   1      52.971  30.477  52.416  0.00  0.00     0.279 C 
ATOM     15  O   UNL d   1      53.200  30.031  51.748  0.00  0.00    -0.265 OA
BRANCH  14  16
ATOM     16  C   UNL d   1      53.079  30.171  53.176  0.00  0.00     0.058 A 
ATOM     17  C   UNL d   1      52.555  29.593  53.468  0.00  0.00     0.005 A 
ATOM     18  C   UNL d   1      52.664  29.287  54.229  0.00  0.00     0.000 A 
ATOM     19  C   UNL d   1      53.293  29.557  54.696  0.00  0.00     0.000 A 
ATOM     20  C   UNL d   1      53.811  30.128  54.407  0.00  0.00     0.000 A 
ATOM     21  C   UNL d   1      53.702  30.434  53.647  0.00  0.00     0.005 A 
ENDBRANCH  14  16
ENDBRANCH  12  13
ENDBRANCH  11  12
ENDBRANCH  10  11
ENDBRANCH   3  10
BRANCH   1  22
ATOM     22  C   UNL d   1      52.804  34.301  54.047  0.00  0.00     0.018 A 
ATOM     23  C   UNL d   1      52.849  33.954  54.797  0.00  0.00     0.004 A 
ATOM     24  C   UNL d   1      53.551  33.969  55.221  0.00  0.00     0.024 A 
ATOM     25  C   UNL d   1      54.215  34.332  54.898  0.00  0.00     0.094 A 
ATOM     26  C   UNL d   1      54.175  34.682  54.145  0.00  0.00     0.024 A 
ATOM     27  C   UNL d   1      53.473  34.667  53.721  0.00  0.00     0.004 A 
BRANCH  25  28
ATOM     28  O   UNL d   1      54.929  34.348  55.329  0.00  0.00    -0.328 OA
ATOM     29  C   UNL d   1      55.470  33.722  55.259  0.00  0.00     0.181 C 
ENDBRANCH  25  28
ENDBRANCH   1  22
TORSDOF 7
ENDMDL
