MODEL 1
REMARK VINA RESULT:      -2.7      0.000      0.000
REMARK  1 active torsions:
REMARK  status: ('A' for Active; 'I' for Inactive)
REMARK    1  A    between atoms: O_8  and  C_4 
ROOT
ATOM      1  C   UNL d   1      45.267 -13.446  43.812  0.00  0.00     0.065 A 
ATOM      2  C   UNL d   1      45.311 -12.662  43.551  0.00  0.00     0.186 A 
ATOM      3  N   UNL d   1      45.733 -12.105  43.989  0.00  0.00    -0.224 NA
ATOM      4  C   UNL d   1      45.646 -13.668  44.510  0.00  0.00     0.099 A 
ATOM      5  N   UNL d   1      44.934 -12.438  42.857  0.00  0.00    -0.127 N 
ATOM      6  C   UNL d   1      46.110 -12.329  44.684  0.00  0.00     0.103 A 
ATOM      7  C   UNL d   1      46.066 -13.113  44.945  0.00  0.00     0.045 A 
ENDROOT
BRANCH   4   8
ATOM      8  O   UNL d   1      45.603 -14.444  44.768  0.00  0.00    -0.328 OA
ATOM      9  C   UNL d   1      44.874 -14.780  44.944  0.00  0.00     0.181 C 
ENDBRANCH   4   8
TORSDOF 1
ENDMDL
MODEL 2
REMARK VINA RESULT:      -2.4      5.794      6.439
REMARK  1 active torsions:
REMARK  status: ('A' for Active; 'I' for Inactive)
REMARK    1  A    between atoms: O_8  and  C_4 
ROOT
ATOM      1  C   UNL d   1      46.608 -18.640  42.864  0.00  0.00     0.065 A 
ATOM      2  C   UNL d   1      46.629 -18.830  42.059  0.00  0.00     0.186 A 
ATOM      3  N   UNL d   1      46.647 -19.620  41.823  0.00  0.00    -0.224 NA
ATOM      4  C   UNL d   1      46.605 -19.242  43.428  0.00  0.00     0.099 A 
ATOM      5  N   UNL d   1      46.633 -18.233  41.496  0.00  0.00    -0.127 N 
ATOM      6  C   UNL d   1      46.643 -20.218  42.387  0.00  0.00     0.103 A 
ATOM      7  C   UNL d   1      46.622 -20.028  43.192  0.00  0.00     0.045 A 
ENDROOT
BRANCH   4   8
ATOM      8  O   UNL d   1      46.584 -19.054  44.225  0.00  0.00    -0.328 OA
ATOM      9  C   UNL d   1      46.532 -19.651  44.788  0.00  0.00     0.181 C 
ENDBRANCH   4   8
TORSDOF 1
ENDMDL
MODEL 3
REMARK VINA RESULT:      -2.3      6.202      6.749
REMARK  1 active torsions:
REMARK  status: ('A' for Active; 'I' for Inactive)
REMARK    1  A    between atoms: O_8  and  C_4 
ROOT
ATOM      1  C   UNL d   1      46.644 -18.963  43.444  0.00  0.00     0.065 A 
ATOM      2  C   UNL d   1      46.464 -19.587  43.955  0.00  0.00     0.186 A 
ATOM      3  N   UNL d   1      46.107 -20.271  43.662  0.00  0.00    -0.224 NA
ATOM      4  C   UNL d   1      46.465 -19.025  42.641  0.00  0.00     0.099 A 
ATOM      5  N   UNL d   1      46.642 -19.529  44.755  0.00  0.00    -0.127 N 
ATOM      6  C   UNL d   1      45.929 -20.330  42.862  0.00  0.00     0.103 A 
ATOM      7  C   UNL d   1      46.109 -19.705  42.350  0.00  0.00     0.045 A 
ENDROOT
BRANCH   4   8
ATOM      8  O   UNL d   1      46.643 -18.407  42.134  0.00  0.00    -0.328 OA
ATOM      9  C   UNL d   1      46.610 -18.518  41.321  0.00  0.00     0.181 C 
ENDBRANCH   4   8
TORSDOF 1
ENDMDL
MODEL 4
REMARK VINA RESULT:      -2.0      1.583      2.094
REMARK  1 active torsions:
REMARK  status: ('A' for Active; 'I' for Inactive)
REMARK    1  A    between atoms: O_8  and  C_4 
ROOT
ATOM      1  C   UNL d   1      44.885 -13.792  43.979  0.00  0.00     0.065 A 
ATOM      2  C   UNL d   1      45.284 -14.223  44.561  0.00  0.00     0.186 A 
ATOM      3  N   UNL d   1      45.926 -13.887  44.955  0.00  0.00    -0.224 NA
ATOM      4  C   UNL d   1      45.132 -13.027  43.793  0.00  0.00     0.099 A 
ATOM      5  N   UNL d   1      45.041 -14.984  44.749  0.00  0.00    -0.127 N 
ATOM      6  C   UNL d   1      46.170 -13.125  44.768  0.00  0.00     0.103 A 
ATOM      7  C   UNL d   1      45.771 -12.694  44.185  0.00  0.00     0.045 A 
ENDROOT
BRANCH   4   8
ATOM      8  O   UNL d   1      44.737 -12.600  43.216  0.00  0.00    -0.328 OA
ATOM      9  C   UNL d   1      45.153 -12.090  42.724  0.00  0.00     0.181 C 
ENDBRANCH   4   8
TORSDOF 1
ENDMDL
MODEL 5
REMARK VINA RESULT:      -0.5      7.374      7.920
REMARK  1 active torsions:
REMARK  status: ('A' for Active; 'I' for Inactive)
REMARK    1  A    between atoms: O_8  and  C_4 
ROOT
ATOM      1  C   UNL d   1      45.291 -15.651  36.405  0.00  0.00     0.065 A 
ATOM      2  C   UNL d   1      45.817 -15.071  36.672  0.00  0.00     0.186 A 
ATOM      3  N   UNL d   1      45.553 -14.479  37.183  0.00  0.00    -0.224 NA
ATOM      4  C   UNL d   1      44.504 -15.636  36.650  0.00  0.00     0.099 A 
ATOM      5  N   UNL d   1      46.602 -15.083  36.431  0.00  0.00    -0.127 N 
ATOM      6  C   UNL d   1      44.768 -14.466  37.425  0.00  0.00     0.103 A 
ATOM      7  C   UNL d   1      44.242 -15.046  37.158  0.00  0.00     0.045 A 
ENDROOT
BRANCH   4   8
ATOM      8  O   UNL d   1      43.983 -16.210  36.386  0.00  0.00    -0.328 OA
ATOM      9  C   UNL d   1      43.180 -16.044  36.330  0.00  0.00     0.181 C 
ENDBRANCH   4   8
TORSDOF 1
ENDMDL
MODEL 6
REMARK VINA RESULT:      -0.5      7.379      7.976
REMARK  1 active torsions:
REMARK  status: ('A' for Active; 'I' for Inactive)
REMARK    1  A    between atoms: O_8  and  C_4 
ROOT
ATOM      1  C   UNL d   1      44.854 -15.820  36.359  0.00  0.00     0.065 A 
ATOM      2  C   UNL d   1      44.071 -15.864  36.622  0.00  0.00     0.186 A 
ATOM      3  N   UNL d   1      43.792 -15.322  37.178  0.00  0.00    -0.224 NA
ATOM      4  C   UNL d   1      45.354 -15.234  36.654  0.00  0.00     0.099 A 
ATOM      5  N   UNL d   1      43.571 -16.446  36.330  0.00  0.00    -0.127 N 
ATOM      6  C   UNL d   1      44.293 -14.740  37.470  0.00  0.00     0.103 A 
ATOM      7  C   UNL d   1      45.076 -14.696  37.207  0.00  0.00     0.045 A 
ENDROOT
BRANCH   4   8
ATOM      8  O   UNL d   1      46.130 -15.191  36.394  0.00  0.00    -0.328 OA
ATOM      9  C   UNL d   1      46.646 -14.645  36.727  0.00  0.00     0.181 C 
ENDBRANCH   4   8
TORSDOF 1
ENDMDL
