MODEL 1
REMARK VINA RESULT:      -6.2      0.000      0.000
REMARK  6 active torsions:
REMARK  status: ('A' for Active; 'I' for Inactive)
REMARK    1  A    between atoms: O_8  and  C_2 
REMARK    2  A    between atoms: C_10  and  C_5 
REMARK    3  A    between atoms: C_21  and  O_8 
REMARK    4  A    between atoms: N_9  and  C_10 
REMARK    5  A    between atoms: C_12  and  C_15 
REMARK    6  A    between atoms: O_26  and  C_12 
ROOT
ATOM      1  C   UNL d   1      51.790  33.437  53.227  0.00  0.00     0.108 A 
ATOM      2  C   UNL d   1      52.543  32.028  52.769  0.00  0.00     0.161 A 
ATOM      3  C   UNL d   1      52.609  33.435  53.054  0.00  0.00     0.064 A 
ATOM      4  C   UNL d   1      52.982  32.740  52.828  0.00  0.00     0.222 A 
ATOM      5  C   UNL d   1      51.413  34.140  53.456  0.00  0.00     0.079 A 
ATOM      6  O   UNL d   1      51.347  32.737  53.171  0.00  0.00    -0.305 OA
ATOM      7  C   UNL d   1      51.731  32.029  52.940  0.00  0.00     0.126 A 
ATOM      8  C   UNL d   1      53.036  34.146  53.116  0.00  0.00     0.009 A 
ATOM      9  C   UNL d   1      51.845  34.840  53.514  0.00  0.00     0.199 A 
ATOM     10  O   UNL d   1      53.790  32.735  52.657  0.00  0.00    -0.284 OA
ATOM     11  C   UNL d   1      52.660  34.843  53.344  0.00  0.00     0.042 A 
ATOM     12  O   UNL d   1      51.476  35.535  53.740  0.00  0.00    -0.286 OA
ATOM     13  C   UNL d   1      51.300  31.330  52.881  0.00  0.00     0.029 C 
ENDROOT
BRANCH   2  14
ATOM     14  O   UNL d   1      52.919  31.332  52.541  0.00  0.00    -0.302 OA
BRANCH  14  15
ATOM     15  C   UNL d   1      53.046  30.735  53.093  0.00  0.00     0.100 A 
ATOM     16  C   UNL d   1      53.558  30.862  53.725  0.00  0.00     0.025 A 
ATOM     17  C   UNL d   1      53.685  30.266  54.277  0.00  0.00     0.007 A 
ATOM     18  C   UNL d   1      53.300  29.541  54.197  0.00  0.00     0.063 A 
ATOM     19  C   UNL d   1      52.782  29.416  53.555  0.00  0.00     0.007 A 
ATOM     20  C   UNL d   1      52.659  30.011  53.010  0.00  0.00     0.025 A 
BRANCH  18  21
ATOM     21  C   UNL d   1      53.425  28.939  54.750  0.00  0.00     0.296 C 
ATOM     22  O   UNL d   1      53.665  28.190  54.502  0.00  0.00    -0.259 OA
BRANCH  21  23
ATOM     23  O   UNL d   1      53.312  29.081  55.556  0.00  0.00    -0.296 OA
ATOM     24  C   UNL d   1      53.307  28.447  56.084  0.00  0.00     0.185 C 
ENDBRANCH  21  23
ENDBRANCH  18  21
ENDBRANCH  14  15
ENDBRANCH   2  14
BRANCH   5  25
ATOM     25  C   UNL d   1      50.615  34.137  53.623  0.00  0.00     0.086 C 
BRANCH  25  26
ATOM     26  N   UNL d   1      50.078  34.454  53.079  0.00  0.00    -0.300 N 
ATOM     27  C   UNL d   1      50.114  34.230  52.286  0.00  0.00     0.100 A 
ATOM     28  C   UNL d   1      49.580  34.545  51.748  0.00  0.00     0.100 A 
ATOM     29  N   UNL d   1      49.011  35.084  51.995  0.00  0.00    -0.299 N 
ATOM     30  C   UNL d   1      48.975  35.309  52.792  0.00  0.00     0.100 A 
ATOM     31  C   UNL d   1      48.471  35.403  51.450  0.00  0.00     0.100 C 
ATOM     32  C   UNL d   1      49.512  34.992  53.335  0.00  0.00     0.100 A 
ENDBRANCH  25  26
ENDBRANCH   5  25
TORSDOF 6
ENDMDL
MODEL 2
REMARK VINA RESULT:      -5.9      3.261      5.964
REMARK  6 active torsions:
REMARK  status: ('A' for Active; 'I' for Inactive)
REMARK    1  A    between atoms: O_8  and  C_2 
REMARK    2  A    between atoms: C_10  and  C_5 
REMARK    3  A    between atoms: C_21  and  O_8 
REMARK    4  A    between atoms: N_9  and  C_10 
REMARK    5  A    between atoms: C_12  and  C_15 
REMARK    6  A    between atoms: O_26  and  C_12 
ROOT
ATOM      1  C   UNL d   1      46.405  35.826  52.512  0.00  0.00     0.108 A 
ATOM      2  C   UNL d   1      48.057  35.927  52.362  0.00  0.00     0.161 A 
ATOM      3  C   UNL d   1      46.782  35.548  51.818  0.00  0.00     0.064 A 
ATOM      4  C   UNL d   1      47.597  35.597  51.744  0.00  0.00     0.222 A 
ATOM      5  C   UNL d   1      45.580  35.775  52.588  0.00  0.00     0.079 A 
ATOM      6  O   UNL d   1      46.851  36.154  53.130  0.00  0.00    -0.305 OA
ATOM      7  C   UNL d   1      47.684  36.203  53.051  0.00  0.00     0.126 A 
ATOM      8  C   UNL d   1      46.317  35.222  51.210  0.00  0.00     0.009 A 
ATOM      9  C   UNL d   1      45.128  35.451  51.980  0.00  0.00     0.199 A 
ATOM     10  O   UNL d   1      47.972  35.324  51.060  0.00  0.00    -0.284 OA
ATOM     11  C   UNL d   1      45.499  35.173  51.287  0.00  0.00     0.042 A 
ATOM     12  O   UNL d   1      44.314  35.401  52.052  0.00  0.00    -0.286 OA
ATOM     13  C   UNL d   1      48.136  36.526  53.658  0.00  0.00     0.029 C 
ENDROOT
BRANCH   2  14
ATOM     14  O   UNL d   1      48.875  35.975  52.285  0.00  0.00    -0.302 OA
BRANCH  14  15
ATOM     15  C   UNL d   1      49.346  35.333  52.492  0.00  0.00     0.100 A 
ATOM     16  C   UNL d   1      49.545  34.770  51.925  0.00  0.00     0.025 A 
ATOM     17  C   UNL d   1      50.015  34.128  52.132  0.00  0.00     0.007 A 
ATOM     18  C   UNL d   1      50.288  34.048  52.906  0.00  0.00     0.063 A 
ATOM     19  C   UNL d   1      50.083  34.621  53.477  0.00  0.00     0.007 A 
ATOM     20  C   UNL d   1      49.616  35.257  53.267  0.00  0.00     0.025 A 
BRANCH  18  21
ATOM     21  C   UNL d   1      50.761  33.405  53.118  0.00  0.00     0.296 C 
ATOM     22  O   UNL d   1      50.418  32.671  53.278  0.00  0.00    -0.259 OA
BRANCH  21  23
ATOM     23  O   UNL d   1      51.581  33.488  53.171  0.00  0.00    -0.296 OA
ATOM     24  C   UNL d   1      52.045  32.832  53.358  0.00  0.00     0.185 C 
ENDBRANCH  21  23
ENDBRANCH  18  21
ENDBRANCH  14  15
ENDBRANCH   2  14
BRANCH   5  25
ATOM     25  C   UNL d   1      45.217  36.048  53.266  0.00  0.00     0.086 C 
BRANCH  25  26
ATOM     26  N   UNL d   1      44.991  35.514  53.857  0.00  0.00    -0.300 N 
ATOM     27  C   UNL d   1      44.538  34.852  53.662  0.00  0.00     0.100 A 
ATOM     28  C   UNL d   1      44.315  34.324  54.249  0.00  0.00     0.100 A 
ATOM     29  N   UNL d   1      44.540  34.449  55.029  0.00  0.00    -0.299 N 
ATOM     30  C   UNL d   1      44.995  35.114  55.224  0.00  0.00     0.100 A 
ATOM     31  C   UNL d   1      44.314  33.914  55.623  0.00  0.00     0.100 C 
ATOM     32  C   UNL d   1      45.221  35.648  54.634  0.00  0.00     0.100 A 
ENDBRANCH  25  26
ENDBRANCH   5  25
TORSDOF 6
ENDMDL
MODEL 3
REMARK VINA RESULT:      -5.7      3.219      6.734
REMARK  6 active torsions:
REMARK  status: ('A' for Active; 'I' for Inactive)
REMARK    1  A    between atoms: O_8  and  C_2 
REMARK    2  A    between atoms: C_10  and  C_5 
REMARK    3  A    between atoms: C_21  and  O_8 
REMARK    4  A    between atoms: N_9  and  C_10 
REMARK    5  A    between atoms: C_12  and  C_15 
REMARK    6  A    between atoms: O_26  and  C_12 
ROOT
ATOM      1  C   UNL d   1      48.797  35.370  52.323  0.00  0.00     0.108 A 
ATOM      2  C   UNL d   1      47.414  36.106  52.874  0.00  0.00     0.161 A 
ATOM      3  C   UNL d   1      48.083  35.299  51.892  0.00  0.00     0.064 A 
ATOM      4  C   UNL d   1      47.400  35.662  52.164  0.00  0.00     0.222 A 
ATOM      5  C   UNL d   1      49.489  35.003  52.048  0.00  0.00     0.079 A 
ATOM      6  O   UNL d   1      48.821  35.808  53.027  0.00  0.00    -0.305 OA
ATOM      7  C   UNL d   1      48.121  36.177  53.302  0.00  0.00     0.126 A 
ATOM      8  C   UNL d   1      48.080  34.856  51.187  0.00  0.00     0.009 A 
ATOM      9  C   UNL d   1      49.475  34.567  51.349  0.00  0.00     0.199 A 
ATOM     10  O   UNL d   1      46.693  35.593  51.740  0.00  0.00    -0.284 OA
ATOM     11  C   UNL d   1      48.767  34.493  50.917  0.00  0.00     0.042 A 
ATOM     12  O   UNL d   1      50.157  34.203  51.075  0.00  0.00    -0.286 OA
ATOM     13  C   UNL d   1      48.134  36.613  54.000  0.00  0.00     0.029 C 
ENDROOT
BRANCH   2  14
ATOM     14  O   UNL d   1      46.726  36.469  53.145  0.00  0.00    -0.302 OA
BRANCH  14  15
ATOM     15  C   UNL d   1      46.219  36.063  53.649  0.00  0.00     0.100 A 
ATOM     16  C   UNL d   1      45.540  35.706  53.349  0.00  0.00     0.025 A 
ATOM     17  C   UNL d   1      45.033  35.300  53.853  0.00  0.00     0.007 A 
ATOM     18  C   UNL d   1      45.203  35.250  54.659  0.00  0.00     0.063 A 
ATOM     19  C   UNL d   1      45.892  35.614  54.958  0.00  0.00     0.007 A 
ATOM     20  C   UNL d   1      46.392  36.016  54.454  0.00  0.00     0.025 A 
BRANCH  18  21
ATOM     21  C   UNL d   1      44.696  34.843  55.168  0.00  0.00     0.296 C 
ATOM     22  O   UNL d   1      44.316  35.241  55.783  0.00  0.00    -0.259 OA
BRANCH  21  23
ATOM     23  O   UNL d   1      44.563  34.034  55.068  0.00  0.00    -0.296 OA
ATOM     24  C   UNL d   1      44.314  33.580  55.710  0.00  0.00     0.185 C 
ENDBRANCH  21  23
ENDBRANCH  18  21
ENDBRANCH  14  15
ENDBRANCH   2  14
BRANCH   5  25
ATOM     25  C   UNL d   1      50.183  35.075  52.471  0.00  0.00     0.086 C 
BRANCH  25  26
ATOM     26  N   UNL d   1      50.598  34.398  52.702  0.00  0.00    -0.300 N 
ATOM     27  C   UNL d   1      51.359  34.263  52.414  0.00  0.00     0.100 A 
ATOM     28  C   UNL d   1      51.770  33.591  52.645  0.00  0.00     0.100 A 
ATOM     29  N   UNL d   1      51.427  33.052  53.161  0.00  0.00    -0.299 N 
ATOM     30  C   UNL d   1      50.663  33.187  53.451  0.00  0.00     0.100 A 
ATOM     31  C   UNL d   1      51.843  32.371  53.394  0.00  0.00     0.100 C 
ATOM     32  C   UNL d   1      50.247  33.864  53.219  0.00  0.00     0.100 A 
ENDBRANCH  25  26
ENDBRANCH   5  25
TORSDOF 6
ENDMDL
MODEL 4
REMARK VINA RESULT:      -5.1      2.111      5.537
REMARK  6 active torsions:
REMARK  status: ('A' for Active; 'I' for Inactive)
REMARK    1  A    between atoms: O_8  and  C_2 
REMARK    2  A    between atoms: C_10  and  C_5 
REMARK    3  A    between atoms: C_21  and  O_8 
REMARK    4  A    between atoms: N_9  and  C_10 
REMARK    5  A    between atoms: C_12  and  C_15 
REMARK    6  A    between atoms: O_26  and  C_12 
ROOT
ATOM      1  C   UNL d   1      52.315  32.962  52.858  0.00  0.00     0.108 A 
ATOM      2  C   UNL d   1      50.981  33.707  52.206  0.00  0.00     0.161 A 
ATOM      3  C   UNL d   1      51.567  32.588  52.891  0.00  0.00     0.064 A 
ATOM      4  C   UNL d   1      50.908  32.956  52.569  0.00  0.00     0.222 A 
ATOM      5  C   UNL d   1      52.982  32.591  53.183  0.00  0.00     0.079 A 
ATOM      6  O   UNL d   1      52.398  33.707  52.501  0.00  0.00    -0.305 OA
ATOM      7  C   UNL d   1      51.722  34.079  52.174  0.00  0.00     0.126 A 
ATOM      8  C   UNL d   1      51.505  31.842  53.253  0.00  0.00     0.009 A 
ATOM      9  C   UNL d   1      52.910  31.851  53.540  0.00  0.00     0.199 A 
ATOM     10  O   UNL d   1      50.168  32.589  52.600  0.00  0.00    -0.284 OA
ATOM     11  C   UNL d   1      52.168  31.475  53.575  0.00  0.00     0.042 A 
ATOM     12  O   UNL d   1      53.567  31.482  53.862  0.00  0.00    -0.286 OA
ATOM     13  C   UNL d   1      51.793  34.818  51.817  0.00  0.00     0.029 C 
ENDROOT
BRANCH   2  14
ATOM     14  O   UNL d   1      50.318  34.074  51.884  0.00  0.00    -0.302 OA
BRANCH  14  15
ATOM     15  C   UNL d   1      49.839  34.546  52.358  0.00  0.00     0.100 A 
ATOM     16  C   UNL d   1      49.108  34.801  52.079  0.00  0.00     0.025 A 
ATOM     17  C   UNL d   1      48.629  35.273  52.553  0.00  0.00     0.007 A 
ATOM     18  C   UNL d   1      48.881  35.491  53.307  0.00  0.00     0.063 A 
ATOM     19  C   UNL d   1      49.623  35.231  53.586  0.00  0.00     0.007 A 
ATOM     20  C   UNL d   1      50.095  34.762  53.112  0.00  0.00     0.025 A 
BRANCH  18  21
ATOM     21  C   UNL d   1      48.403  35.965  53.786  0.00  0.00     0.296 C 
ATOM     22  O   UNL d   1      48.665  36.709  54.030  0.00  0.00    -0.259 OA
BRANCH  21  23
ATOM     23  O   UNL d   1      47.658  35.701  54.026  0.00  0.00    -0.296 OA
ATOM     24  C   UNL d   1      47.193  36.180  54.511  0.00  0.00     0.185 C 
ENDBRANCH  21  23
ENDBRANCH  18  21
ENDBRANCH  14  15
ENDBRANCH   2  14
BRANCH   5  25
ATOM     25  C   UNL d   1      53.709  32.959  53.149  0.00  0.00     0.086 C 
BRANCH  25  26
ATOM     26  N   UNL d   1      54.067  33.232  53.844  0.00  0.00    -0.300 N 
ATOM     27  C   UNL d   1      53.654  33.736  54.350  0.00  0.00     0.100 A 
ATOM     28  C   UNL d   1      54.010  34.005  55.038  0.00  0.00     0.100 A 
ATOM     29  N   UNL d   1      54.776  33.777  55.227  0.00  0.00    -0.299 N 
ATOM     30  C   UNL d   1      55.192  33.270  54.719  0.00  0.00     0.100 A 
ATOM     31  C   UNL d   1      55.137  34.049  55.924  0.00  0.00     0.100 C 
ATOM     32  C   UNL d   1      54.834  32.998  54.024  0.00  0.00     0.100 A 
ENDBRANCH  25  26
ENDBRANCH   5  25
TORSDOF 6
ENDMDL
MODEL 5
REMARK VINA RESULT:      -5.0      1.954      5.230
REMARK  6 active torsions:
REMARK  status: ('A' for Active; 'I' for Inactive)
REMARK    1  A    between atoms: O_8  and  C_2 
REMARK    2  A    between atoms: C_10  and  C_5 
REMARK    3  A    between atoms: C_21  and  O_8 
REMARK    4  A    between atoms: N_9  and  C_10 
REMARK    5  A    between atoms: C_12  and  C_15 
REMARK    6  A    between atoms: O_26  and  C_12 
ROOT
ATOM      1  C   UNL d   1      53.366  33.111  53.762  0.00  0.00     0.108 A 
ATOM      2  C   UNL d   1      52.474  34.348  53.104  0.00  0.00     0.161 A 
ATOM      3  C   UNL d   1      53.101  33.742  54.245  0.00  0.00     0.064 A 
ATOM      4  C   UNL d   1      52.661  34.353  53.920  0.00  0.00     0.222 A 
ATOM      5  C   UNL d   1      53.812  32.493  54.090  0.00  0.00     0.079 A 
ATOM      6  O   UNL d   1      53.186  33.098  52.952  0.00  0.00    -0.305 OA
ATOM      7  C   UNL d   1      52.735  33.724  52.624  0.00  0.00     0.126 A 
ATOM      8  C   UNL d   1      53.292  33.738  55.055  0.00  0.00     0.009 A 
ATOM      9  C   UNL d   1      53.996  32.498  54.894  0.00  0.00     0.199 A 
ATOM     10  O   UNL d   1      52.399  34.977  54.395  0.00  0.00    -0.284 OA
ATOM     11  C   UNL d   1      53.735  33.123  55.378  0.00  0.00     0.042 A 
ATOM     12  O   UNL d   1      54.435  31.889  55.220  0.00  0.00    -0.286 OA
ATOM     13  C   UNL d   1      52.551  33.720  51.822  0.00  0.00     0.029 C 
ENDROOT
BRANCH   2  14
ATOM     14  O   UNL d   1      52.031  34.963  52.780  0.00  0.00    -0.302 OA
BRANCH  14  15
ATOM     15  C   UNL d   1      51.243  34.841  52.581  0.00  0.00     0.100 A 
ATOM     16  C   UNL d   1      50.657  34.913  53.156  0.00  0.00     0.025 A 
ATOM     17  C   UNL d   1      49.869  34.791  52.957  0.00  0.00     0.007 A 
ATOM     18  C   UNL d   1      49.664  34.595  52.182  0.00  0.00     0.063 A 
ATOM     19  C   UNL d   1      50.260  34.522  51.603  0.00  0.00     0.007 A 
ATOM     20  C   UNL d   1      51.042  34.645  51.805  0.00  0.00     0.025 A 
BRANCH  18  21
ATOM     21  C   UNL d   1      48.873  34.471  51.978  0.00  0.00     0.296 C 
ATOM     22  O   UNL d   1      48.627  33.738  51.690  0.00  0.00    -0.259 OA
BRANCH  21  23
ATOM     23  O   UNL d   1      48.320  35.079  52.061  0.00  0.00    -0.296 OA
ATOM     24  C   UNL d   1      47.643  35.080  51.590  0.00  0.00     0.185 C 
ENDBRANCH  21  23
ENDBRANCH  18  21
ENDBRANCH  14  15
ENDBRANCH   2  14
BRANCH   5  25
ATOM     25  C   UNL d   1      54.067  31.880  53.616  0.00  0.00     0.086 C 
BRANCH  25  26
ATOM     26  N   UNL d   1      53.653  31.164  53.607  0.00  0.00    -0.300 N 
ATOM     27  C   UNL d   1      53.223  30.945  52.938  0.00  0.00     0.100 A 
ATOM     28  C   UNL d   1      52.813  30.234  52.932  0.00  0.00     0.100 A 
ATOM     29  N   UNL d   1      52.828  29.739  53.587  0.00  0.00    -0.299 N 
ATOM     30  C   UNL d   1      53.260  29.959  54.260  0.00  0.00     0.100 A 
ATOM     31  C   UNL d   1      52.413  29.019  53.581  0.00  0.00     0.100 C 
ATOM     32  C   UNL d   1      53.674  30.676  54.268  0.00  0.00     0.100 A 
ENDBRANCH  25  26
ENDBRANCH   5  25
TORSDOF 6
ENDMDL
MODEL 6
REMARK VINA RESULT:      -4.9      2.848      4.365
REMARK  6 active torsions:
REMARK  status: ('A' for Active; 'I' for Inactive)
REMARK    1  A    between atoms: O_8  and  C_2 
REMARK    2  A    between atoms: C_10  and  C_5 
REMARK    3  A    between atoms: C_21  and  O_8 
REMARK    4  A    between atoms: N_9  and  C_10 
REMARK    5  A    between atoms: C_12  and  C_15 
REMARK    6  A    between atoms: O_26  and  C_12 
ROOT
ATOM      1  C   UNL d   1      48.614  35.396  52.513  0.00  0.00     0.108 A 
ATOM      2  C   UNL d   1      49.874  34.315  52.460  0.00  0.00     0.161 A 
ATOM      3  C   UNL d   1      48.936  35.091  53.223  0.00  0.00     0.064 A 
ATOM      4  C   UNL d   1      49.558  34.557  53.198  0.00  0.00     0.222 A 
ATOM      5  C   UNL d   1      47.985  35.937  52.539  0.00  0.00     0.079 A 
ATOM      6  O   UNL d   1      48.921  35.162  51.778  0.00  0.00    -0.305 OA
ATOM      7  C   UNL d   1      49.556  34.617  51.756  0.00  0.00     0.126 A 
ATOM      8  C   UNL d   1      48.615  35.338  53.950  0.00  0.00     0.009 A 
ATOM      9  C   UNL d   1      47.674  36.175  53.264  0.00  0.00     0.199 A 
ATOM     10  O   UNL d   1      49.878  34.254  53.897  0.00  0.00    -0.284 OA
ATOM     11  C   UNL d   1      47.991  35.874  53.973  0.00  0.00     0.042 A 
ATOM     12  O   UNL d   1      47.053  36.708  53.292  0.00  0.00    -0.286 OA
ATOM     13  C   UNL d   1      49.867  34.378  51.032  0.00  0.00     0.029 C 
ENDROOT
BRANCH   2  14
ATOM     14  O   UNL d   1      50.499  33.778  52.438  0.00  0.00    -0.302 OA
BRANCH  14  15
ATOM     15  C   UNL d   1      51.208  33.958  52.815  0.00  0.00     0.100 A 
ATOM     16  C   UNL d   1      51.650  34.608  52.570  0.00  0.00     0.025 A 
ATOM     17  C   UNL d   1      52.359  34.787  52.946  0.00  0.00     0.007 A 
ATOM     18  C   UNL d   1      52.626  34.317  53.569  0.00  0.00     0.063 A 
ATOM     19  C   UNL d   1      52.174  33.660  53.814  0.00  0.00     0.007 A 
ATOM     20  C   UNL d   1      51.472  33.485  53.437  0.00  0.00     0.025 A 
BRANCH  18  21
ATOM     21  C   UNL d   1      53.338  34.494  53.950  0.00  0.00     0.296 C 
ATOM     22  O   UNL d   1      53.512  35.271  54.166  0.00  0.00    -0.259 OA
BRANCH  21  23
ATOM     23  O   UNL d   1      53.882  33.896  54.119  0.00  0.00    -0.296 OA
ATOM     24  C   UNL d   1      54.473  34.030  54.679  0.00  0.00     0.185 C 
ENDBRANCH  21  23
ENDBRANCH  18  21
ENDBRANCH  14  15
ENDBRANCH   2  14
BRANCH   5  25
ATOM     25  C   UNL d   1      47.675  36.232  51.844  0.00  0.00     0.086 C 
BRANCH  25  26
ATOM     26  N   UNL d   1      46.918  36.002  51.599  0.00  0.00    -0.300 N 
ATOM     27  C   UNL d   1      46.254  36.387  51.902  0.00  0.00     0.100 A 
ATOM     28  C   UNL d   1      45.504  36.159  51.658  0.00  0.00     0.100 A 
ATOM     29  N   UNL d   1      45.411  35.549  51.115  0.00  0.00    -0.299 N 
ATOM     30  C   UNL d   1      46.079  35.163  50.812  0.00  0.00     0.100 A 
ATOM     31  C   UNL d   1      44.652  35.318  50.869  0.00  0.00     0.100 C 
ATOM     32  C   UNL d   1      46.835  35.392  51.056  0.00  0.00     0.100 A 
ENDBRANCH  25  26
ENDBRANCH   5  25
TORSDOF 6
ENDMDL
MODEL 7
REMARK VINA RESULT:      -4.3      1.348      2.197
REMARK  6 active torsions:
REMARK  status: ('A' for Active; 'I' for Inactive)
REMARK    1  A    between atoms: O_8  and  C_2 
REMARK    2  A    between atoms: C_10  and  C_5 
REMARK    3  A    between atoms: C_21  and  O_8 
REMARK    4  A    between atoms: N_9  and  C_10 
REMARK    5  A    between atoms: C_12  and  C_15 
REMARK    6  A    between atoms: O_26  and  C_12 
ROOT
ATOM      1  C   UNL d   1      50.524  34.084  52.226  0.00  0.00     0.108 A 
ATOM      2  C   UNL d   1      51.950  33.743  53.008  0.00  0.00     0.161 A 
ATOM      3  C   UNL d   1      51.256  34.202  51.837  0.00  0.00     0.064 A 
ATOM      4  C   UNL d   1      51.960  34.034  52.222  0.00  0.00     0.222 A 
ATOM      5  C   UNL d   1      49.811  34.254  51.836  0.00  0.00     0.079 A 
ATOM      6  O   UNL d   1      50.504  33.796  53.004  0.00  0.00    -0.305 OA
ATOM      7  C   UNL d   1      51.225  33.626  53.395  0.00  0.00     0.126 A 
ATOM      8  C   UNL d   1      51.255  34.492  51.057  0.00  0.00     0.009 A 
ATOM      9  C   UNL d   1      49.821  34.541  51.064  0.00  0.00     0.199 A 
ATOM     10  O   UNL d   1      52.683  34.150  51.840  0.00  0.00    -0.284 OA
ATOM     11  C   UNL d   1      50.547  34.660  50.672  0.00  0.00     0.042 A 
ATOM     12  O   UNL d   1      49.119  34.709  50.677  0.00  0.00    -0.286 OA
ATOM     13  C   UNL d   1      51.216  33.339  54.167  0.00  0.00     0.029 C 
ENDROOT
BRANCH   2  14
ATOM     14  O   UNL d   1      52.658  33.575  53.392  0.00  0.00    -0.302 OA
BRANCH  14  15
ATOM     15  C   UNL d   1      52.910  32.795  53.467  0.00  0.00     0.100 A 
ATOM     16  C   UNL d   1      53.375  32.573  54.109  0.00  0.00     0.025 A 
ATOM     17  C   UNL d   1      53.627  31.793  54.183  0.00  0.00     0.007 A 
ATOM     18  C   UNL d   1      53.413  31.235  53.615  0.00  0.00     0.063 A 
ATOM     19  C   UNL d   1      52.942  31.464  52.966  0.00  0.00     0.007 A 
ATOM     20  C   UNL d   1      52.695  32.239  52.896  0.00  0.00     0.025 A 
BRANCH  18  21
ATOM     21  C   UNL d   1      53.664  30.451  53.686  0.00  0.00     0.296 C 
ATOM     22  O   UNL d   1      54.389  30.215  53.371  0.00  0.00    -0.259 OA
BRANCH  21  23
ATOM     23  O   UNL d   1      53.192  29.894  54.074  0.00  0.00    -0.296 OA
ATOM     24  C   UNL d   1      53.545  29.240  54.432  0.00  0.00     0.185 C 
ENDBRANCH  21  23
ENDBRANCH  18  21
ENDBRANCH  14  15
ENDBRANCH   2  14
BRANCH   5  25
ATOM     25  C   UNL d   1      49.101  34.138  52.220  0.00  0.00     0.086 C 
BRANCH  25  26
ATOM     26  N   UNL d   1      48.605  34.781  52.376  0.00  0.00    -0.300 N 
ATOM     27  C   UNL d   1      48.755  35.269  53.025  0.00  0.00     0.100 A 
ATOM     28  C   UNL d   1      48.262  35.907  53.178  0.00  0.00     0.100 A 
ATOM     29  N   UNL d   1      47.620  36.063  52.689  0.00  0.00    -0.299 N 
ATOM     30  C   UNL d   1      47.470  35.574  52.037  0.00  0.00     0.100 A 
ATOM     31  C   UNL d   1      47.121  36.709  52.844  0.00  0.00     0.100 C 
ATOM     32  C   UNL d   1      47.966  34.930  51.882  0.00  0.00     0.100 A 
ENDBRANCH  25  26
ENDBRANCH   5  25
TORSDOF 6
ENDMDL
MODEL 8
REMARK VINA RESULT:      -4.2      1.391      2.608
REMARK  6 active torsions:
REMARK  status: ('A' for Active; 'I' for Inactive)
REMARK    1  A    between atoms: O_8  and  C_2 
REMARK    2  A    between atoms: C_10  and  C_5 
REMARK    3  A    between atoms: C_21  and  O_8 
REMARK    4  A    between atoms: N_9  and  C_10 
REMARK    5  A    between atoms: C_12  and  C_15 
REMARK    6  A    between atoms: O_26  and  C_12 
ROOT
ATOM      1  C   UNL d   1      52.389  33.355  53.009  0.00  0.00     0.108 A 
ATOM      2  C   UNL d   1      52.821  31.791  52.650  0.00  0.00     0.161 A 
ATOM      3  C   UNL d   1      51.799  32.775  52.881  0.00  0.00     0.064 A 
ATOM      4  C   UNL d   1      52.012  32.002  52.704  0.00  0.00     0.222 A 
ATOM      5  C   UNL d   1      52.174  34.136  53.188  0.00  0.00     0.079 A 
ATOM      6  O   UNL d   1      53.193  33.155  52.958  0.00  0.00    -0.305 OA
ATOM      7  C   UNL d   1      53.406  32.365  52.777  0.00  0.00     0.126 A 
ATOM      8  C   UNL d   1      50.998  32.994  52.937  0.00  0.00     0.009 A 
ATOM      9  C   UNL d   1      51.378  34.344  53.241  0.00  0.00     0.199 A 
ATOM     10  O   UNL d   1      51.432  31.428  52.577  0.00  0.00    -0.284 OA
ATOM     11  C   UNL d   1      50.788  33.770  53.115  0.00  0.00     0.042 A 
ATOM     12  O   UNL d   1      51.163  35.114  53.418  0.00  0.00    -0.286 OA
ATOM     13  C   UNL d   1      54.201  32.157  52.724  0.00  0.00     0.029 C 
ENDROOT
BRANCH   2  14
ATOM     14  O   UNL d   1      53.032  31.015  52.472  0.00  0.00    -0.302 OA
BRANCH  14  15
ATOM     15  C   UNL d   1      53.097  30.459  53.074  0.00  0.00     0.100 A 
ATOM     16  C   UNL d   1      53.696  30.530  53.636  0.00  0.00     0.025 A 
ATOM     17  C   UNL d   1      53.761  29.974  54.238  0.00  0.00     0.007 A 
ATOM     18  C   UNL d   1      53.228  29.346  54.281  0.00  0.00     0.063 A 
ATOM     19  C   UNL d   1      52.623  29.278  53.710  0.00  0.00     0.007 A 
ATOM     20  C   UNL d   1      52.562  29.832  53.114  0.00  0.00     0.025 A 
BRANCH  18  21
ATOM     21  C   UNL d   1      53.291  28.786  54.884  0.00  0.00     0.296 C 
ATOM     22  O   UNL d   1      53.603  28.038  54.728  0.00  0.00    -0.259 OA
BRANCH  21  23
ATOM     23  O   UNL d   1      53.042  28.967  55.651  0.00  0.00    -0.296 OA
ATOM     24  C   UNL d   1      53.255  28.472  56.276  0.00  0.00     0.185 C 
ENDBRANCH  21  23
ENDBRANCH  18  21
ENDBRANCH  14  15
ENDBRANCH   2  14
BRANCH   5  25
ATOM     25  C   UNL d   1      52.752  34.698  53.312  0.00  0.00     0.086 C 
BRANCH  25  26
ATOM     26  N   UNL d   1      52.949  34.925  54.083  0.00  0.00    -0.300 N 
ATOM     27  C   UNL d   1      52.751  35.679  54.354  0.00  0.00     0.100 A 
ATOM     28  C   UNL d   1      52.947  35.903  55.118  0.00  0.00     0.100 A 
ATOM     29  N   UNL d   1      53.339  35.380  55.617  0.00  0.00    -0.299 N 
ATOM     30  C   UNL d   1      53.538  34.623  55.345  0.00  0.00     0.100 A 
ATOM     31  C   UNL d   1      53.537  35.607  56.391  0.00  0.00     0.100 C 
ATOM     32  C   UNL d   1      53.341  34.396  54.574  0.00  0.00     0.100 A 
ENDBRANCH  25  26
ENDBRANCH   5  25
TORSDOF 6
ENDMDL
MODEL 9
REMARK VINA RESULT:      -4.2      2.971      4.588
REMARK  6 active torsions:
REMARK  status: ('A' for Active; 'I' for Inactive)
REMARK    1  A    between atoms: O_8  and  C_2 
REMARK    2  A    between atoms: C_10  and  C_5 
REMARK    3  A    between atoms: C_21  and  O_8 
REMARK    4  A    between atoms: N_9  and  C_10 
REMARK    5  A    between atoms: C_12  and  C_15 
REMARK    6  A    between atoms: O_26  and  C_12 
ROOT
ATOM      1  C   UNL d   1      48.372  35.417  52.426  0.00  0.00     0.108 A 
ATOM      2  C   UNL d   1      49.580  34.278  52.484  0.00  0.00     0.161 A 
ATOM      3  C   UNL d   1      48.592  35.003  51.733  0.00  0.00     0.064 A 
ATOM      4  C   UNL d   1      49.189  34.440  51.761  0.00  0.00     0.222 A 
ATOM      5  C   UNL d   1      47.769  35.987  52.398  0.00  0.00     0.079 A 
ATOM      6  O   UNL d   1      48.753  35.263  53.147  0.00  0.00    -0.305 OA
ATOM      7  C   UNL d   1      49.362  34.688  53.172  0.00  0.00     0.126 A 
ATOM      8  C   UNL d   1      48.198  35.171  51.019  0.00  0.00     0.009 A 
ATOM      9  C   UNL d   1      47.384  36.146  51.687  0.00  0.00     0.199 A 
ATOM     10  O   UNL d   1      49.408  34.030  51.078  0.00  0.00    -0.284 OA
ATOM     11  C   UNL d   1      47.600  35.737  50.994  0.00  0.00     0.042 A 
ATOM     12  O   UNL d   1      46.789  36.708  51.656  0.00  0.00    -0.286 OA
ATOM     13  C   UNL d   1      49.746  34.527  53.882  0.00  0.00     0.029 C 
ENDROOT
BRANCH   2  14
ATOM     14  O   UNL d   1      50.178  33.712  52.509  0.00  0.00    -0.302 OA
BRANCH  14  15
ATOM     15  C   UNL d   1      50.926  33.919  52.780  0.00  0.00     0.100 A 
ATOM     16  C   UNL d   1      51.182  33.657  53.518  0.00  0.00     0.025 A 
ATOM     17  C   UNL d   1      51.931  33.864  53.790  0.00  0.00     0.007 A 
ATOM     18  C   UNL d   1      52.425  34.332  53.324  0.00  0.00     0.063 A 
ATOM     19  C   UNL d   1      52.161  34.594  52.577  0.00  0.00     0.007 A 
ATOM     20  C   UNL d   1      51.417  34.387  52.311  0.00  0.00     0.025 A 
BRANCH  18  21
ATOM     21  C   UNL d   1      53.177  34.541  53.593  0.00  0.00     0.296 C 
ATOM     22  O   UNL d   1      53.345  35.323  53.794  0.00  0.00    -0.259 OA
BRANCH  21  23
ATOM     23  O   UNL d   1      53.770  33.970  53.664  0.00  0.00    -0.296 OA
ATOM     24  C   UNL d   1      54.471  34.158  54.055  0.00  0.00     0.185 C 
ENDBRANCH  21  23
ENDBRANCH  18  21
ENDBRANCH  14  15
ENDBRANCH   2  14
BRANCH   5  25
ATOM     25  C   UNL d   1      47.557  36.388  53.076  0.00  0.00     0.086 C 
BRANCH  25  26
ATOM     26  N   UNL d   1      46.906  36.135  53.520  0.00  0.00    -0.300 N 
ATOM     27  C   UNL d   1      46.215  35.897  53.137  0.00  0.00     0.100 A 
ATOM     28  C   UNL d   1      45.570  35.646  53.579  0.00  0.00     0.100 A 
ATOM     29  N   UNL d   1      45.609  35.631  54.399  0.00  0.00    -0.299 N 
ATOM     30  C   UNL d   1      46.303  35.870  54.783  0.00  0.00     0.100 A 
ATOM     31  C   UNL d   1      44.956  35.377  54.846  0.00  0.00     0.100 C 
ATOM     32  C   UNL d   1      46.954  36.123  54.340  0.00  0.00     0.100 A 
ENDBRANCH  25  26
ENDBRANCH   5  25
TORSDOF 6
ENDMDL
