MODEL 1
REMARK VINA RESULT:      -9.8      0.000      0.000
REMARK  1 active torsions:
REMARK  status: ('A' for Active; 'I' for Inactive)
REMARK    1  A    between atoms: C_4  and  C_1 
ROOT
ATOM      1  C   UNL d   1      53.847  31.880  53.959  0.00  0.00     0.163 A 
ATOM      2  N   UNL d   1      54.435  32.338  53.605  0.00  0.00    -0.225 NA
ATOM      3  N   UNL d   1      53.730  32.164  54.732  0.00  0.00    -0.225 NA
ATOM      4  C   UNL d   1      54.685  32.906  54.151  0.00  0.00     0.101 A 
ATOM      5  C   UNL d   1      54.247  32.798  54.851  0.00  0.00     0.101 A 
ATOM      6  C   UNL d   1      55.254  33.511  54.109  0.00  0.00     0.021 A 
ATOM      7  C   UNL d   1      54.383  33.296  55.502  0.00  0.00     0.021 A 
ATOM      8  C   UNL d   1      54.946  33.892  55.457  0.00  0.00     0.002 A 
ATOM      9  C   UNL d   1      55.379  33.999  54.763  0.00  0.00     0.002 A 
ENDROOT
BRANCH   1  10
ATOM     10  C   UNL d   1      53.446  31.250  53.610  0.00  0.00     0.046 A 
ATOM     11  C   UNL d   1      52.830  31.400  53.093  0.00  0.00     0.061 A 
ATOM     12 CL   UNL d   1      52.617  32.185  52.925  0.00  0.00    -0.082 Cl
ATOM     13  C   UNL d   1      52.434  30.779  52.750  0.00  0.00     0.011 A 
ATOM     14  C   UNL d   1      52.647  29.999  52.918  0.00  0.00     0.001 A 
ATOM     15  C   UNL d   1      53.266  29.853  53.438  0.00  0.00     0.000 A 
ATOM     16  C   UNL d   1      53.667  30.481  53.786  0.00  0.00     0.004 A 
ENDBRANCH   1  10
TORSDOF 1
ENDMDL
MODEL 2
REMARK VINA RESULT:      -9.4      2.259      3.732
REMARK  1 active torsions:
REMARK  status: ('A' for Active; 'I' for Inactive)
REMARK    1  A    between atoms: C_4  and  C_1 
ROOT
ATOM      1  C   UNL d   1      52.874  33.714  53.750  0.00  0.00     0.163 A 
ATOM      2  N   UNL d   1      52.129  33.441  53.974  0.00  0.00    -0.225 NA
ATOM      3  N   UNL d   1      52.796  34.111  53.023  0.00  0.00    -0.225 NA
ATOM      4  C   UNL d   1      51.585  33.664  53.392  0.00  0.00     0.101 A 
ATOM      5  C   UNL d   1      52.000  34.080  52.801  0.00  0.00     0.101 A 
ATOM      6  C   UNL d   1      50.766  33.545  53.317  0.00  0.00     0.021 A 
ATOM      7  C   UNL d   1      51.590  34.374  52.142  0.00  0.00     0.021 A 
ATOM      8  C   UNL d   1      50.781  34.255  52.070  0.00  0.00     0.002 A 
ATOM      9  C   UNL d   1      50.371  33.843  52.655  0.00  0.00     0.002 A 
ENDROOT
BRANCH   1  10
ATOM     10  C   UNL d   1      53.576  33.614  54.171  0.00  0.00     0.046 A 
ATOM     11  C   UNL d   1      54.066  32.982  53.997  0.00  0.00     0.061 A 
ATOM     12 CL   UNL d   1      53.850  32.449  53.397  0.00  0.00    -0.082 Cl
ATOM     13  C   UNL d   1      54.757  32.883  54.412  0.00  0.00     0.011 A 
ATOM     14  C   UNL d   1      54.970  33.414  55.008  0.00  0.00     0.001 A 
ATOM     15  C   UNL d   1      54.476  34.047  55.180  0.00  0.00     0.000 A 
ATOM     16  C   UNL d   1      53.775  34.148  54.760  0.00  0.00     0.004 A 
ENDBRANCH   1  10
TORSDOF 1
ENDMDL
MODEL 3
REMARK VINA RESULT:      -9.3      2.252      2.677
REMARK  1 active torsions:
REMARK  status: ('A' for Active; 'I' for Inactive)
REMARK    1  A    between atoms: C_4  and  C_1 
ROOT
ATOM      1  C   UNL d   1      52.572  33.666  53.620  0.00  0.00     0.163 A 
ATOM      2  N   UNL d   1      53.184  33.180  53.357  0.00  0.00    -0.225 NA
ATOM      3  N   UNL d   1      52.817  34.029  54.328  0.00  0.00    -0.225 NA
ATOM      4  C   UNL d   1      53.810  33.236  53.895  0.00  0.00     0.101 A 
ATOM      5  C   UNL d   1      53.582  33.764  54.498  0.00  0.00     0.101 A 
ATOM      6  C   UNL d   1      54.560  32.879  53.921  0.00  0.00     0.021 A 
ATOM      7  C   UNL d   1      54.106  33.929  55.120  0.00  0.00     0.021 A 
ATOM      8  C   UNL d   1      54.846  33.574  55.143  0.00  0.00     0.002 A 
ATOM      9  C   UNL d   1      55.072  33.051  54.546  0.00  0.00     0.002 A 
ENDROOT
BRANCH   1  10
ATOM     10  C   UNL d   1      51.844  33.776  53.249  0.00  0.00     0.046 A 
ATOM     11  C   UNL d   1      51.774  34.328  52.650  0.00  0.00     0.061 A 
ATOM     12 CL   UNL d   1      52.438  34.773  52.422  0.00  0.00    -0.082 Cl
ATOM     13  C   UNL d   1      51.057  34.436  52.284  0.00  0.00     0.011 A 
ATOM     14  C   UNL d   1      50.398  33.993  52.512  0.00  0.00     0.001 A 
ATOM     15  C   UNL d   1      50.472  33.439  53.114  0.00  0.00     0.000 A 
ATOM     16  C   UNL d   1      51.199  33.330  53.484  0.00  0.00     0.004 A 
ENDBRANCH   1  10
TORSDOF 1
ENDMDL
MODEL 4
REMARK VINA RESULT:      -9.0      2.061      2.806
REMARK  1 active torsions:
REMARK  status: ('A' for Active; 'I' for Inactive)
REMARK    1  A    between atoms: C_4  and  C_1 
ROOT
ATOM      1  C   UNL d   1      52.408  32.178  53.082  0.00  0.00     0.163 A 
ATOM      2  N   UNL d   1      52.603  32.778  52.551  0.00  0.00    -0.225 NA
ATOM      3  N   UNL d   1      51.693  32.386  53.454  0.00  0.00    -0.225 NA
ATOM      4  C   UNL d   1      52.016  33.359  52.589  0.00  0.00     0.101 A 
ATOM      5  C   UNL d   1      51.450  33.115  53.149  0.00  0.00     0.101 A 
ATOM      6  C   UNL d   1      51.916  34.080  52.188  0.00  0.00     0.021 A 
ATOM      7  C   UNL d   1      50.791  33.595  53.304  0.00  0.00     0.021 A 
ATOM      8  C   UNL d   1      50.695  34.308  52.906  0.00  0.00     0.002 A 
ATOM      9  C   UNL d   1      51.255  34.549  52.351  0.00  0.00     0.002 A 
ENDROOT
BRANCH   1  10
ATOM     10  C   UNL d   1      52.842  31.492  53.222  0.00  0.00     0.046 A 
ATOM     11  C   UNL d   1      53.508  31.524  53.697  0.00  0.00     0.061 A 
ATOM     12 CL   UNL d   1      53.738  32.248  54.032  0.00  0.00    -0.082 Cl
ATOM     13  C   UNL d   1      53.936  30.848  53.835  0.00  0.00     0.011 A 
ATOM     14  C   UNL d   1      53.705  30.128  53.501  0.00  0.00     0.001 A 
ATOM     15  C   UNL d   1      53.036  30.099  53.025  0.00  0.00     0.000 A 
ATOM     16  C   UNL d   1      52.602  30.785  52.885  0.00  0.00     0.004 A 
ENDBRANCH   1  10
TORSDOF 1
ENDMDL
MODEL 5
REMARK VINA RESULT:      -9.0      1.698      3.499
REMARK  1 active torsions:
REMARK  status: ('A' for Active; 'I' for Inactive)
REMARK    1  A    between atoms: C_4  and  C_1 
ROOT
ATOM      1  C   UNL d   1      53.115  32.854  53.623  0.00  0.00     0.163 A 
ATOM      2  N   UNL d   1      53.754  32.363  53.800  0.00  0.00    -0.225 NA
ATOM      3  N   UNL d   1      52.520  32.388  53.276  0.00  0.00    -0.225 NA
ATOM      4  C   UNL d   1      53.562  31.593  53.566  0.00  0.00     0.101 A 
ATOM      5  C   UNL d   1      52.795  31.609  53.241  0.00  0.00     0.101 A 
ATOM      6  C   UNL d   1      53.980  30.876  53.604  0.00  0.00     0.021 A 
ATOM      7  C   UNL d   1      52.455  30.907  52.957  0.00  0.00     0.021 A 
ATOM      8  C   UNL d   1      52.870  30.200  52.996  0.00  0.00     0.002 A 
ATOM      9  C   UNL d   1      53.630  30.184  53.319  0.00  0.00     0.002 A 
ENDROOT
BRANCH   1  10
ATOM     10  C   UNL d   1      53.072  33.665  53.763  0.00  0.00     0.046 A 
ATOM     11  C   UNL d   1      53.289  33.962  54.495  0.00  0.00     0.061 A 
ATOM     12 CL   UNL d   1      53.550  33.441  55.087  0.00  0.00    -0.082 Cl
ATOM     13  C   UNL d   1      53.246  34.760  54.633  0.00  0.00     0.011 A 
ATOM     14  C   UNL d   1      52.986  35.277  54.043  0.00  0.00     0.001 A 
ATOM     15  C   UNL d   1      52.769  34.976  53.310  0.00  0.00     0.000 A 
ATOM     16  C   UNL d   1      52.812  34.166  53.169  0.00  0.00     0.004 A 
ENDBRANCH   1  10
TORSDOF 1
ENDMDL
