MODEL 1
REMARK VINA RESULT:      -3.7      0.000      0.000
REMARK  9 active torsions:
REMARK  status: ('A' for Active; 'I' for Inactive)
REMARK    1  A    between atoms: C_8  and  S_1 
REMARK    2  A    between atoms: C_2  and  N_3 
REMARK    3  A    between atoms: N_4  and  C_2 
REMARK    4  A    between atoms: C_6  and  C_2 
REMARK    5  A    between atoms: N_3  and  C_5 
REMARK       I    between atoms: C_7  and  N_4 
REMARK    6  A    between atoms: C_5  and  N_9 
REMARK    7  A    between atoms: C_13  and  C_7 
REMARK    8  A    between atoms: N_9  and  C_23 
REMARK    9  A    between atoms: O_29  and  C_24 
ROOT
ATOM      1  C   UNL d   1     -40.548  14.808  20.724  0.00  0.00     0.238 C 
ENDROOT
BRANCH   1   2
ATOM      2  N   UNL d   1     -41.281  14.450  20.899  0.00  0.00    -0.188 NA
BRANCH   2   3
ATOM      3  C   UNL d   1     -41.542  13.721  21.191  0.00  0.00     0.223 C 
ATOM      4  S   UNL d   1     -41.195  13.390  21.822  0.00  0.00    -0.037 SA
BRANCH   3   5
ATOM      5  N   UNL d   1     -42.169  13.363  20.801  0.00  0.00    -0.217 NA
BRANCH   5   6
ATOM      6  C   UNL d   1     -42.881  13.210  21.183  0.00  0.00     0.084 A 
ATOM      7  C   UNL d   1     -43.066  12.468  21.471  0.00  0.00     0.020 A 
ATOM      8  C   UNL d   1     -43.771  12.307  21.852  0.00  0.00     0.015 A 
ATOM      9  C   UNL d   1     -44.316  12.913  21.950  0.00  0.00     0.107 A 
ATOM     10  C   UNL d   1     -44.162  13.677  21.671  0.00  0.00     0.015 A 
ATOM     11  C   UNL d   1     -43.443  13.811  21.291  0.00  0.00     0.020 A 
BRANCH   9  12
ATOM     12  S   UNL d   1     -45.042  12.756  22.340  0.00  0.00     0.302 S 
ATOM     13  O   UNL d   1     -44.803  11.974  22.465  0.00  0.00    -0.197 OA
ATOM     14  O   UNL d   1     -45.272  13.546  22.207  0.00  0.00    -0.197 OA
ATOM     15  N   UNL d   1     -45.762  12.607  22.724  0.00  0.00    -0.043 N 
ENDBRANCH   9  12
ENDBRANCH   5   6
ENDBRANCH   3   5
ENDBRANCH   2   3
ENDBRANCH   1   2
BRANCH   1  16
ATOM     16  N   UNL d   1     -40.311  14.759  20.138  0.00  0.00    -0.346 NA
ATOM     17  C   UNL d   1     -39.887  14.622  19.422  0.00  0.00     0.329 C 
ATOM     18  O   UNL d   1     -39.150  14.200  19.456  0.00  0.00    -0.251 OA
BRANCH  17  19
ATOM     19  C   UNL d   1     -40.195  14.896  18.732  0.00  0.00     0.071 A 
ATOM     20  C   UNL d   1     -40.452  14.312  18.130  0.00  0.00     0.008 A 
ATOM     21  C   UNL d   1     -40.774  14.572  17.408  0.00  0.00     0.024 A 
ATOM     22  C   UNL d   1     -40.851  15.394  17.258  0.00  0.00     0.094 A 
ATOM     23  C   UNL d   1     -40.601  15.907  17.841  0.00  0.00     0.024 A 
ATOM     24  C   UNL d   1     -40.274  15.665  18.575  0.00  0.00     0.008 A 
BRANCH  22  25
ATOM     25  O   UNL d   1     -41.178  15.626  16.523  0.00  0.00    -0.328 OA
ATOM     26  C   UNL d   1     -41.976  15.885  16.472  0.00  0.00     0.181 C 
ENDBRANCH  22  25
ENDBRANCH  17  19
ENDBRANCH   1  16
BRANCH   1  27
ATOM     27  C   UNL d   1     -40.148  15.216  21.307  0.00  0.00     0.262 C 
ATOM     28 CL   UNL d   1     -39.750  15.629  21.891  0.00  0.00    -0.074 Cl
ATOM     29 CL   UNL d   1     -39.644  14.544  21.434  0.00  0.00    -0.074 Cl
ATOM     30 CL   UNL d   1     -40.640  15.869  21.181  0.00  0.00    -0.074 Cl
ENDBRANCH   1  27
TORSDOF 9
ENDMDL
MODEL 2
REMARK VINA RESULT:      -3.3      2.491      5.566
REMARK  9 active torsions:
REMARK  status: ('A' for Active; 'I' for Inactive)
REMARK    1  A    between atoms: C_8  and  S_1 
REMARK    2  A    between atoms: C_2  and  N_3 
REMARK    3  A    between atoms: N_4  and  C_2 
REMARK    4  A    between atoms: C_6  and  C_2 
REMARK    5  A    between atoms: N_3  and  C_5 
REMARK       I    between atoms: C_7  and  N_4 
REMARK    6  A    between atoms: C_5  and  N_9 
REMARK    7  A    between atoms: C_13  and  C_7 
REMARK    8  A    between atoms: N_9  and  C_23 
REMARK    9  A    between atoms: O_29  and  C_24 
ROOT
ATOM      1  C   UNL d   1     -39.628  14.766  20.667  0.00  0.00     0.238 C 
ENDROOT
BRANCH   1   2
ATOM      2  N   UNL d   1     -39.390  14.685  19.871  0.00  0.00    -0.188 NA
BRANCH   2   3
ATOM      3  C   UNL d   1     -39.230  15.189  19.234  0.00  0.00     0.223 C 
ATOM      4  S   UNL d   1     -38.671  15.748  19.292  0.00  0.00    -0.037 SA
BRANCH   3   5
ATOM      5  N   UNL d   1     -39.672  15.084  18.551  0.00  0.00    -0.217 NA
BRANCH   5   6
ATOM      6  C   UNL d   1     -39.328  14.813  17.854  0.00  0.00     0.084 A 
ATOM      7  C   UNL d   1     -38.702  15.204  17.504  0.00  0.00     0.020 A 
ATOM      8  C   UNL d   1     -38.353  14.943  16.811  0.00  0.00     0.015 A 
ATOM      9  C   UNL d   1     -38.642  14.263  16.454  0.00  0.00     0.107 A 
ATOM     10  C   UNL d   1     -39.275  13.842  16.782  0.00  0.00     0.015 A 
ATOM     11  C   UNL d   1     -39.607  14.128  17.480  0.00  0.00     0.020 A 
BRANCH   9  12
ATOM     12  S   UNL d   1     -38.290  13.989  15.744  0.00  0.00     0.302 S 
ATOM     13  O   UNL d   1     -38.643  14.612  15.331  0.00  0.00    -0.197 OA
ATOM     14  O   UNL d   1     -37.940  13.365  16.170  0.00  0.00    -0.197 OA
ATOM     15  N   UNL d   1     -37.940  13.713  15.045  0.00  0.00    -0.043 N 
ENDBRANCH   9  12
ENDBRANCH   5   6
ENDBRANCH   3   5
ENDBRANCH   2   3
ENDBRANCH   1   2
BRANCH   1  16
ATOM     16  N   UNL d   1     -40.244  14.745  20.810  0.00  0.00    -0.346 NA
ATOM     17  C   UNL d   1     -41.059  14.859  20.995  0.00  0.00     0.329 C 
ATOM     18  O   UNL d   1     -41.360  15.653  21.044  0.00  0.00    -0.251 OA
BRANCH  17  19
ATOM     19  C   UNL d   1     -41.522  14.215  21.119  0.00  0.00     0.071 A 
ATOM     20  C   UNL d   1     -42.157  14.041  20.539  0.00  0.00     0.008 A 
ATOM     21  C   UNL d   1     -42.650  13.378  20.646  0.00  0.00     0.024 A 
ATOM     22  C   UNL d   1     -42.537  12.878  21.310  0.00  0.00     0.094 A 
ATOM     23  C   UNL d   1     -41.937  13.071  21.828  0.00  0.00     0.024 A 
ATOM     24  C   UNL d   1     -41.430  13.734  21.737  0.00  0.00     0.008 A 
BRANCH  22  25
ATOM     25  O   UNL d   1     -43.048  12.219  21.392  0.00  0.00    -0.328 OA
ATOM     26  C   UNL d   1     -43.526  12.131  22.077  0.00  0.00     0.181 C 
ENDBRANCH  22  25
ENDBRANCH  17  19
ENDBRANCH   1  16
BRANCH   1  27
ATOM     27  C   UNL d   1     -39.064  14.871  21.248  0.00  0.00     0.262 C 
ATOM     28 CL   UNL d   1     -38.497  14.973  21.829  0.00  0.00    -0.074 Cl
ATOM     29 CL   UNL d   1     -39.392  15.634  21.431  0.00  0.00    -0.074 Cl
ATOM     30 CL   UNL d   1     -38.746  14.130  21.068  0.00  0.00    -0.074 Cl
ENDBRANCH   1  27
TORSDOF 9
ENDMDL
MODEL 3
REMARK VINA RESULT:      -3.2      0.989      1.485
REMARK  9 active torsions:
REMARK  status: ('A' for Active; 'I' for Inactive)
REMARK    1  A    between atoms: C_8  and  S_1 
REMARK    2  A    between atoms: C_2  and  N_3 
REMARK    3  A    between atoms: N_4  and  C_2 
REMARK    4  A    between atoms: C_6  and  C_2 
REMARK    5  A    between atoms: N_3  and  C_5 
REMARK       I    between atoms: C_7  and  N_4 
REMARK    6  A    between atoms: C_5  and  N_9 
REMARK    7  A    between atoms: C_13  and  C_7 
REMARK    8  A    between atoms: N_9  and  C_23 
REMARK    9  A    between atoms: O_29  and  C_24 
ROOT
ATOM      1  C   UNL d   1     -40.800  14.908  20.570  0.00  0.00     0.238 C 
ENDROOT
BRANCH   1   2
ATOM      2  N   UNL d   1     -41.457  14.439  20.783  0.00  0.00    -0.188 NA
BRANCH   2   3
ATOM      3  C   UNL d   1     -41.585  13.674  21.068  0.00  0.00     0.223 C 
ATOM      4  S   UNL d   1     -41.125  13.373  21.639  0.00  0.00    -0.037 SA
BRANCH   3   5
ATOM      5  N   UNL d   1     -42.202  13.247  20.737  0.00  0.00    -0.217 NA
BRANCH   5   6
ATOM      6  C   UNL d   1     -42.859  13.027  21.181  0.00  0.00     0.084 A 
ATOM      7  C   UNL d   1     -42.832  12.409  21.714  0.00  0.00     0.020 A 
ATOM      8  C   UNL d   1     -43.479  12.183  22.160  0.00  0.00     0.015 A 
ATOM      9  C   UNL d   1     -44.185  12.593  22.069  0.00  0.00     0.107 A 
ATOM     10  C   UNL d   1     -44.249  13.225  21.537  0.00  0.00     0.015 A 
ATOM     11  C   UNL d   1     -43.580  13.430  21.101  0.00  0.00     0.020 A 
BRANCH   9  12
ATOM     12  S   UNL d   1     -44.854  12.368  22.522  0.00  0.00     0.302 S 
ATOM     13  O   UNL d   1     -44.485  11.651  22.707  0.00  0.00    -0.197 OA
ATOM     14  O   UNL d   1     -45.216  13.093  22.329  0.00  0.00    -0.197 OA
ATOM     15  N   UNL d   1     -45.518  12.151  22.969  0.00  0.00    -0.043 N 
ENDBRANCH   9  12
ENDBRANCH   5   6
ENDBRANCH   3   5
ENDBRANCH   2   3
ENDBRANCH   1   2
BRANCH   1  16
ATOM     16  N   UNL d   1     -40.664  14.993  19.957  0.00  0.00    -0.346 NA
ATOM     17  C   UNL d   1     -40.568  15.222  19.152  0.00  0.00     0.329 C 
ATOM     18  O   UNL d   1     -40.963  15.922  18.874  0.00  0.00    -0.251 OA
BRANCH  17  19
ATOM     19  C   UNL d   1     -40.106  14.772  18.674  0.00  0.00     0.071 A 
ATOM     20  C   UNL d   1     -40.495  14.181  18.155  0.00  0.00     0.008 A 
ATOM     21  C   UNL d   1     -40.036  13.702  17.650  0.00  0.00     0.024 A 
ATOM     22  C   UNL d   1     -39.201  13.787  17.641  0.00  0.00     0.094 A 
ATOM     23  C   UNL d   1     -38.875  14.346  18.138  0.00  0.00     0.024 A 
ATOM     24  C   UNL d   1     -39.320  14.838  18.653  0.00  0.00     0.008 A 
BRANCH  22  25
ATOM     25  O   UNL d   1     -38.767  13.292  17.125  0.00  0.00    -0.328 OA
ATOM     26  C   UNL d   1     -38.248  12.705  17.430  0.00  0.00     0.181 C 
ENDBRANCH  22  25
ENDBRANCH  17  19
ENDBRANCH   1  16
BRANCH   1  27
ATOM     27  C   UNL d   1     -40.342  15.250  21.154  0.00  0.00     0.262 C 
ATOM     28 CL   UNL d   1     -39.881  15.588  21.739  0.00  0.00    -0.074 Cl
ATOM     29 CL   UNL d   1     -40.877  15.909  21.190  0.00  0.00    -0.074 Cl
ATOM     30 CL   UNL d   1     -39.823  14.607  21.117  0.00  0.00    -0.074 Cl
ENDBRANCH   1  27
TORSDOF 9
ENDMDL
MODEL 4
REMARK VINA RESULT:      -2.0      5.454      8.147
REMARK  9 active torsions:
REMARK  status: ('A' for Active; 'I' for Inactive)
REMARK    1  A    between atoms: C_8  and  S_1 
REMARK    2  A    between atoms: C_2  and  N_3 
REMARK    3  A    between atoms: N_4  and  C_2 
REMARK    4  A    between atoms: C_6  and  C_2 
REMARK    5  A    between atoms: N_3  and  C_5 
REMARK       I    between atoms: C_7  and  N_4 
REMARK    6  A    between atoms: C_5  and  N_9 
REMARK    7  A    between atoms: C_13  and  C_7 
REMARK    8  A    between atoms: N_9  and  C_23 
REMARK    9  A    between atoms: O_29  and  C_24 
ROOT
ATOM      1  C   UNL d   1     -48.468  14.752  22.658  0.00  0.00     0.238 C 
ENDROOT
BRANCH   1   2
ATOM      2  N   UNL d   1     -47.780  14.445  23.018  0.00  0.00    -0.188 NA
BRANCH   2   3
ATOM      3  C   UNL d   1     -47.041  14.169  22.770  0.00  0.00     0.223 C 
ATOM      4  S   UNL d   1     -46.388  14.604  22.883  0.00  0.00    -0.037 SA
BRANCH   3   5
ATOM      5  N   UNL d   1     -47.017  13.435  22.405  0.00  0.00    -0.217 NA
BRANCH   5   6
ATOM      6  C   UNL d   1     -46.410  12.900  22.557  0.00  0.00     0.084 A 
ATOM      7  C   UNL d   1     -45.762  12.833  22.063  0.00  0.00     0.020 A 
ATOM      8  C   UNL d   1     -45.154  12.305  22.205  0.00  0.00     0.015 A 
ATOM      9  C   UNL d   1     -45.194  11.823  22.868  0.00  0.00     0.107 A 
ATOM     10  C   UNL d   1     -45.836  11.864  23.390  0.00  0.00     0.015 A 
ATOM     11  C   UNL d   1     -46.435  12.405  23.222  0.00  0.00     0.020 A 
BRANCH   9  12
ATOM     12  S   UNL d   1     -44.575  11.278  23.021  0.00  0.00     0.302 S 
ATOM     13  O   UNL d   1     -44.074  11.713  22.527  0.00  0.00    -0.197 OA
ATOM     14  O   UNL d   1     -45.089  10.849  23.515  0.00  0.00    -0.197 OA
ATOM     15  N   UNL d   1     -43.966  10.737  23.175  0.00  0.00    -0.043 N 
ENDBRANCH   9  12
ENDBRANCH   5   6
ENDBRANCH   3   5
ENDBRANCH   2   3
ENDBRANCH   1   2
BRANCH   1  16
ATOM     16  N   UNL d   1     -49.037  14.564  22.866  0.00  0.00    -0.346 NA
ATOM     17  C   UNL d   1     -49.815  14.454  23.170  0.00  0.00     0.329 C 
ATOM     18  O   UNL d   1     -50.248  15.132  23.445  0.00  0.00    -0.251 OA
BRANCH  17  19
ATOM     19  C   UNL d   1     -50.121  13.711  23.191  0.00  0.00     0.071 A 
ATOM     20  C   UNL d   1     -49.699  13.100  23.660  0.00  0.00     0.008 A 
ATOM     21  C   UNL d   1     -49.997  12.323  23.696  0.00  0.00     0.024 A 
ATOM     22  C   UNL d   1     -50.701  12.127  23.283  0.00  0.00     0.094 A 
ATOM     23  C   UNL d   1     -51.064  12.720  22.858  0.00  0.00     0.024 A 
ATOM     24  C   UNL d   1     -50.780  13.509  22.809  0.00  0.00     0.008 A 
BRANCH  22  25
ATOM     25  O   UNL d   1     -50.976  11.338  23.338  0.00  0.00    -0.328 OA
ATOM     26  C   UNL d   1     -50.480  10.733  23.644  0.00  0.00     0.181 C 
ENDBRANCH  22  25
ENDBRANCH  17  19
ENDBRANCH   1  16
BRANCH   1  27
ATOM     27  C   UNL d   1     -48.399  15.288  22.046  0.00  0.00     0.262 C 
ATOM     28 CL   UNL d   1     -48.332  15.821  21.430  0.00  0.00    -0.074 Cl
ATOM     29 CL   UNL d   1     -47.988  15.825  22.561  0.00  0.00    -0.074 Cl
ATOM     30 CL   UNL d   1     -48.799  14.763  21.547  0.00  0.00    -0.074 Cl
ENDBRANCH   1  27
TORSDOF 9
ENDMDL
MODEL 5
REMARK VINA RESULT:      -2.0      3.710      6.926
REMARK  9 active torsions:
REMARK  status: ('A' for Active; 'I' for Inactive)
REMARK    1  A    between atoms: C_8  and  S_1 
REMARK    2  A    between atoms: C_2  and  N_3 
REMARK    3  A    between atoms: N_4  and  C_2 
REMARK    4  A    between atoms: C_6  and  C_2 
REMARK    5  A    between atoms: N_3  and  C_5 
REMARK       I    between atoms: C_7  and  N_4 
REMARK    6  A    between atoms: C_5  and  N_9 
REMARK    7  A    between atoms: C_13  and  C_7 
REMARK    8  A    between atoms: N_9  and  C_23 
REMARK    9  A    between atoms: O_29  and  C_24 
ROOT
ATOM      1  C   UNL d   1     -46.569  13.300  22.534  0.00  0.00     0.238 C 
ENDROOT
BRANCH   1   2
ATOM      2  N   UNL d   1     -45.917  13.105  22.049  0.00  0.00    -0.188 NA
BRANCH   2   3
ATOM      3  C   UNL d   1     -45.208  12.687  22.132  0.00  0.00     0.223 C 
ATOM      4  S   UNL d   1     -44.986  12.401  22.837  0.00  0.00    -0.037 SA
BRANCH   3   5
ATOM      5  N   UNL d   1     -44.752  12.583  21.457  0.00  0.00    -0.217 NA
BRANCH   5   6
ATOM      6  C   UNL d   1     -43.965  12.821  21.430  0.00  0.00     0.084 A 
ATOM      7  C   UNL d   1     -43.367  12.367  21.751  0.00  0.00     0.020 A 
ATOM      8  C   UNL d   1     -42.581  12.595  21.730  0.00  0.00     0.015 A 
ATOM      9  C   UNL d   1     -42.385  13.307  21.371  0.00  0.00     0.107 A 
ATOM     10  C   UNL d   1     -42.967  13.792  21.035  0.00  0.00     0.015 A 
ATOM     11  C   UNL d   1     -43.750  13.537  21.072  0.00  0.00     0.020 A 
BRANCH   9  12
ATOM     12  S   UNL d   1     -41.583  13.549  21.344  0.00  0.00     0.302 S 
ATOM     13  O   UNL d   1     -41.746  14.009  20.676  0.00  0.00    -0.197 OA
ATOM     14  O   UNL d   1     -41.431  13.082  22.017  0.00  0.00    -0.197 OA
ATOM     15  N   UNL d   1     -40.788  13.784  21.322  0.00  0.00    -0.043 N 
ENDBRANCH   9  12
ENDBRANCH   5   6
ENDBRANCH   3   5
ENDBRANCH   2   3
ENDBRANCH   1   2
BRANCH   1  16
ATOM     16  N   UNL d   1     -47.057  12.898  22.572  0.00  0.00    -0.346 NA
ATOM     17  C   UNL d   1     -47.614  12.277  22.691  0.00  0.00     0.329 C 
ATOM     18  O   UNL d   1     -47.362  11.570  23.090  0.00  0.00    -0.251 OA
BRANCH  17  19
ATOM     19  C   UNL d   1     -48.365  12.374  22.423  0.00  0.00     0.071 A 
ATOM     20  C   UNL d   1     -49.018  12.384  23.009  0.00  0.00     0.008 A 
ATOM     21  C   UNL d   1     -49.805  12.484  22.755  0.00  0.00     0.024 A 
ATOM     22  C   UNL d   1     -49.971  12.575  21.937  0.00  0.00     0.094 A 
ATOM     23  C   UNL d   1     -49.338  12.560  21.423  0.00  0.00     0.024 A 
ATOM     24  C   UNL d   1     -48.539  12.461  21.659  0.00  0.00     0.008 A 
BRANCH  22  25
ATOM     25  O   UNL d   1     -50.771  12.673  21.712  0.00  0.00    -0.328 OA
ATOM     26  C   UNL d   1     -51.064  13.430  21.493  0.00  0.00     0.181 C 
ENDBRANCH  22  25
ENDBRANCH  17  19
ENDBRANCH   1  16
BRANCH   1  27
ATOM     27  C   UNL d   1     -46.567  14.003  22.949  0.00  0.00     0.262 C 
ATOM     28 CL   UNL d   1     -46.567  14.709  23.361  0.00  0.00    -0.074 Cl
ATOM     29 CL   UNL d   1     -46.401  13.580  23.667  0.00  0.00    -0.074 Cl
ATOM     30 CL   UNL d   1     -46.729  14.411  22.249  0.00  0.00    -0.074 Cl
ENDBRANCH   1  27
TORSDOF 9
ENDMDL
MODEL 6
REMARK VINA RESULT:      -1.6      3.969      6.884
REMARK  9 active torsions:
REMARK  status: ('A' for Active; 'I' for Inactive)
REMARK    1  A    between atoms: C_8  and  S_1 
REMARK    2  A    between atoms: C_2  and  N_3 
REMARK    3  A    between atoms: N_4  and  C_2 
REMARK    4  A    between atoms: C_6  and  C_2 
REMARK    5  A    between atoms: N_3  and  C_5 
REMARK       I    between atoms: C_7  and  N_4 
REMARK    6  A    between atoms: C_5  and  N_9 
REMARK    7  A    between atoms: C_13  and  C_7 
REMARK    8  A    between atoms: N_9  and  C_23 
REMARK    9  A    between atoms: O_29  and  C_24 
ROOT
ATOM      1  C   UNL d   1     -46.782  13.015  22.595  0.00  0.00     0.238 C 
ENDROOT
BRANCH   1   2
ATOM      2  N   UNL d   1     -46.103  12.928  22.116  0.00  0.00    -0.188 NA
BRANCH   2   3
ATOM      3  C   UNL d   1     -45.301  12.762  22.232  0.00  0.00     0.223 C 
ATOM      4  S   UNL d   1     -44.985  12.781  22.959  0.00  0.00    -0.037 SA
BRANCH   3   5
ATOM      5  N   UNL d   1     -44.855  12.580  21.568  0.00  0.00    -0.217 NA
BRANCH   5   6
ATOM      6  C   UNL d   1     -44.096  12.880  21.465  0.00  0.00     0.084 A 
ATOM      7  C   UNL d   1     -43.432  12.417  21.570  0.00  0.00     0.020 A 
ATOM      8  C   UNL d   1     -42.673  12.706  21.470  0.00  0.00     0.015 A 
ATOM      9  C   UNL d   1     -42.574  13.493  21.255  0.00  0.00     0.107 A 
ATOM     10  C   UNL d   1     -43.226  13.991  21.140  0.00  0.00     0.015 A 
ATOM     11  C   UNL d   1     -43.978  13.672  21.248  0.00  0.00     0.020 A 
BRANCH   9  12
ATOM     12  S   UNL d   1     -41.800  13.798  21.150  0.00  0.00     0.302 S 
ATOM     13  O   UNL d   1     -42.081  14.559  21.308  0.00  0.00    -0.197 OA
ATOM     14  O   UNL d   1     -41.529  13.026  20.993  0.00  0.00    -0.197 OA
ATOM     15  N   UNL d   1     -41.032  14.093  21.045  0.00  0.00    -0.043 N 
ENDBRANCH   9  12
ENDBRANCH   5   6
ENDBRANCH   3   5
ENDBRANCH   2   3
ENDBRANCH   1   2
BRANCH   1  16
ATOM     16  N   UNL d   1     -47.061  13.583  22.637  0.00  0.00    -0.346 NA
ATOM     17  C   UNL d   1     -47.302  14.385  22.735  0.00  0.00     0.329 C 
ATOM     18  O   UNL d   1     -46.728  14.958  22.988  0.00  0.00    -0.251 OA
BRANCH  17  19
ATOM     19  C   UNL d   1     -48.067  14.580  22.584  0.00  0.00     0.071 A 
ATOM     20  C   UNL d   1     -48.585  14.785  23.262  0.00  0.00     0.008 A 
ATOM     21  C   UNL d   1     -49.381  14.991  23.131  0.00  0.00     0.024 A 
ATOM     22  C   UNL d   1     -49.686  15.001  22.349  0.00  0.00     0.094 A 
ATOM     23  C   UNL d   1     -49.175  14.804  21.745  0.00  0.00     0.024 A 
ATOM     24  C   UNL d   1     -48.369  14.594  21.856  0.00  0.00     0.008 A 
BRANCH  22  25
ATOM     25  O   UNL d   1     -50.490  15.211  22.248  0.00  0.00    -0.328 OA
ATOM     26  C   UNL d   1     -51.059  14.634  22.026  0.00  0.00     0.181 C 
ENDBRANCH  22  25
ENDBRANCH  17  19
ENDBRANCH   1  16
BRANCH   1  27
ATOM     27  C   UNL d   1     -47.077  12.370  22.999  0.00  0.00     0.262 C 
ATOM     28 CL   UNL d   1     -47.370  11.725  23.408  0.00  0.00    -0.074 Cl
ATOM     29 CL   UNL d   1     -47.418  12.073  22.280  0.00  0.00    -0.074 Cl
ATOM     30 CL   UNL d   1     -46.744  12.661  23.697  0.00  0.00    -0.074 Cl
ENDBRANCH   1  27
TORSDOF 9
ENDMDL
MODEL 7
REMARK VINA RESULT:      -1.3      2.824      3.937
REMARK  9 active torsions:
REMARK  status: ('A' for Active; 'I' for Inactive)
REMARK    1  A    between atoms: C_8  and  S_1 
REMARK    2  A    between atoms: C_2  and  N_3 
REMARK    3  A    between atoms: N_4  and  C_2 
REMARK    4  A    between atoms: C_6  and  C_2 
REMARK    5  A    between atoms: N_3  and  C_5 
REMARK       I    between atoms: C_7  and  N_4 
REMARK    6  A    between atoms: C_5  and  N_9 
REMARK    7  A    between atoms: C_13  and  C_7 
REMARK    8  A    between atoms: N_9  and  C_23 
REMARK    9  A    between atoms: O_29  and  C_24 
ROOT
ATOM      1  C   UNL d   1     -43.440  12.787  21.795  0.00  0.00     0.238 C 
ENDROOT
BRANCH   1   2
ATOM      2  N   UNL d   1     -44.130  13.219  21.982  0.00  0.00    -0.188 NA
BRANCH   2   3
ATOM      3  C   UNL d   1     -44.944  13.075  22.005  0.00  0.00     0.223 C 
ATOM      4  S   UNL d   1     -45.324  12.797  21.367  0.00  0.00    -0.037 SA
BRANCH   3   5
ATOM      5  N   UNL d   1     -45.334  13.232  22.709  0.00  0.00    -0.217 NA
BRANCH   5   6
ATOM      6  C   UNL d   1     -46.081  13.577  22.719  0.00  0.00     0.084 A 
ATOM      7  C   UNL d   1     -46.762  13.130  22.767  0.00  0.00     0.020 A 
ATOM      8  C   UNL d   1     -47.509  13.464  22.777  0.00  0.00     0.015 A 
ATOM      9  C   UNL d   1     -47.577  14.281  22.738  0.00  0.00     0.107 A 
ATOM     10  C   UNL d   1     -46.908  14.766  22.689  0.00  0.00     0.015 A 
ATOM     11  C   UNL d   1     -46.168  14.401  22.680  0.00  0.00     0.020 A 
BRANCH   9  12
ATOM     12  S   UNL d   1     -48.339  14.632  22.748  0.00  0.00     0.302 S 
ATOM     13  O   UNL d   1     -48.634  13.975  23.155  0.00  0.00    -0.197 OA
ATOM     14  O   UNL d   1     -48.031  15.288  22.338  0.00  0.00    -0.197 OA
ATOM     15  N   UNL d   1     -49.090  14.984  22.755  0.00  0.00    -0.043 N 
ENDBRANCH   9  12
ENDBRANCH   5   6
ENDBRANCH   3   5
ENDBRANCH   2   3
ENDBRANCH   1   2
BRANCH   1  16
ATOM     16  N   UNL d   1     -43.021  13.033  21.388  0.00  0.00    -0.346 NA
ATOM     17  C   UNL d   1     -42.516  13.263  20.754  0.00  0.00     0.329 C 
ATOM     18  O   UNL d   1     -42.581  12.857  20.010  0.00  0.00    -0.251 OA
BRANCH  17  19
ATOM     19  C   UNL d   1     -41.992  13.860  20.874  0.00  0.00     0.071 A 
ATOM     20  C   UNL d   1     -41.142  13.656  20.954  0.00  0.00     0.008 A 
ATOM     21  C   UNL d   1     -40.579  14.258  21.079  0.00  0.00     0.024 A 
ATOM     22  C   UNL d   1     -40.828  15.058  21.128  0.00  0.00     0.094 A 
ATOM     23  C   UNL d   1     -41.626  15.208  21.049  0.00  0.00     0.024 A 
ATOM     24  C   UNL d   1     -42.208  14.617  20.923  0.00  0.00     0.008 A 
BRANCH  22  25
ATOM     25  O   UNL d   1     -40.240  15.640  21.254  0.00  0.00    -0.328 OA
ATOM     26  C   UNL d   1     -39.691  15.564  21.886  0.00  0.00     0.181 C 
ENDBRANCH  22  25
ENDBRANCH  17  19
ENDBRANCH   1  16
BRANCH   1  27
ATOM     27  C   UNL d   1     -43.315  12.057  22.139  0.00  0.00     0.262 C 
ATOM     28 CL   UNL d   1     -43.192  11.324  22.480  0.00  0.00    -0.074 Cl
ATOM     29 CL   UNL d   1     -42.988  12.435  22.826  0.00  0.00    -0.074 Cl
ATOM     30 CL   UNL d   1     -43.635  11.692  21.470  0.00  0.00    -0.074 Cl
ENDBRANCH   1  27
TORSDOF 9
ENDMDL
