MODEL 1
REMARK VINA RESULT:      -4.5      0.000      0.000
REMARK  2 active torsions:
REMARK  status: ('A' for Active; 'I' for Inactive)
REMARK       I    between atoms: C_9  and  N_1 
REMARK    1  A    between atoms: C_5  and  C_3 
REMARK    2  A    between atoms: C_8  and  C_4 
ROOT
ATOM      1  N   UNL d   1     -41.498-121.846 -52.048  0.00  0.00    -0.193 N 
ATOM      2  N   UNL d   1     -41.512-121.646 -52.832  0.00  0.00    -0.162 NA
ATOM      3  C   UNL d   1     -41.687-122.648 -51.986  0.00  0.00     0.110 A 
ATOM      4  C   UNL d   1     -41.708-122.317 -53.273  0.00  0.00     0.109 A 
ATOM      5  C   UNL d   1     -41.812-122.923 -52.733  0.00  0.00     0.043 A 
ATOM      6  C   UNL d   1     -41.312-121.318 -51.289  0.00  0.00     0.281 C 
ATOM      7  O   UNL d   1     -41.342-121.680 -50.574  0.00  0.00    -0.265 OA
ATOM      8  C   UNL d   1     -41.123-120.516 -51.351  0.00  0.00     0.068 C 
ENDROOT
BRANCH   3   9
ATOM      9  C   UNL d   1     -41.731-123.060 -51.293  0.00  0.00     0.118 A 
ATOM     10  O   UNL d   1     -42.412-123.138 -50.834  0.00  0.00    -0.306 OA
ATOM     11  C   UNL d   1     -42.213-123.604 -50.171  0.00  0.00     0.100 A 
ATOM     12  C   UNL d   1     -42.746-123.817 -49.563  0.00  0.00     0.027 C 
ATOM     13  C   UNL d   1     -41.416-123.815 -50.213  0.00  0.00     0.027 A 
ATOM     14  C   UNL d   1     -41.124-123.478 -50.905  0.00  0.00     0.028 A 
ENDBRANCH   3   9
BRANCH   4  15
ATOM     15  C   UNL d   1     -41.784-122.362 -54.094  0.00  0.00     0.049 A 
ATOM     16  S   UNL d   1     -41.364-122.848 -54.578  0.00  0.00    -0.085 SA
ATOM     17  C   UNL d   1     -41.604-122.722 -55.336  0.00  0.00     0.035 A 
ATOM     18  C   UNL d   1     -42.190-122.140 -55.315  0.00  0.00     0.007 A 
ATOM     19  C   UNL d   1     -42.297-121.921 -54.543  0.00  0.00     0.009 A 
ENDBRANCH   4  15
TORSDOF 2
ENDMDL
MODEL 2
REMARK VINA RESULT:      -3.3      1.688      3.766
REMARK  2 active torsions:
REMARK  status: ('A' for Active; 'I' for Inactive)
REMARK       I    between atoms: C_9  and  N_1 
REMARK    1  A    between atoms: C_5  and  C_3 
REMARK    2  A    between atoms: C_8  and  C_4 
ROOT
ATOM      1  N   UNL d   1     -41.635-122.185 -51.101  0.00  0.00    -0.193 N 
ATOM      2  N   UNL d   1     -41.841-122.244 -50.321  0.00  0.00    -0.162 NA
ATOM      3  C   UNL d   1     -41.790-122.911 -51.462  0.00  0.00     0.110 A 
ATOM      4  C   UNL d   1     -42.127-123.006 -50.180  0.00  0.00     0.109 A 
ATOM      5  C   UNL d   1     -42.088-123.402 -50.896  0.00  0.00     0.043 A 
ATOM      6  C   UNL d   1     -41.278-121.456 -51.582  0.00  0.00     0.281 C 
ATOM      7  O   UNL d   1     -41.129-121.569 -52.362  0.00  0.00    -0.265 OA
ATOM      8  C   UNL d   1     -41.123-120.729 -51.221  0.00  0.00     0.068 C 
ENDROOT
BRANCH   3   9
ATOM      9  C   UNL d   1     -41.658-123.077 -52.242  0.00  0.00     0.118 A 
ATOM     10  O   UNL d   1     -42.048-122.716 -52.873  0.00  0.00    -0.306 OA
ATOM     11  C   UNL d   1     -41.746-123.049 -53.575  0.00  0.00     0.100 A 
ATOM     12  C   UNL d   1     -41.992-122.837 -54.345  0.00  0.00     0.027 C 
ATOM     13  C   UNL d   1     -41.173-123.613 -53.387  0.00  0.00     0.027 A 
ATOM     14  C   UNL d   1     -41.123-123.627 -52.566  0.00  0.00     0.028 A 
ENDBRANCH   3   9
BRANCH   4  15
ATOM     15  C   UNL d   1     -42.399-123.306 -49.460  0.00  0.00     0.049 A 
ATOM     16  S   UNL d   1     -41.937-123.550 -48.849  0.00  0.00    -0.085 SA
ATOM     17  C   UNL d   1     -42.416-123.802 -48.253  0.00  0.00     0.035 A 
ATOM     18  C   UNL d   1     -43.196-123.709 -48.508  0.00  0.00     0.007 A 
ATOM     19  C   UNL d   1     -43.179-123.402 -49.256  0.00  0.00     0.009 A 
ENDBRANCH   4  15
TORSDOF 2
ENDMDL
MODEL 3
REMARK VINA RESULT:      -3.1      1.923      2.968
REMARK  2 active torsions:
REMARK  status: ('A' for Active; 'I' for Inactive)
REMARK       I    between atoms: C_9  and  N_1 
REMARK    1  A    between atoms: C_5  and  C_3 
REMARK    2  A    between atoms: C_8  and  C_4 
ROOT
ATOM      1  N   UNL d   1     -42.589-123.265 -49.874  0.00  0.00    -0.193 N 
ATOM      2  N   UNL d   1     -42.559-123.074 -50.659  0.00  0.00    -0.162 NA
ATOM      3  C   UNL d   1     -41.854-123.091 -49.541  0.00  0.00     0.110 A 
ATOM      4  C   UNL d   1     -41.806-122.778 -50.831  0.00  0.00     0.109 A 
ATOM      5  C   UNL d   1     -41.387-122.797 -50.128  0.00  0.00     0.043 A 
ATOM      6  C   UNL d   1     -43.296-123.624 -49.363  0.00  0.00     0.281 C 
ATOM      7  O   UNL d   1     -43.155-123.756 -48.585  0.00  0.00    -0.265 OA
ATOM      8  C   UNL d   1     -44.031-123.798 -49.697  0.00  0.00     0.068 C 
ENDROOT
BRANCH   3   9
ATOM      9  C   UNL d   1     -41.661-123.205 -48.764  0.00  0.00     0.118 A 
ATOM     10  O   UNL d   1     -41.894-122.714 -48.144  0.00  0.00    -0.306 OA
ATOM     11  C   UNL d   1     -41.576-123.032 -47.442  0.00  0.00     0.100 A 
ATOM     12  C   UNL d   1     -41.681-122.702 -46.681  0.00  0.00     0.027 C 
ATOM     13  C   UNL d   1     -41.147-123.714 -47.620  0.00  0.00     0.027 A 
ATOM     14  C   UNL d   1     -41.202-123.817 -48.434  0.00  0.00     0.028 A 
ENDBRANCH   3   9
BRANCH   4  15
ATOM     15  C   UNL d   1     -41.535-122.515 -51.566  0.00  0.00     0.049 A 
ATOM     16  S   UNL d   1     -41.389-121.751 -51.766  0.00  0.00    -0.085 SA
ATOM     17  C   UNL d   1     -41.133-121.733 -52.530  0.00  0.00     0.035 A 
ATOM     18  C   UNL d   1     -41.123-122.512 -52.804  0.00  0.00     0.007 A 
ATOM     19  C   UNL d   1     -41.372-122.992 -52.203  0.00  0.00     0.009 A 
ENDBRANCH   4  15
TORSDOF 2
ENDMDL
