MODEL 1
REMARK VINA RESULT:      -8.8      0.000      0.000
REMARK  2 active torsions:
REMARK  status: ('A' for Active; 'I' for Inactive)
REMARK    1  A    between atoms: C_4  and  N_1 
REMARK    2  A    between atoms: C_7  and  C_9 
ROOT
ATOM      1  C   UNL d   1      53.676  32.206  53.739  0.00  0.00     0.070 A 
ATOM      2  C   UNL d   1      53.731  31.383  53.819  0.00  0.00     0.024 A 
ATOM      3  C   UNL d   1      53.212  30.896  53.415  0.00  0.00     0.066 A 
ATOM      4  C   UNL d   1      53.102  32.542  53.256  0.00  0.00     0.018 A 
ATOM      5  C   UNL d   1      52.632  31.232  52.926  0.00  0.00     0.006 A 
ATOM      6  C   UNL d   1      52.576  32.055  52.846  0.00  0.00     0.002 A 
ENDROOT
BRANCH   1   7
ATOM      7  N   UNL d   1      54.197  32.699  54.145  0.00  0.00    -0.242 N 
ATOM      8  C   UNL d   1      54.899  33.026  53.834  0.00  0.00     0.267 A 
ATOM      9  C   UNL d   1      55.254  33.485  54.419  0.00  0.00     0.066 A 
ATOM     10  O   UNL d   1      55.217  32.931  53.076  0.00  0.00    -0.267 OA
ATOM     11  C   UNL d   1      54.776  33.446  55.095  0.00  0.00     0.066 A 
ATOM     12  C   UNL d   1      54.132  32.967  54.926  0.00  0.00     0.267 A 
ATOM     13  O   UNL d   1      53.537  32.806  55.485  0.00  0.00    -0.267 OA
ENDBRANCH   1   7
BRANCH   3  14
ATOM     14  C   UNL d   1      53.256  30.080  53.486  0.00  0.00     0.211 C 
ATOM     15  O   UNL d   1      53.970  29.689  53.395  0.00  0.00    -0.644 OA
ATOM     16  O   UNL d   1      52.565  29.652  53.652  0.00  0.00    -0.644 OA
ENDBRANCH   3  14
TORSDOF 2
ENDMDL
MODEL 2
REMARK VINA RESULT:      -8.8      1.827      3.151
REMARK  2 active torsions:
REMARK  status: ('A' for Active; 'I' for Inactive)
REMARK    1  A    between atoms: C_4  and  N_1 
REMARK    2  A    between atoms: C_7  and  C_9 
ROOT
ATOM      1  C   UNL d   1      52.966  33.254  53.501  0.00  0.00     0.070 A 
ATOM      2  C   UNL d   1      53.321  33.439  54.227  0.00  0.00     0.024 A 
ATOM      3  C   UNL d   1      54.031  33.091  54.435  0.00  0.00     0.066 A 
ATOM      4  C   UNL d   1      53.321  32.723  52.984  0.00  0.00     0.018 A 
ATOM      5  C   UNL d   1      54.393  32.554  53.916  0.00  0.00     0.006 A 
ATOM      6  C   UNL d   1      54.038  32.370  53.190  0.00  0.00     0.002 A 
ENDROOT
BRANCH   1   7
ATOM      7  N   UNL d   1      52.250  33.602  53.288  0.00  0.00    -0.242 N 
ATOM      8  C   UNL d   1      52.153  34.381  53.004  0.00  0.00     0.267 A 
ATOM      9  C   UNL d   1      51.352  34.507  52.857  0.00  0.00     0.066 A 
ATOM     10  O   UNL d   1      52.733  34.958  52.879  0.00  0.00    -0.267 OA
ATOM     11  C   UNL d   1      50.947  33.809  53.048  0.00  0.00     0.066 A 
ATOM     12  C   UNL d   1      51.496  33.259  53.310  0.00  0.00     0.267 A 
ATOM     13  O   UNL d   1      51.280  32.491  53.549  0.00  0.00    -0.267 OA
ENDBRANCH   1   7
BRANCH   3  14
ATOM     14  C   UNL d   1      54.393  33.265  55.151  0.00  0.00     0.211 C 
ATOM     15  O   UNL d   1      54.292  32.778  55.802  0.00  0.00    -0.644 OA
ATOM     16  O   UNL d   1      54.866  33.945  55.209  0.00  0.00    -0.644 OA
ENDBRANCH   3  14
TORSDOF 2
ENDMDL
MODEL 3
REMARK VINA RESULT:      -8.6      2.041      2.819
REMARK  2 active torsions:
REMARK  status: ('A' for Active; 'I' for Inactive)
REMARK    1  A    between atoms: C_4  and  N_1 
REMARK    2  A    between atoms: C_7  and  C_9 
ROOT
ATOM      1  C   UNL d   1      52.961  33.913  53.702  0.00  0.00     0.070 A 
ATOM      2  C   UNL d   1      52.210  33.564  53.742  0.00  0.00     0.024 A 
ATOM      3  C   UNL d   1      51.622  33.799  53.225  0.00  0.00     0.066 A 
ATOM      4  C   UNL d   1      53.123  34.496  53.146  0.00  0.00     0.018 A 
ATOM      5  C   UNL d   1      51.782  34.388  52.662  0.00  0.00     0.006 A 
ATOM      6  C   UNL d   1      52.533  34.737  52.622  0.00  0.00     0.002 A 
ENDROOT
BRANCH   1   7
ATOM      7  N   UNL d   1      53.557  33.678  54.222  0.00  0.00    -0.242 N 
ATOM      8  C   UNL d   1      53.737  34.042  54.951  0.00  0.00     0.267 A 
ATOM      9  C   UNL d   1      54.367  33.637  55.294  0.00  0.00     0.066 A 
ATOM     10  O   UNL d   1      53.372  34.696  55.303  0.00  0.00    -0.267 OA
ATOM     11  C   UNL d   1      54.582  33.021  54.783  0.00  0.00     0.066 A 
ATOM     12  C   UNL d   1      54.086  33.048  54.130  0.00  0.00     0.267 A 
ATOM     13  O   UNL d   1      54.147  32.505  53.501  0.00  0.00    -0.267 OA
ENDBRANCH   1   7
BRANCH   3  14
ATOM     14  C   UNL d   1      50.874  33.463  53.254  0.00  0.00     0.211 C 
ATOM     15  O   UNL d   1      50.781  32.656  53.363  0.00  0.00    -0.644 OA
ATOM     16  O   UNL d   1      50.208  33.951  53.171  0.00  0.00    -0.644 OA
ENDBRANCH   3  14
TORSDOF 2
ENDMDL
MODEL 4
REMARK VINA RESULT:      -8.5      1.085      3.205
REMARK  2 active torsions:
REMARK  status: ('A' for Active; 'I' for Inactive)
REMARK    1  A    between atoms: C_4  and  N_1 
REMARK    2  A    between atoms: C_7  and  C_9 
ROOT
ATOM      1  C   UNL d   1      53.958  32.340  53.657  0.00  0.00     0.070 A 
ATOM      2  C   UNL d   1      53.833  32.769  54.355  0.00  0.00     0.024 A 
ATOM      3  C   UNL d   1      54.380  33.325  54.598  0.00  0.00     0.066 A 
ATOM      4  C   UNL d   1      54.630  32.468  53.202  0.00  0.00     0.018 A 
ATOM      5  C   UNL d   1      55.060  33.458  54.141  0.00  0.00     0.006 A 
ATOM      6  C   UNL d   1      55.186  33.029  53.442  0.00  0.00     0.002 A 
ENDROOT
BRANCH   1   7
ATOM      7  N   UNL d   1      53.408  31.778  53.410  0.00  0.00    -0.242 N 
ATOM      8  C   UNL d   1      52.747  31.926  52.922  0.00  0.00     0.267 A 
ATOM      9  C   UNL d   1      52.344  31.217  52.809  0.00  0.00     0.066 A 
ATOM     10  O   UNL d   1      52.504  32.644  52.591  0.00  0.00    -0.267 OA
ATOM     11  C   UNL d   1      52.750  30.625  53.223  0.00  0.00     0.066 A 
ATOM     12  C   UNL d   1      53.399  30.969  53.589  0.00  0.00     0.267 A 
ATOM     13  O   UNL d   1      53.932  30.532  54.055  0.00  0.00    -0.267 OA
ENDBRANCH   1   7
BRANCH   3  14
ATOM     14  C   UNL d   1      54.268  33.757  55.287  0.00  0.00     0.211 C 
ATOM     15  O   UNL d   1      53.706  34.352  55.323  0.00  0.00    -0.644 OA
ATOM     16  O   UNL d   1      54.734  33.582  55.952  0.00  0.00    -0.644 OA
ENDBRANCH   3  14
TORSDOF 2
ENDMDL
MODEL 5
REMARK VINA RESULT:      -8.1      1.690      2.235
REMARK  2 active torsions:
REMARK  status: ('A' for Active; 'I' for Inactive)
REMARK    1  A    between atoms: C_4  and  N_1 
REMARK    2  A    between atoms: C_7  and  C_9 
ROOT
ATOM      1  C   UNL d   1      53.639  33.439  53.763  0.00  0.00     0.070 A 
ATOM      2  C   UNL d   1      53.163  32.776  53.619  0.00  0.00     0.024 A 
ATOM      3  C   UNL d   1      53.503  32.071  53.383  0.00  0.00     0.066 A 
ATOM      4  C   UNL d   1      54.455  33.396  53.671  0.00  0.00     0.018 A 
ATOM      5  C   UNL d   1      54.326  32.024  53.289  0.00  0.00     0.006 A 
ATOM      6  C   UNL d   1      54.803  32.687  53.433  0.00  0.00     0.002 A 
ENDROOT
BRANCH   1   7
ATOM      7  N   UNL d   1      53.300  34.151  54.001  0.00  0.00    -0.242 N 
ATOM      8  C   UNL d   1      53.324  34.468  54.773  0.00  0.00     0.267 A 
ATOM      9  C   UNL d   1      52.920  35.185  54.773  0.00  0.00     0.066 A 
ATOM     10  O   UNL d   1      53.681  34.148  55.448  0.00  0.00    -0.267 OA
ATOM     11  C   UNL d   1      52.643  35.320  54.003  0.00  0.00     0.066 A 
ATOM     12  C   UNL d   1      52.876  34.688  53.534  0.00  0.00     0.267 A 
ATOM     13  O   UNL d   1      52.690  34.642  52.724  0.00  0.00    -0.267 OA
ENDBRANCH   1   7
BRANCH   3  14
ATOM     14  C   UNL d   1      53.043  31.407  53.238  0.00  0.00     0.211 C 
ATOM     15  O   UNL d   1      52.587  31.353  52.559  0.00  0.00    -0.644 OA
ATOM     16  O   UNL d   1      53.044  30.786  53.789  0.00  0.00    -0.644 OA
ENDBRANCH   3  14
TORSDOF 2
ENDMDL
