MODEL 1
REMARK VINA RESULT:      16.3      0.000      0.000
REMARK  1 active torsions:
REMARK  status: ('A' for Active; 'I' for Inactive)
REMARK    1  A    between atoms: C_9  and  C_1 
ROOT
ATOM      1  C   UNL d   1     -50.896  25.256  33.329  0.00  0.00     0.087 A 
ATOM      2  N   UNL d   1     -50.054  25.171  33.327  0.00  0.00    -0.191 NA
ATOM      3  C   UNL d   1     -51.376  24.595  33.322  0.00  0.00     0.036 A 
ATOM      4  C   UNL d   1     -49.733  24.370  33.318  0.00  0.00     0.369 A 
ATOM      5  N   UNL d   1     -50.279  23.718  33.311  0.00  0.00    -0.191 NA
ATOM      6  C   UNL d   1     -51.071  23.834  33.314  0.00  0.00     0.088 A 
ATOM      7  C   UNL d   1     -52.210  24.729  33.325  0.00  0.00     0.014 A 
ATOM      8  O   UNL d   1     -48.881  24.191  33.314  0.00  0.00    -0.242 OA
ATOM      9  C   UNL d   1     -51.594  23.191  33.307  0.00  0.00     0.020 A 
ATOM     10  C   UNL d   1     -52.726  24.100  33.319  0.00  0.00     0.058 A 
ATOM     11  C   UNL d   1     -52.405  23.299  33.310  0.00  0.00     0.013 A 
ATOM     12 CL   UNL d   1     -53.568  24.254  33.322  0.00  0.00    -0.082 Cl
ENDROOT
BRANCH   1  13
ATOM     13  C   UNL d   1     -51.189  25.987  33.337  0.00  0.00     0.018 A 
ATOM     14  C   UNL d   1     -50.676  26.626  33.348  0.00  0.00     0.002 A 
ATOM     15  C   UNL d   1     -50.942  27.404  33.357  0.00  0.00     0.000 A 
ATOM     16  C   UNL d   1     -51.817  27.555  33.355  0.00  0.00     0.000 A 
ATOM     17  C   UNL d   1     -52.317  26.898  33.343  0.00  0.00     0.000 A 
ATOM     18  C   UNL d   1     -52.008  26.127  33.335  0.00  0.00     0.002 A 
ENDBRANCH   1  13
TORSDOF 1
ENDMDL
MODEL 2
REMARK VINA RESULT:      17.1      1.830      3.169
REMARK  1 active torsions:
REMARK  status: ('A' for Active; 'I' for Inactive)
REMARK    1  A    between atoms: C_9  and  C_1 
ROOT
ATOM      1  C   UNL d   1     -51.839  25.453  33.327  0.00  0.00     0.087 A 
ATOM      2  N   UNL d   1     -52.300  26.163  33.321  0.00  0.00    -0.191 NA
ATOM      3  C   UNL d   1     -51.023  25.492  33.331  0.00  0.00     0.036 A 
ATOM      4  C   UNL d   1     -51.876  26.915  33.318  0.00  0.00     0.369 A 
ATOM      5  N   UNL d   1     -51.025  26.896  33.322  0.00  0.00    -0.191 NA
ATOM      6  C   UNL d   1     -50.620  26.206  33.328  0.00  0.00     0.088 A 
ATOM      7  C   UNL d   1     -50.606  24.757  33.337  0.00  0.00     0.014 A 
ATOM      8  O   UNL d   1     -52.269  27.691  33.311  0.00  0.00    -0.242 OA
ATOM      9  C   UNL d   1     -49.792  26.200  33.332  0.00  0.00     0.020 A 
ATOM     10  C   UNL d   1     -49.793  24.748  33.341  0.00  0.00     0.058 A 
ATOM     11  C   UNL d   1     -49.369  25.500  33.338  0.00  0.00     0.013 A 
ATOM     12 CL   UNL d   1     -49.386  23.995  33.347  0.00  0.00    -0.082 Cl
ENDROOT
BRANCH   1  13
ATOM     13  C   UNL d   1     -52.227  24.767  33.330  0.00  0.00     0.018 A 
ATOM     14  C   UNL d   1     -53.046  24.767  33.319  0.00  0.00     0.002 A 
ATOM     15  C   UNL d   1     -53.486  24.073  33.321  0.00  0.00     0.000 A 
ATOM     16  C   UNL d   1     -53.057  23.296  33.335  0.00  0.00     0.000 A 
ATOM     17  C   UNL d   1     -52.232  23.317  33.346  0.00  0.00     0.000 A 
ATOM     18  C   UNL d   1     -51.824  24.041  33.344  0.00  0.00     0.002 A 
ENDBRANCH   1  13
TORSDOF 1
ENDMDL
MODEL 3
REMARK VINA RESULT:      18.8      1.924      2.341
REMARK  1 active torsions:
REMARK  status: ('A' for Active; 'I' for Inactive)
REMARK    1  A    between atoms: C_9  and  C_1 
ROOT
ATOM      1  C   UNL d   1     -52.040  25.628  33.317  0.00  0.00     0.087 A 
ATOM      2  N   UNL d   1     -52.821  25.955  33.314  0.00  0.00    -0.191 NA
ATOM      3  C   UNL d   1     -51.933  24.818  33.316  0.00  0.00     0.036 A 
ATOM      4  C   UNL d   1     -53.485  25.403  33.310  0.00  0.00     0.369 A 
ATOM      5  N   UNL d   1     -53.315  24.569  33.309  0.00  0.00    -0.191 NA
ATOM      6  C   UNL d   1     -52.563  24.294  33.312  0.00  0.00     0.088 A 
ATOM      7  C   UNL d   1     -51.135  24.539  33.319  0.00  0.00     0.014 A 
ATOM      8  O   UNL d   1     -54.319  25.651  33.306  0.00  0.00    -0.242 OA
ATOM      9  C   UNL d   1     -52.410  23.480  33.311  0.00  0.00     0.020 A 
ATOM     10  C   UNL d   1     -50.981  23.740  33.318  0.00  0.00     0.058 A 
ATOM     11  C   UNL d   1     -51.645  23.189  33.314  0.00  0.00     0.013 A 
ATOM     12 CL   UNL d   1     -50.168  23.475  33.322  0.00  0.00    -0.082 Cl
ENDROOT
BRANCH   1  13
ATOM     13  C   UNL d   1     -51.434  26.132  33.321  0.00  0.00     0.018 A 
ATOM     14  C   UNL d   1     -51.581  26.938  33.340  0.00  0.00     0.002 A 
ATOM     15  C   UNL d   1     -50.977  27.495  33.345  0.00  0.00     0.000 A 
ATOM     16  C   UNL d   1     -50.135  27.211  33.330  0.00  0.00     0.000 A 
ATOM     17  C   UNL d   1     -50.009  26.396  33.312  0.00  0.00     0.000 A 
ATOM     18  C   UNL d   1     -50.648  25.865  33.308  0.00  0.00     0.002 A 
ENDBRANCH   1  13
TORSDOF 1
ENDMDL
