MODEL 1
REMARK VINA RESULT:      27.6      0.000      0.000
REMARK  2 active torsions:
REMARK  status: ('A' for Active; 'I' for Inactive)
REMARK    1  A    between atoms: C_8  and  C_2 
REMARK    2  A    between atoms: C_9  and  C_4 
ROOT
ATOM      1  N   UNL d   1      46.114 -16.851  42.752  0.00  0.00    -0.246 NA
ATOM      2  C   UNL d   1      46.032 -18.243  43.634  0.00  0.00     0.003 A 
ATOM      3  C   UNL d   1      46.209 -18.274  42.829  0.00  0.00     0.018 A 
ATOM      4  C   UNL d   1      45.936 -16.818  43.557  0.00  0.00     0.081 A 
ATOM      5  C   UNL d   1      45.896 -17.515  43.999  0.00  0.00     0.019 A 
ATOM      6  C   UNL d   1      46.250 -17.577  42.388  0.00  0.00     0.081 A 
ATOM      7  C   UNL d   1      46.346 -19.001  42.465  0.00  0.00     0.002 A 
ATOM      8  C   UNL d   1      46.427 -17.609  41.583  0.00  0.00     0.019 A 
ATOM      9  C   UNL d   1      46.523 -19.033  41.660  0.00  0.00     0.000 A 
ATOM     10  C   UNL d   1      46.563 -18.337  41.219  0.00  0.00     0.002 A 
ATOM     11  C   UNL d   1      46.647 -19.731  41.342  0.00  0.00     0.000 C 
ENDROOT
BRANCH   2  12
ATOM     12  C   UNL d   1      45.992 -18.935  44.072  0.00  0.00     0.000 A 
ATOM     13  C   UNL d   1      45.299 -19.383  44.072  0.00  0.00     0.000 A 
ATOM     14  C   UNL d   1      45.258 -20.080  44.514  0.00  0.00     0.000 A 
ATOM     15  C   UNL d   1      45.911 -20.327  44.954  0.00  0.00     0.000 A 
ATOM     16  C   UNL d   1      46.603 -19.879  44.954  0.00  0.00     0.000 A 
ATOM     17  C   UNL d   1      46.644 -19.182  44.513  0.00  0.00     0.000 A 
ENDBRANCH   2  12
BRANCH   4  18
ATOM     18  C   UNL d   1      45.800 -16.091  43.922  0.00  0.00     0.021 A 
ATOM     19  C   UNL d   1      45.291 -16.043  44.569  0.00  0.00     0.022 A 
ATOM     20  C   UNL d   1      45.154 -15.316  44.933  0.00  0.00     0.099 A 
ATOM     21  N   UNL d   1      45.527 -14.636  44.650  0.00  0.00    -0.242 NA
ATOM     22  C   UNL d   1      46.012 -14.729  44.022  0.00  0.00     0.099 A 
ATOM     23  C   UNL d   1      46.173 -15.412  43.638  0.00  0.00     0.022 A 
ENDBRANCH   4  18
TORSDOF 2
ENDMDL
MODEL 2
REMARK VINA RESULT:      29.0      0.846      2.332
REMARK  2 active torsions:
REMARK  status: ('A' for Active; 'I' for Inactive)
REMARK    1  A    between atoms: C_8  and  C_2 
REMARK    2  A    between atoms: C_9  and  C_4 
ROOT
ATOM      1  N   UNL d   1      46.070 -17.231  44.557  0.00  0.00    -0.246 NA
ATOM      2  C   UNL d   1      45.991 -17.719  42.983  0.00  0.00     0.003 A 
ATOM      3  C   UNL d   1      46.177 -18.262  43.573  0.00  0.00     0.018 A 
ATOM      4  C   UNL d   1      45.883 -16.686  43.966  0.00  0.00     0.081 A 
ATOM      5  C   UNL d   1      45.844 -16.930  43.178  0.00  0.00     0.019 A 
ATOM      6  C   UNL d   1      46.217 -18.018  44.362  0.00  0.00     0.081 A 
ATOM      7  C   UNL d   1      46.324 -19.050  43.378  0.00  0.00     0.002 A 
ATOM      8  C   UNL d   1      46.403 -18.562  44.952  0.00  0.00     0.019 A 
ATOM      9  C   UNL d   1      46.511 -19.594  43.969  0.00  0.00     0.000 A 
ATOM     10  C   UNL d   1      46.551 -19.350  44.757  0.00  0.00     0.002 A 
ATOM     11  C   UNL d   1      46.645 -20.329  43.759  0.00  0.00     0.000 C 
ENDROOT
BRANCH   2  12
ATOM     12  C   UNL d   1      45.952 -17.961  42.200  0.00  0.00     0.000 A 
ATOM     13  C   UNL d   1      45.218 -18.105  41.850  0.00  0.00     0.000 A 
ATOM     14  C   UNL d   1      45.179 -18.350  41.062  0.00  0.00     0.000 A 
ATOM     15  C   UNL d   1      45.872 -18.449  40.626  0.00  0.00     0.000 A 
ATOM     16  C   UNL d   1      46.605 -18.304  40.976  0.00  0.00     0.000 A 
ATOM     17  C   UNL d   1      46.644 -18.060  41.764  0.00  0.00     0.000 A 
ENDBRANCH   2  12
BRANCH   4  18
ATOM     18  C   UNL d   1      45.736 -15.899  44.161  0.00  0.00     0.021 A 
ATOM     19  C   UNL d   1      44.977 -15.663  44.381  0.00  0.00     0.022 A 
ATOM     20  C   UNL d   1      44.830 -14.875  44.576  0.00  0.00     0.099 A 
ATOM     21  N   UNL d   1      45.442 -14.323  44.552  0.00  0.00    -0.242 NA
ATOM     22  C   UNL d   1      46.161 -14.595  44.334  0.00  0.00     0.099 A 
ATOM     23  C   UNL d   1      46.349 -15.347  44.137  0.00  0.00     0.022 A 
ENDBRANCH   4  18
TORSDOF 2
ENDMDL
