MODEL 1
REMARK VINA RESULT:      -4.5      0.000      0.000
REMARK  3 active torsions:
REMARK  status: ('A' for Active; 'I' for Inactive)
REMARK    1  A    between atoms: C_7  and  C_8 
REMARK       I    between atoms: N_10  and  C_7 
REMARK    2  A    between atoms: C_19  and  N_10 
REMARK    3  A    between atoms: C_11  and  C_19 
ROOT
ATOM      1  C   UNL d   1     -41.664-122.217 -52.917  0.00  0.00     0.039 A 
ATOM      2  C   UNL d   1     -41.875-121.826 -53.613  0.00  0.00     0.196 A 
ATOM      3  C   UNL d   1     -41.380-122.965 -53.121  0.00  0.00     0.003 A 
ATOM      4  C   UNL d   1     -41.722-122.335 -54.248  0.00  0.00     0.039 A 
ATOM      5  C   UNL d   1     -41.416-123.036 -53.942  0.00  0.00     0.003 A 
ATOM      6  C   UNL d   1     -41.691-121.994 -52.131  0.00  0.00     0.008 A 
ATOM      7  C   UNL d   1     -41.440-122.507 -51.545  0.00  0.00     0.058 A 
ATOM      8  C   UNL d   1     -41.123-123.492 -52.534  0.00  0.00     0.000 A 
ATOM      9  O   UNL d   1     -42.186-121.064 -53.671  0.00  0.00    -0.287 OA
ATOM     10  C   UNL d   1     -41.154-123.257 -51.741  0.00  0.00     0.005 A 
ATOM     11  C   UNL d   1     -41.821-122.247 -55.058  0.00  0.00     0.003 A 
ATOM     12  C   UNL d   1     -41.209-123.652 -54.449  0.00  0.00     0.000 A 
ATOM     13  C   UNL d   1     -41.615-122.860 -55.566  0.00  0.00     0.000 A 
ATOM     14  C   UNL d   1     -41.309-123.564 -55.264  0.00  0.00     0.000 A 
ENDROOT
BRANCH   7  15
ATOM     15  C   UNL d   1     -41.468-122.279 -50.751  0.00  0.00     0.279 C 
ATOM     16  N   UNL d   1     -41.797-122.783 -50.193  0.00  0.00    -0.204 NA
ATOM     17  O   UNL d   1     -41.167-121.548 -50.522  0.00  0.00    -0.265 OA
BRANCH  16  18
ATOM     18  C   UNL d   1     -41.829-122.562 -49.395  0.00  0.00     0.127 C 
BRANCH  18  19
ATOM     19  C   UNL d   1     -42.210-123.039 -48.849  0.00  0.00     0.119 A 
ATOM     20  O   UNL d   1     -43.003-123.254 -48.869  0.00  0.00    -0.304 OA
ATOM     21  C   UNL d   1     -43.156-123.737 -48.218  0.00  0.00     0.123 A 
ATOM     22  C   UNL d   1     -42.449-123.817 -47.794  0.00  0.00     0.029 A 
ATOM     23  C   UNL d   1     -41.863-123.385 -48.186  0.00  0.00     0.028 A 
ENDBRANCH  18  19
ENDBRANCH  16  18
ENDBRANCH   7  15
TORSDOF 3
ENDMDL
