MODEL 1
REMARK VINA RESULT:      -1.5      0.000      0.000
REMARK  7 active torsions:
REMARK  status: ('A' for Active; 'I' for Inactive)
REMARK    1  A    between atoms: S_9  and  C_2 
REMARK    2  A    between atoms: C_6  and  C_8 
REMARK       I    between atoms: N_7  and  C_6 
REMARK    3  A    between atoms: C_11  and  N_7 
REMARK    4  A    between atoms: C_8  and  C_12 
REMARK    5  A    between atoms: C_12  and  S_9 
REMARK    6  A    between atoms: O_18  and  C_13 
REMARK    7  A    between atoms: C_20  and  O_18 
ROOT
ATOM      1  C   UNL d   1     -41.385-121.762 -51.227  0.00  0.00     0.280 C 
ATOM      2  N   UNL d   1     -41.288-121.322 -51.919  0.00  0.00    -0.208 NA
ATOM      3  O   UNL d   1     -41.123-121.457 -50.503  0.00  0.00    -0.265 OA
ENDROOT
BRANCH   1   4
ATOM      4  C   UNL d   1     -41.744-122.506 -51.256  0.00  0.00     0.070 C 
BRANCH   4   5
ATOM      5  C   UNL d   1     -41.614-123.052 -50.651  0.00  0.00     0.042 C 
BRANCH   5   6
ATOM      6  S   UNL d   1     -42.257-123.350 -50.210  0.00  0.00    -0.059 SA
BRANCH   6   7
ATOM      7  C   UNL d   1     -42.187-123.450 -49.394  0.00  0.00     0.164 A 
ATOM      8  S   UNL d   1     -42.706-123.303 -48.770  0.00  0.00    -0.039 SA
ATOM      9  C   UNL d   1     -42.335-123.511 -48.070  0.00  0.00     0.134 A 
ATOM     10  N   UNL d   1     -41.577-123.793 -48.248  0.00  0.00    -0.140 NA
ATOM     11  C   UNL d   1     -42.665-123.451 -47.305  0.00  0.00     0.030 C 
ATOM     12  N   UNL d   1     -41.489-123.753 -49.076  0.00  0.00    -0.134 NA
ENDBRANCH   6   7
ENDBRANCH   5   6
ENDBRANCH   4   5
ENDBRANCH   1   4
BRANCH   2  13
ATOM     13  C   UNL d   1     -41.551-121.627 -52.652  0.00  0.00     0.085 A 
ATOM     14  C   UNL d   1     -41.123-122.227 -53.023  0.00  0.00     0.021 A 
ATOM     15  C   UNL d   1     -41.377-122.531 -53.746  0.00  0.00     0.026 A 
ATOM     16  C   UNL d   1     -42.063-122.234 -54.098  0.00  0.00     0.100 A 
ATOM     17  C   UNL d   1     -42.491-121.633 -53.727  0.00  0.00     0.026 A 
ATOM     18  C   UNL d   1     -42.236-121.329 -53.003  0.00  0.00     0.021 A 
BRANCH  16  19
ATOM     19  O   UNL d   1     -42.319-122.547 -54.836  0.00  0.00    -0.305 OA
BRANCH  19  20
ATOM     20  C   UNL d   1     -42.425-122.045 -55.486  0.00  0.00     0.123 C 
ATOM     21  C   UNL d   1     -42.617-122.364 -56.222  0.00  0.00     0.029 C 
ENDBRANCH  19  20
ENDBRANCH  16  19
ENDBRANCH   2  13
TORSDOF 7
ENDMDL
