MODEL 1
REMARK VINA RESULT:      16.2      0.000      0.000
REMARK  3 active torsions:
REMARK  status: ('A' for Active; 'I' for Inactive)
REMARK       I    between atoms: C_2  and  N_1 
REMARK    1  A    between atoms: C_5  and  C_2 
REMARK    2  A    between atoms: S_8  and  C_3 
REMARK    3  A    between atoms: O_13  and  C_11 
ROOT
ATOM      1  N   UNL d   1      14.182  12.120  -2.106  0.00  0.00    -0.251 N 
ATOM      2  C   UNL d   1      13.423  12.181  -2.410  0.00  0.00     0.266 C 
ATOM      3  C   UNL d   1      14.383  11.935  -1.328  0.00  0.00     0.178 A 
ATOM      4  N   UNL d   1      15.198  11.936  -1.275  0.00  0.00    -0.219 NA
ATOM      5  O   UNL d   1      12.770  12.053  -1.925  0.00  0.00    -0.267 OA
ATOM      6  C   UNL d   1      14.883  12.235  -2.532  0.00  0.00     0.106 A 
ATOM      7  C   UNL d   1      15.511  12.119  -2.010  0.00  0.00     0.120 A 
ENDROOT
BRANCH   2   8
ATOM      8  C   UNL d   1      13.311  12.372  -3.206  0.00  0.00     0.059 A 
ATOM      9  C   UNL d   1      13.381  13.156  -3.448  0.00  0.00     0.029 A 
ATOM     10  C   UNL d   1      13.269  13.335  -4.232  0.00  0.00     0.094 A 
ATOM     11  C   UNL d   1      13.086  12.738  -4.782  0.00  0.00     0.024 A 
ATOM     12  C   UNL d   1      13.017  11.973  -4.544  0.00  0.00     0.002 A 
ATOM     13  C   UNL d   1      13.130  11.780  -3.745  0.00  0.00     0.005 A 
BRANCH  10  14
ATOM     14  O   UNL d   1      13.338  14.118  -4.483  0.00  0.00    -0.328 OA
ATOM     15  C   UNL d   1      12.847  14.701  -4.175  0.00  0.00     0.181 C 
ENDBRANCH  10  14
ENDBRANCH   2   8
BRANCH   3  16
ATOM     16  S   UNL d   1      13.851  11.781  -0.726  0.00  0.00    -0.076 SA
ATOM     17  C   UNL d   1      13.891  12.198  -0.014  0.00  0.00     0.077 C 
ENDBRANCH   3  16
TORSDOF 3
ENDMDL
MODEL 2
REMARK VINA RESULT:      17.7      1.204      1.583
REMARK  3 active torsions:
REMARK  status: ('A' for Active; 'I' for Inactive)
REMARK       I    between atoms: C_2  and  N_1 
REMARK    1  A    between atoms: C_5  and  C_2 
REMARK    2  A    between atoms: S_8  and  C_3 
REMARK    3  A    between atoms: O_13  and  C_11 
ROOT
ATOM      1  N   UNL d   1      14.206  12.543  -1.317  0.00  0.00    -0.251 N 
ATOM      2  C   UNL d   1      14.301  12.882  -2.057  0.00  0.00     0.266 C 
ATOM      3  C   UNL d   1      14.640  12.722  -0.639  0.00  0.00     0.178 A 
ATOM      4  N   UNL d   1      14.358  12.253  -0.033  0.00  0.00    -0.219 NA
ATOM      5  O   UNL d   1      14.874  13.461  -2.179  0.00  0.00    -0.267 OA
ATOM      6  C   UNL d   1      13.654  11.958  -1.122  0.00  0.00     0.106 A 
ATOM      7  C   UNL d   1      13.753  11.781  -0.322  0.00  0.00     0.120 A 
ENDROOT
BRANCH   2   8
ATOM      8  C   UNL d   1      13.822  12.643  -2.686  0.00  0.00     0.059 A 
ATOM      9  C   UNL d   1      13.877  13.034  -3.409  0.00  0.00     0.029 A 
ATOM     10  C   UNL d   1      13.403  12.793  -4.022  0.00  0.00     0.094 A 
ATOM     11  C   UNL d   1      12.868  12.162  -3.923  0.00  0.00     0.024 A 
ATOM     12  C   UNL d   1      12.815  11.782  -3.216  0.00  0.00     0.002 A 
ATOM     13  C   UNL d   1      13.296  12.021  -2.584  0.00  0.00     0.005 A 
BRANCH  10  14
ATOM     14  O   UNL d   1      13.452  13.178  -4.749  0.00  0.00    -0.328 OA
ATOM     15  C   UNL d   1      13.244  12.790  -5.443  0.00  0.00     0.181 C 
ENDBRANCH  10  14
ENDBRANCH   2   8
BRANCH   3  16
ATOM     16  S   UNL d   1      15.242  13.273  -0.594  0.00  0.00    -0.076 SA
ATOM     17  C   UNL d   1      15.183  13.918  -0.082  0.00  0.00     0.077 C 
ENDBRANCH   3  16
TORSDOF 3
ENDMDL
MODEL 3
REMARK VINA RESULT:      19.0      1.750      3.447
REMARK  3 active torsions:
REMARK  status: ('A' for Active; 'I' for Inactive)
REMARK       I    between atoms: C_2  and  N_1 
REMARK    1  A    between atoms: C_5  and  C_2 
REMARK    2  A    between atoms: S_8  and  C_3 
REMARK    3  A    between atoms: O_13  and  C_11 
ROOT
ATOM      1  N   UNL d   1      13.445  12.782  -3.402  0.00  0.00    -0.251 N 
ATOM      2  C   UNL d   1      13.764  13.198  -2.771  0.00  0.00     0.266 C 
ATOM      3  C   UNL d   1      13.206  13.099  -4.125  0.00  0.00     0.178 A 
ATOM      4  N   UNL d   1      12.923  12.485  -4.583  0.00  0.00    -0.219 NA
ATOM      5  O   UNL d   1      13.873  14.012  -2.823  0.00  0.00    -0.267 OA
ATOM      6  C   UNL d   1      13.307  11.966  -3.420  0.00  0.00     0.106 A 
ATOM      7  C   UNL d   1      12.982  11.786  -4.158  0.00  0.00     0.120 A 
ENDROOT
BRANCH   2   8
ATOM      8  C   UNL d   1      13.978  12.800  -2.080  0.00  0.00     0.059 A 
ATOM      9  C   UNL d   1      14.653  13.035  -1.670  0.00  0.00     0.029 A 
ATOM     10  C   UNL d   1      14.856  12.639  -0.991  0.00  0.00     0.094 A 
ATOM     11  C   UNL d   1      14.392  12.007  -0.712  0.00  0.00     0.024 A 
ATOM     12  C   UNL d   1      13.733  11.779  -1.114  0.00  0.00     0.002 A 
ATOM     13  C   UNL d   1      13.517  12.177  -1.808  0.00  0.00     0.005 A 
BRANCH  10  14
ATOM     14  O   UNL d   1      15.530  12.867  -0.574  0.00  0.00    -0.328 OA
ATOM     15  C   UNL d   1      15.494  13.472  -0.019  0.00  0.00     0.181 C 
ENDBRANCH  10  14
ENDBRANCH   2   8
BRANCH   3  16
ATOM     16  S   UNL d   1      13.249  13.888  -4.333  0.00  0.00    -0.076 SA
ATOM     17  C   UNL d   1      12.925  14.152  -5.045  0.00  0.00     0.077 C 
ENDBRANCH   3  16
TORSDOF 3
ENDMDL
