MODEL 1
REMARK VINA RESULT:      45.4      0.000      0.000
REMARK  3 active torsions:
REMARK  status: ('A' for Active; 'I' for Inactive)
REMARK    1  A    between atoms: C_9  and  C_1 
REMARK    2  A    between atoms: C_4  and  C_5 
REMARK       I    between atoms: C_5  and  N_8 
REMARK    3  A    between atoms: N_8  and  C_16 
ROOT
ATOM      1  C   UNL d   1     -54.864-101.675 -41.709  0.00  0.00     0.024 A 
ATOM      2  C   UNL d   1     -54.917-102.462 -41.511  0.00  0.00     0.004 A 
ATOM      3  C   UNL d   1     -54.791-101.095 -41.134  0.00  0.00     0.004 A 
ATOM      4  C   UNL d   1     -54.826-102.106 -40.136  0.00  0.00     0.085 A 
ATOM      5  C   UNL d   1     -54.772-101.309 -40.346  0.00  0.00     0.019 A 
ATOM      6  C   UNL d   1     -54.899-102.683 -40.720  0.00  0.00     0.019 A 
ENDROOT
BRANCH   1   7
ATOM      7  C   UNL d   1     -54.883-101.459 -42.503  0.00  0.00     0.111 A 
ATOM      8  N   UNL d   1     -54.719-101.959 -43.147  0.00  0.00    -0.239 NA
ATOM      9  C   UNL d   1     -54.804-101.513 -43.844  0.00  0.00     0.088 A 
ATOM     10  C   UNL d   1     -54.715-101.704 -44.633  0.00  0.00     0.020 A 
ATOM     11  C   UNL d   1     -55.021-100.739 -43.628  0.00  0.00     0.049 A 
ATOM     12  C   UNL d   1     -54.839-101.135 -45.218  0.00  0.00     0.002 A 
ATOM     13  C   UNL d   1     -55.054-100.367 -45.007  0.00  0.00     0.001 A 
ATOM     14  C   UNL d   1     -55.146-100.167 -44.210  0.00  0.00     0.008 A 
ATOM     15  S   UNL d   1     -55.069-100.710 -42.806  0.00  0.00    -0.066 SA
ENDBRANCH   1   7
BRANCH   4  16
ATOM     16  N   UNL d   1     -54.806-102.321 -39.339  0.00  0.00    -0.206 NA
ATOM     17  C   UNL d   1     -55.481-102.226 -38.874  0.00  0.00     0.304 C 
ATOM     18  O   UNL d   1     -56.169-101.920 -39.194  0.00  0.00    -0.263 OA
BRANCH  17  19
ATOM     19  C   UNL d   1     -55.451-102.445 -38.072  0.00  0.00     0.182 A 
ATOM     20  O   UNL d   1     -56.151-102.445 -37.629  0.00  0.00    -0.296 OA
ATOM     21  C   UNL d   1     -56.117-102.663 -36.833  0.00  0.00     0.150 A 
ATOM     22  C   UNL d   1     -55.399-102.878 -36.485  0.00  0.00     0.149 A 
ATOM     23  O   UNL d   1     -54.715-102.874 -36.932  0.00  0.00    -0.299 OA
ATOM     24  C   UNL d   1     -54.733-102.660 -37.724  0.00  0.00     0.152 A 
ENDBRANCH  17  19
ENDBRANCH   4  16
TORSDOF 3
ENDMDL
