MODEL 1
REMARK VINA RESULT:      28.1      0.000      0.000
REMARK  6 active torsions:
REMARK  status: ('A' for Active; 'I' for Inactive)
REMARK    1  A    between atoms: S_6  and  C_1 
REMARK    2  A    between atoms: C_13  and  S_6 
REMARK    3  A    between atoms: C_7  and  O_9 
REMARK    4  A    between atoms: O_9  and  C_14 
REMARK    5  A    between atoms: C_10  and  C_13 
REMARK    6  A    between atoms: C_14  and  C_10 
ROOT
ATOM      1  C   UNL d   1      13.167  12.172  -3.972  0.00  0.00     0.040 C 
ENDROOT
BRANCH   1   2
ATOM      2  C   UNL d   1      12.891  12.903  -4.230  0.00  0.00     0.034 C 
BRANCH   2   3
ATOM      3  C   UNL d   1      13.420  13.528  -4.338  0.00  0.00     0.123 C 
BRANCH   3   4
ATOM      4  O   UNL d   1      13.123  14.278  -4.498  0.00  0.00    -0.305 OA
BRANCH   4   5
ATOM      5  C   UNL d   1      13.582  14.943  -4.347  0.00  0.00     0.100 A 
ATOM      6  C   UNL d   1      13.753  15.471  -4.954  0.00  0.00     0.023 A 
ATOM      7  C   UNL d   1      13.469  15.341  -5.718  0.00  0.00     0.002 C 
ATOM      8  C   UNL d   1      14.218  16.143  -4.796  0.00  0.00     0.002 A 
ATOM      9  C   UNL d   1      14.504  16.276  -4.035  0.00  0.00     0.000 A 
ATOM     10  C   UNL d   1      14.326  15.738  -3.427  0.00  0.00     0.002 A 
ATOM     11  C   UNL d   1      13.866  15.071  -3.580  0.00  0.00     0.025 A 
ENDBRANCH   4   5
ENDBRANCH   3   4
ENDBRANCH   2   3
ENDBRANCH   1   2
BRANCH   1  12
ATOM     12  S   UNL d   1      12.838  11.830  -3.299  0.00  0.00    -0.048 SA
BRANCH  12  13
ATOM     13  C   UNL d   1      13.244  11.846  -2.583  0.00  0.00     0.194 A 
ATOM     14  N   UNL d   1      14.062  11.928  -2.481  0.00  0.00    -0.220 NA
ATOM     15  C   UNL d   1      14.221  11.914  -1.666  0.00  0.00     0.101 A 
ATOM     16  C   UNL d   1      14.929  11.973  -1.248  0.00  0.00     0.021 A 
ATOM     17  C   UNL d   1      13.504  11.822  -1.257  0.00  0.00     0.101 A 
ATOM     18  C   UNL d   1      14.924  11.941  -0.427  0.00  0.00     0.002 A 
ATOM     19  C   UNL d   1      14.214  11.849  -0.022  0.00  0.00     0.002 A 
ATOM     20  C   UNL d   1      13.508  11.791  -0.437  0.00  0.00     0.021 A 
ATOM     21  N   UNL d   1      12.893  11.779  -1.828  0.00  0.00    -0.220 NA
ENDBRANCH  12  13
ENDBRANCH   1  12
TORSDOF 6
ENDMDL
