MODEL 1
REMARK VINA RESULT:      -5.2      0.000      0.000
REMARK  3 active torsions:
REMARK  status: ('A' for Active; 'I' for Inactive)
REMARK    1  A    between atoms: S_7  and  C_3 
REMARK       I    between atoms: N_4  and  C_5 
REMARK    2  A    between atoms: C_5  and  C_10 
REMARK    3  A    between atoms: C_10  and  S_7 
ROOT
ATOM      1  N   UNL d   1     -41.814-121.794 -53.268  0.00  0.00    -0.236 NA
ATOM      2  N   UNL d   1     -41.626-123.248 -54.036  0.00  0.00    -0.242 NA
ATOM      3  C   UNL d   1     -41.513-122.439 -52.849  0.00  0.00     0.129 A 
ATOM      4  C   UNL d   1     -41.418-123.173 -53.236  0.00  0.00     0.105 A 
ATOM      5  C   UNL d   1     -42.019-121.866 -54.056  0.00  0.00     0.100 A 
ATOM      6  C   UNL d   1     -41.925-122.600 -54.444  0.00  0.00     0.099 A 
ATOM      7  C   UNL d   1     -41.123-123.817 -52.835  0.00  0.00     0.023 C 
ATOM      8  C   UNL d   1     -42.131-122.677 -55.239  0.00  0.00     0.021 A 
ATOM      9  C   UNL d   1     -42.318-121.224 -54.471  0.00  0.00     0.021 A 
ATOM     10  C   UNL d   1     -42.434-122.015 -55.649  0.00  0.00     0.002 A 
ATOM     11  C   UNL d   1     -42.527-121.292 -55.267  0.00  0.00     0.002 A 
ENDROOT
BRANCH   3  12
ATOM     12  S   UNL d   1     -41.312-122.353 -52.061  0.00  0.00    -0.061 SA
BRANCH  12  13
ATOM     13  C   UNL d   1     -41.871-122.462 -51.478  0.00  0.00     0.098 C 
BRANCH  13  14
ATOM     14  C   UNL d   1     -41.694-122.264 -50.688  0.00  0.00     0.271 C 
ATOM     15  N   UNL d   1     -42.095-122.655 -50.076  0.00  0.00    -0.272 N 
ATOM     16  C   UNL d   1     -41.919-122.458 -49.282  0.00  0.00     0.083 A 
ATOM     17  C   UNL d   1     -42.655-123.223 -50.244  0.00  0.00     0.083 A 
ATOM     18  C   UNL d   1     -42.319-122.847 -48.678  0.00  0.00     0.019 A 
ATOM     19  C   UNL d   1     -42.879-123.415 -48.846  0.00  0.00     0.003 A 
ATOM     20  C   UNL d   1     -43.052-123.608 -49.622  0.00  0.00     0.019 A 
ATOM     21  C   UNL d   1     -43.283-123.807 -48.200  0.00  0.00     0.000 C 
ATOM     22  O   UNL d   1     -41.131-121.693 -50.519  0.00  0.00    -0.266 OA
ENDBRANCH  13  14
ENDBRANCH  12  13
ENDBRANCH   3  12
TORSDOF 3
ENDMDL
