MODEL 1
REMARK VINA RESULT:     -10.2      0.000      0.000
REMARK  4 active torsions:
REMARK  status: ('A' for Active; 'I' for Inactive)
REMARK    1  A    between atoms: C_12  and  C_2 
REMARK       I    between atoms: C_3  and  N_8 
REMARK    2  A    between atoms: C_5  and  C_3 
REMARK    3  A    between atoms: C_9  and  C_4 
REMARK    4  A    between atoms: N_8  and  C_13 
ROOT
ATOM      1  C   UNL d   1      51.912  34.423  53.394  0.00  0.00     0.018 A 
ATOM      2  C   UNL d   1      53.290  34.513  54.295  0.00  0.00     0.085 A 
ATOM      3  C   UNL d   1      51.914  34.158  54.174  0.00  0.00     0.003 A 
ATOM      4  C   UNL d   1      52.603  34.737  53.054  0.00  0.00     0.003 A 
ATOM      5  C   UNL d   1      53.296  34.780  53.514  0.00  0.00     0.019 A 
ATOM      6  C   UNL d   1      52.597  34.202  54.623  0.00  0.00     0.019 A 
ENDROOT
BRANCH   1   7
ATOM      7  C   UNL d   1      51.216  34.377  52.937  0.00  0.00     0.088 A 
ATOM      8  N   UNL d   1      50.554  34.853  53.014  0.00  0.00    -0.239 NA
ATOM      9  C   UNL d   1      50.001  34.619  52.456  0.00  0.00     0.111 A 
ATOM     10  S   UNL d   1      50.323  33.989  52.027  0.00  0.00    -0.066 SA
ATOM     11  C   UNL d   1      51.071  33.843  52.327  0.00  0.00     0.056 A 
BRANCH   9  12
ATOM     12  C   UNL d   1      49.250  34.951  52.339  0.00  0.00     0.024 A 
ATOM     13  C   UNL d   1      48.856  34.835  51.623  0.00  0.00     0.002 A 
ATOM     14  C   UNL d   1      48.100  35.173  51.511  0.00  0.00     0.000 A 
ATOM     15  C   UNL d   1      47.752  35.618  52.113  0.00  0.00     0.000 A 
ATOM     16  C   UNL d   1      48.153  35.734  52.836  0.00  0.00     0.000 A 
ATOM     17  C   UNL d   1      48.898  35.402  52.946  0.00  0.00     0.002 A 
ENDBRANCH   9  12
ENDBRANCH   1   7
BRANCH   2  18
ATOM     18  N   UNL d   1      53.982  34.557  54.751  0.00  0.00    -0.208 NA
ATOM     19  C   UNL d   1      54.492  33.911  54.792  0.00  0.00     0.280 C 
ATOM     20  O   UNL d   1      55.185  33.954  55.247  0.00  0.00    -0.265 OA
BRANCH  19  21
ATOM     21  C   UNL d   1      54.317  33.208  54.375  0.00  0.00     0.069 A 
ATOM     22  C   UNL d   1      54.078  32.547  54.792  0.00  0.00     0.062 A 
ATOM     23 CL   UNL d   1      54.009  32.567  55.613  0.00  0.00    -0.082 Cl
ATOM     24  C   UNL d   1      53.906  31.854  54.383  0.00  0.00     0.012 A 
ATOM     25  C   UNL d   1      53.972  31.828  53.566  0.00  0.00     0.001 A 
ATOM     26  C   UNL d   1      54.213  32.496  53.156  0.00  0.00     0.000 A 
ATOM     27  C   UNL d   1      54.387  33.193  53.560  0.00  0.00     0.006 A 
ENDBRANCH  19  21
ENDBRANCH   2  18
TORSDOF 4
ENDMDL
MODEL 2
REMARK VINA RESULT:      -9.6      1.222      2.135
REMARK  4 active torsions:
REMARK  status: ('A' for Active; 'I' for Inactive)
REMARK    1  A    between atoms: C_12  and  C_2 
REMARK       I    between atoms: C_3  and  N_8 
REMARK    2  A    between atoms: C_5  and  C_3 
REMARK    3  A    between atoms: C_9  and  C_4 
REMARK    4  A    between atoms: N_8  and  C_13 
ROOT
ATOM      1  C   UNL d   1      50.700  34.067  52.552  0.00  0.00     0.018 A 
ATOM      2  C   UNL d   1      52.130  33.290  52.813  0.00  0.00     0.085 A 
ATOM      3  C   UNL d   1      51.353  34.230  52.076  0.00  0.00     0.003 A 
ATOM      4  C   UNL d   1      50.757  33.510  53.167  0.00  0.00     0.003 A 
ATOM      5  C   UNL d   1      51.482  33.121  53.294  0.00  0.00     0.019 A 
ATOM      6  C   UNL d   1      52.064  33.845  52.204  0.00  0.00     0.019 A 
ENDROOT
BRANCH   1   7
ATOM      7  C   UNL d   1      49.977  34.460  52.421  0.00  0.00     0.088 A 
ATOM      8  N   UNL d   1      49.580  34.937  52.955  0.00  0.00    -0.239 NA
ATOM      9  C   UNL d   1      48.893  35.210  52.599  0.00  0.00     0.111 A 
ATOM     10  S   UNL d   1      48.863  34.897  51.834  0.00  0.00    -0.066 SA
ATOM     11  C   UNL d   1      49.532  34.436  51.729  0.00  0.00     0.056 A 
BRANCH   9  12
ATOM     12  C   UNL d   1      48.328  35.709  52.941  0.00  0.00     0.024 A 
ATOM     13  C   UNL d   1      48.416  35.957  53.723  0.00  0.00     0.002 A 
ATOM     14  C   UNL d   1      47.843  36.461  54.063  0.00  0.00     0.000 A 
ATOM     15  C   UNL d   1      47.193  36.707  53.618  0.00  0.00     0.000 A 
ATOM     16  C   UNL d   1      47.105  36.456  52.827  0.00  0.00     0.000 A 
ATOM     17  C   UNL d   1      47.670  35.960  52.492  0.00  0.00     0.002 A 
ENDBRANCH   9  12
ENDBRANCH   1   7
BRANCH   2  18
ATOM     18  N   UNL d   1      52.852  32.900  52.942  0.00  0.00    -0.208 NA
ATOM     19  C   UNL d   1      53.429  33.245  53.420  0.00  0.00     0.280 C 
ATOM     20  O   UNL d   1      54.150  32.856  53.549  0.00  0.00    -0.265 OA
BRANCH  19  21
ATOM     21  C   UNL d   1      53.291  33.987  53.777  0.00  0.00     0.069 A 
ATOM     22  C   UNL d   1      53.236  34.033  54.592  0.00  0.00     0.062 A 
ATOM     23 CL   UNL d   1      53.314  33.359  55.060  0.00  0.00    -0.082 Cl
ATOM     24  C   UNL d   1      53.101  34.764  54.945  0.00  0.00     0.012 A 
ATOM     25  C   UNL d   1      53.023  35.438  54.485  0.00  0.00     0.001 A 
ATOM     26  C   UNL d   1      53.080  35.383  53.669  0.00  0.00     0.000 A 
ATOM     27  C   UNL d   1      53.215  34.654  53.309  0.00  0.00     0.006 A 
ENDBRANCH  19  21
ENDBRANCH   2  18
TORSDOF 4
ENDMDL
MODEL 3
REMARK VINA RESULT:      -7.3      2.235      4.995
REMARK  4 active torsions:
REMARK  status: ('A' for Active; 'I' for Inactive)
REMARK    1  A    between atoms: C_12  and  C_2 
REMARK       I    between atoms: C_3  and  N_8 
REMARK    2  A    between atoms: C_5  and  C_3 
REMARK    3  A    between atoms: C_9  and  C_4 
REMARK    4  A    between atoms: N_8  and  C_13 
ROOT
ATOM      1  C   UNL d   1      53.641  32.308  53.923  0.00  0.00     0.018 A 
ATOM      2  C   UNL d   1      53.874  33.923  54.154  0.00  0.00     0.085 A 
ATOM      3  C   UNL d   1      53.384  32.668  54.618  0.00  0.00     0.003 A 
ATOM      4  C   UNL d   1      54.020  32.755  53.332  0.00  0.00     0.003 A 
ATOM      5  C   UNL d   1      54.135  33.570  53.455  0.00  0.00     0.019 A 
ATOM      6  C   UNL d   1      53.499  33.469  54.734  0.00  0.00     0.019 A 
ENDROOT
BRANCH   1   7
ATOM      7  C   UNL d   1      53.524  31.491  53.805  0.00  0.00     0.088 A 
ATOM      8  N   UNL d   1      53.606  30.903  54.369  0.00  0.00    -0.239 NA
ATOM      9  C   UNL d   1      53.438  30.181  54.018  0.00  0.00     0.111 A 
ATOM     10  S   UNL d   1      53.249  30.322  53.225  0.00  0.00    -0.066 SA
ATOM     11  C   UNL d   1      53.303  31.130  53.099  0.00  0.00     0.056 A 
BRANCH   9  12
ATOM     12  C   UNL d   1      53.454  29.439  54.387  0.00  0.00     0.024 A 
ATOM     13  C   UNL d   1      53.751  28.784  53.983  0.00  0.00     0.002 A 
ATOM     14  C   UNL d   1      53.765  28.039  54.361  0.00  0.00     0.000 A 
ATOM     15  C   UNL d   1      53.483  27.961  55.132  0.00  0.00     0.000 A 
ATOM     16  C   UNL d   1      53.183  28.625  55.540  0.00  0.00     0.000 A 
ATOM     17  C   UNL d   1      53.170  29.359  55.167  0.00  0.00     0.002 A 
ENDBRANCH   9  12
ENDBRANCH   1   7
BRANCH   2  18
ATOM     18  N   UNL d   1      53.990  34.736  54.273  0.00  0.00    -0.208 NA
ATOM     19  C   UNL d   1      53.436  35.279  53.992  0.00  0.00     0.280 C 
ATOM     20  O   UNL d   1      53.551  36.092  54.111  0.00  0.00    -0.265 OA
BRANCH  19  21
ATOM     21  C   UNL d   1      52.755  35.014  53.587  0.00  0.00     0.069 A 
ATOM     22  C   UNL d   1      52.027  35.060  53.957  0.00  0.00     0.062 A 
ATOM     23 CL   UNL d   1      51.961  35.362  54.722  0.00  0.00    -0.082 Cl
ATOM     24  C   UNL d   1      51.356  34.800  53.559  0.00  0.00     0.012 A 
ATOM     25  C   UNL d   1      51.416  34.498  52.799  0.00  0.00     0.001 A 
ATOM     26  C   UNL d   1      52.149  34.456  52.435  0.00  0.00     0.000 A 
ATOM     27  C   UNL d   1      52.826  34.715  52.829  0.00  0.00     0.006 A 
ENDBRANCH  19  21
ENDBRANCH   2  18
TORSDOF 4
ENDMDL
