MODEL 1
REMARK VINA RESULT:      96.3      0.000      0.000
REMARK  5 active torsions:
REMARK  status: ('A' for Active; 'I' for Inactive)
REMARK    1  A    between atoms: C_6  and  C_1 
REMARK       I    between atoms: C_7  and  N_8 
REMARK    2  A    between atoms: C_16  and  C_7 
REMARK    3  A    between atoms: N_8  and  C_14 
REMARK    4  A    between atoms: O_15  and  C_16 
REMARK    5  A    between atoms: C_21  and  O_15 
ROOT
ATOM      1  C   UNL d   1      61.558  45.677  50.433  0.00  0.00     0.024 A 
ATOM      2  C   UNL d   1      61.030  46.023  50.961  0.00  0.00     0.004 A 
ATOM      3  C   UNL d   1      61.866  46.067  49.800  0.00  0.00     0.004 A 
ATOM      4  C   UNL d   1      61.113  47.239  50.183  0.00  0.00     0.085 A 
ATOM      5  C   UNL d   1      61.648  46.870  49.656  0.00  0.00     0.019 A 
ATOM      6  C   UNL d   1      60.812  46.826  50.817  0.00  0.00     0.019 A 
ENDROOT
BRANCH   4   7
ATOM      7  N   UNL d   1      60.885  48.076  50.033  0.00  0.00    -0.206 NA
ATOM      8  C   UNL d   1      60.770  48.579  50.706  0.00  0.00     0.304 C 
ATOM      9  O   UNL d   1      60.859  48.327  51.477  0.00  0.00    -0.263 OA
BRANCH   8  10
ATOM     10  C   UNL d   1      60.554  49.375  50.564  0.00  0.00     0.185 C 
BRANCH  10  11
ATOM     11  O   UNL d   1      59.924  49.697  50.976  0.00  0.00    -0.300 OA
BRANCH  11  12
ATOM     12  C   UNL d   1      59.161  49.698  50.622  0.00  0.00     0.100 A 
ATOM     13  C   UNL d   1      59.076  49.706  49.802  0.00  0.00     0.025 A 
ATOM     14  C   UNL d   1      58.338  49.707  49.461  0.00  0.00     0.002 A 
ATOM     15  C   UNL d   1      57.667  49.701  49.930  0.00  0.00     0.000 A 
ATOM     16  C   UNL d   1      57.740  49.693  50.752  0.00  0.00     0.002 A 
ATOM     17  C   UNL d   1      58.477  49.692  51.094  0.00  0.00     0.025 A 
ENDBRANCH  11  12
ENDBRANCH  10  11
ENDBRANCH   8  10
ENDBRANCH   4   7
BRANCH   1  18
ATOM     18  C   UNL d   1      61.774  44.882  50.575  0.00  0.00     0.111 A 
ATOM     19  N   UNL d   1      61.547  44.444  51.213  0.00  0.00    -0.239 NA
ATOM     20  C   UNL d   1      61.871  43.706  51.145  0.00  0.00     0.088 A 
ATOM     21  C   UNL d   1      61.843  43.028  51.609  0.00  0.00     0.020 A 
ATOM     22  C   UNL d   1      62.317  43.699  50.428  0.00  0.00     0.049 A 
ATOM     23  C   UNL d   1      62.236  42.360  51.386  0.00  0.00     0.002 A 
ATOM     24  C   UNL d   1      62.683  42.353  50.668  0.00  0.00     0.001 A 
ATOM     25  C   UNL d   1      62.725  43.015  50.191  0.00  0.00     0.008 A 
ATOM     26  C   UNL d   1      63.091  41.669  50.432  0.00  0.00     0.000 C 
ATOM     27  S   UNL d   1      62.252  44.433  50.080  0.00  0.00    -0.066 SA
ENDBRANCH   1  18
TORSDOF 5
ENDMDL
