MODEL 1
REMARK VINA RESULT:      -6.2      0.000      0.000
REMARK  1 active torsions:
REMARK  status: ('A' for Active; 'I' for Inactive)
REMARK    1  A    between atoms: C_2  and  C_1 
ROOT
ATOM      1  C   UNL d   1      57.398  -0.271  31.161  0.00  0.00     0.087 A 
ATOM      2  C   UNL d   1      57.121  -1.045  31.223  0.00  0.00     0.302 A 
ATOM      3  C   UNL d   1      57.149   0.312  31.696  0.00  0.00     0.009 A 
ATOM      4  O   UNL d   1      56.594  -1.241  31.820  0.00  0.00    -0.273 OA
ATOM      5  C   UNL d   1      56.338  -0.675  32.357  0.00  0.00     0.106 A 
ATOM      6  C   UNL d   1      56.615   0.100  32.295  0.00  0.00     0.023 A 
ATOM      7  C   UNL d   1      55.811  -0.870  32.954  0.00  0.00     0.067 A 
ATOM      8  O   UNL d   1      57.376  -1.611  30.686  0.00  0.00    -0.259 OA
ATOM      9  C   UNL d   1      56.366   0.682  32.830  0.00  0.00     0.005 A 
ATOM     10  C   UNL d   1      55.556  -0.305  33.492  0.00  0.00     0.198 A 
ATOM     11  C   UNL d   1      55.833   0.470  33.430  0.00  0.00     0.042 A 
ATOM     12  O   UNL d   1      55.029  -0.500  34.089  0.00  0.00    -0.286 OA
ENDROOT
BRANCH   1  13
ATOM     13  C   UNL d   1      57.923  -0.055  30.573  0.00  0.00     0.116 A 
ATOM     14  N   UNL d   1      57.804   0.044  29.775  0.00  0.00    -0.238 NA
ATOM     15  C   UNL d   1      58.508   0.264  29.425  0.00  0.00     0.088 A 
ATOM     16  C   UNL d   1      58.692   0.433  28.633  0.00  0.00     0.020 A 
ATOM     17  C   UNL d   1      59.066   0.301  30.006  0.00  0.00     0.049 A 
ATOM     18  C   UNL d   1      59.478   0.644  28.457  0.00  0.00     0.002 A 
ATOM     19  C   UNL d   1      60.049   0.682  29.050  0.00  0.00     0.001 A 
ATOM     20  C   UNL d   1      59.839   0.509  29.832  0.00  0.00     0.008 A 
ATOM     21  S   UNL d   1      58.730   0.108  30.728  0.00  0.00    -0.066 SA
ENDBRANCH   1  13
TORSDOF 1
ENDMDL
MODEL 2
REMARK VINA RESULT:      -5.0      1.443      1.631
REMARK  1 active torsions:
REMARK  status: ('A' for Active; 'I' for Inactive)
REMARK    1  A    between atoms: C_2  and  C_1 
ROOT
ATOM      1  C   UNL d   1      57.368  -0.576  30.992  0.00  0.00     0.087 A 
ATOM      2  C   UNL d   1      57.163   0.222  30.941  0.00  0.00     0.302 A 
ATOM      3  C   UNL d   1      57.063  -1.054  31.597  0.00  0.00     0.009 A 
ATOM      4  O   UNL d   1      56.652   0.544  31.495  0.00  0.00    -0.273 OA
ATOM      5  C   UNL d   1      56.342   0.084  32.100  0.00  0.00     0.106 A 
ATOM      6  C   UNL d   1      56.547  -0.713  32.151  0.00  0.00     0.023 A 
ATOM      7  C   UNL d   1      55.831   0.407  32.655  0.00  0.00     0.067 A 
ATOM      8  O   UNL d   1      57.473   0.682  30.336  0.00  0.00    -0.259 OA
ATOM      9  C   UNL d   1      56.242  -1.191  32.756  0.00  0.00     0.005 A 
ATOM     10  C   UNL d   1      55.521  -0.053  33.259  0.00  0.00     0.198 A 
ATOM     11  C   UNL d   1      55.726  -0.851  33.310  0.00  0.00     0.042 A 
ATOM     12  O   UNL d   1      55.010   0.269  33.814  0.00  0.00    -0.286 OA
ENDROOT
BRANCH   1  13
ATOM     13  C   UNL d   1      57.875  -0.917  30.450  0.00  0.00     0.116 A 
ATOM     14  N   UNL d   1      57.822  -1.628  30.058  0.00  0.00    -0.238 NA
ATOM     15  C   UNL d   1      58.472  -1.716  29.574  0.00  0.00     0.088 A 
ATOM     16  C   UNL d   1      58.689  -2.331  29.060  0.00  0.00     0.020 A 
ATOM     17  C   UNL d   1      58.932  -1.059  29.664  0.00  0.00     0.049 A 
ATOM     18  C   UNL d   1      59.402  -2.248  28.637  0.00  0.00     0.002 A 
ATOM     19  C   UNL d   1      59.871  -1.578  28.729  0.00  0.00     0.001 A 
ATOM     20  C   UNL d   1      59.633  -0.978  29.248  0.00  0.00     0.008 A 
ATOM     21  S   UNL d   1      58.584  -0.548  30.202  0.00  0.00    -0.066 SA
ENDBRANCH   1  13
TORSDOF 1
ENDMDL
