MODEL 1
REMARK VINA RESULT:      39.4      0.000      0.000
REMARK  3 active torsions:
REMARK  status: ('A' for Active; 'I' for Inactive)
REMARK    1  A    between atoms: N_3  and  C_1 
REMARK       I    between atoms: C_5  and  N_3 
REMARK    2  A    between atoms: C_10  and  C_4 
REMARK       I    between atoms: N_8  and  C_5 
REMARK    3  A    between atoms: C_11  and  N_8 
ROOT
ATOM      1  C   UNL d   1     -56.325 -99.876 -44.280  0.00  0.00     0.199 A 
ATOM      2  N   UNL d   1     -57.147 -99.942 -44.247  0.00  0.00    -0.221 NA
ATOM      3  C   UNL d   1     -57.484 -99.241 -44.601  0.00  0.00     0.090 A 
ATOM      4  S   UNL d   1     -56.110 -99.165 -44.640  0.00  0.00    -0.046 SA
ATOM      5  C   UNL d   1     -56.836 -98.756 -44.847  0.00  0.00     0.058 A 
ENDROOT
BRANCH   1   6
ATOM      6  N   UNL d   1     -55.782-100.454 -43.988  0.00  0.00    -0.166 NA
ATOM      7  C   UNL d   1     -55.255-100.822 -44.532  0.00  0.00     0.370 C 
ATOM      8  N   UNL d   1     -54.711-101.399 -44.240  0.00  0.00    -0.191 NA
ATOM      9  O   UNL d   1     -55.257-100.636 -45.322  0.00  0.00    -0.242 OA
BRANCH   8  10
ATOM     10  C   UNL d   1     -54.711-101.585 -43.443  0.00  0.00     0.086 A 
ATOM     11  C   UNL d   1     -54.711-101.015 -42.854  0.00  0.00     0.019 A 
ATOM     12  C   UNL d   1     -54.711-101.221 -42.051  0.00  0.00     0.002 A 
ATOM     13  C   UNL d   1     -54.711-102.017 -41.839  0.00  0.00     0.000 A 
ATOM     14  C   UNL d   1     -54.711-102.599 -42.418  0.00  0.00     0.002 A 
ATOM     15  C   UNL d   1     -54.711-102.369 -43.213  0.00  0.00     0.019 A 
ENDBRANCH   8  10
ENDBRANCH   1   6
BRANCH   3  16
ATOM     16  C   UNL d   1     -58.290 -99.080 -44.683  0.00  0.00     0.018 A 
ATOM     17  C   UNL d   1     -58.630 -98.950 -45.441  0.00  0.00     0.002 A 
ATOM     18  C   UNL d   1     -59.416 -98.793 -45.524  0.00  0.00     0.000 A 
ATOM     19  C   UNL d   1     -59.913 -98.756 -44.841  0.00  0.00     0.000 A 
ATOM     20  C   UNL d   1     -59.577 -98.884 -44.097  0.00  0.00     0.000 A 
ATOM     21  C   UNL d   1     -58.772 -99.044 -44.026  0.00  0.00     0.002 A 
ENDBRANCH   3  16
TORSDOF 3
ENDMDL
