MODEL 1
REMARK VINA RESULT:      -9.4      0.000      0.000
REMARK  2 active torsions:
REMARK  status: ('A' for Active; 'I' for Inactive)
REMARK    1  A    between atoms: N_7  and  C_1 
REMARK       I    between atoms: C_8  and  N_7 
REMARK    2  A    between atoms: C_10  and  C_8 
ROOT
ATOM      1  C   UNL d   1      53.424  32.247  53.502  0.00  0.00     0.159 A 
ATOM      2  N   UNL d   1      53.095  30.868  53.248  0.00  0.00    -0.257 N 
ATOM      3  C   UNL d   1      53.311  30.680  54.028  0.00  0.00     0.150 A 
ATOM      4  C   UNL d   1      53.156  31.657  52.996  0.00  0.00     0.285 A 
ATOM      5  N   UNL d   1      53.584  31.270  54.553  0.00  0.00    -0.226 NA
ATOM      6  C   UNL d   1      53.641  32.053  54.289  0.00  0.00     0.105 A 
ATOM      7  C   UNL d   1      53.258  29.908  54.297  0.00  0.00     0.035 A 
ATOM      8  C   UNL d   1      52.830  30.292  52.744  0.00  0.00     0.085 A 
ATOM      9  O   UNL d   1      52.939  31.844  52.215  0.00  0.00    -0.265 OA
ATOM     10  C   UNL d   1      52.774  29.508  53.007  0.00  0.00     0.019 A 
ATOM     11  C   UNL d   1      52.983  29.310  53.771  0.00  0.00     0.004 A 
ATOM     12  C   UNL d   1      53.906  32.638  54.790  0.00  0.00     0.022 C 
ATOM     13  C   UNL d   1      53.466  29.704  55.061  0.00  0.00     0.003 C 
ENDROOT
BRANCH   1  14
ATOM     14  N   UNL d   1      53.480  33.030  53.240  0.00  0.00    -0.202 NA
ATOM     15  C   UNL d   1      52.792  33.487  53.168  0.00  0.00     0.279 C 
ATOM     16  O   UNL d   1      53.452  33.919  52.952  0.00  0.00    -0.265 OA
BRANCH  15  17
ATOM     17  C   UNL d   1      52.041  33.833  53.139  0.00  0.00     0.060 A 
ATOM     18  C   UNL d   1      51.616  33.815  52.436  0.00  0.00     0.031 A 
ATOM     19  C   UNL d   1      50.865  34.162  52.407  0.00  0.00     0.119 A 
ATOM     20  O   UNL d   1      50.313  34.232  51.794  0.00  0.00    -0.300 OA
ATOM     21  C   UNL d   1      50.545  34.520  53.074  0.00  0.00     0.119 A 
ATOM     22  C   UNL d   1      49.648  34.637  52.086  0.00  0.00     0.304 A 
ATOM     23  O   UNL d   1      49.803  34.814  52.892  0.00  0.00    -0.300 OA
ATOM     24  C   UNL d   1      50.981  34.534  53.784  0.00  0.00     0.026 A 
ATOM     25  C   UNL d   1      51.729  34.190  53.815  0.00  0.00     0.007 A 
ENDBRANCH  15  17
ENDBRANCH   1  14
TORSDOF 2
ENDMDL
MODEL 2
REMARK VINA RESULT:      -9.3      1.773      4.413
REMARK  2 active torsions:
REMARK  status: ('A' for Active; 'I' for Inactive)
REMARK    1  A    between atoms: N_7  and  C_1 
REMARK       I    between atoms: C_8  and  N_7 
REMARK    2  A    between atoms: C_10  and  C_8 
ROOT
ATOM      1  C   UNL d   1      53.263  32.671  53.270  0.00  0.00     0.159 A 
ATOM      2  N   UNL d   1      54.160  33.363  54.159  0.00  0.00    -0.257 N 
ATOM      3  C   UNL d   1      53.534  33.855  54.396  0.00  0.00     0.150 A 
ATOM      4  C   UNL d   1      54.012  32.773  53.594  0.00  0.00     0.285 A 
ATOM      5  N   UNL d   1      52.769  33.763  54.075  0.00  0.00    -0.226 NA
ATOM      6  C   UNL d   1      52.634  33.170  53.512  0.00  0.00     0.105 A 
ATOM      7  C   UNL d   1      53.659  34.444  54.952  0.00  0.00     0.035 A 
ATOM      8  C   UNL d   1      54.900  33.458  54.474  0.00  0.00     0.085 A 
ATOM      9  O   UNL d   1      54.639  32.280  53.358  0.00  0.00    -0.265 OA
ATOM     10  C   UNL d   1      55.036  34.050  55.037  0.00  0.00     0.019 A 
ATOM     11  C   UNL d   1      54.430  34.541  55.279  0.00  0.00     0.004 A 
ATOM     12  C   UNL d   1      51.892  33.068  53.190  0.00  0.00     0.022 C 
ATOM     13  C   UNL d   1      53.055  34.938  55.198  0.00  0.00     0.003 C 
ENDROOT
BRANCH   1  14
ATOM     14  N   UNL d   1      53.127  32.078  52.707  0.00  0.00    -0.202 NA
ATOM     15  C   UNL d   1      53.017  31.296  52.958  0.00  0.00     0.279 C 
ATOM     16  O   UNL d   1      52.969  31.351  52.142  0.00  0.00    -0.265 OA
BRANCH  15  17
ATOM     17  C   UNL d   1      52.924  30.563  53.331  0.00  0.00     0.060 A 
ATOM     18  C   UNL d   1      53.563  30.228  53.723  0.00  0.00     0.031 A 
ATOM     19  C   UNL d   1      53.469  29.495  54.097  0.00  0.00     0.119 A 
ATOM     20  O   UNL d   1      53.997  29.024  54.528  0.00  0.00    -0.300 OA
ATOM     21  C   UNL d   1      52.746  29.106  54.076  0.00  0.00     0.119 A 
ATOM     22  C   UNL d   1      53.595  28.339  54.775  0.00  0.00     0.304 A 
ATOM     23  O   UNL d   1      52.808  28.399  54.486  0.00  0.00    -0.300 OA
ATOM     24  C   UNL d   1      52.102  29.451  53.676  0.00  0.00     0.026 A 
ATOM     25  C   UNL d   1      52.193  30.181  53.304  0.00  0.00     0.007 A 
ENDBRANCH  15  17
ENDBRANCH   1  14
TORSDOF 2
ENDMDL
MODEL 3
REMARK VINA RESULT:      -8.8      1.449      4.334
REMARK  2 active torsions:
REMARK  status: ('A' for Active; 'I' for Inactive)
REMARK    1  A    between atoms: N_7  and  C_1 
REMARK       I    between atoms: C_8  and  N_7 
REMARK    2  A    between atoms: C_10  and  C_8 
ROOT
ATOM      1  C   UNL d   1      53.829  33.020  53.460  0.00  0.00     0.159 A 
ATOM      2  N   UNL d   1      52.697  33.892  53.286  0.00  0.00    -0.257 N 
ATOM      3  C   UNL d   1      52.905  34.291  53.985  0.00  0.00     0.150 A 
ATOM      4  C   UNL d   1      53.167  33.257  53.033  0.00  0.00     0.285 A 
ATOM      5  N   UNL d   1      53.574  34.061  54.428  0.00  0.00    -0.226 NA
ATOM      6  C   UNL d   1      54.036  33.425  54.165  0.00  0.00     0.105 A 
ATOM      7  C   UNL d   1      52.454  34.920  54.252  0.00  0.00     0.035 A 
ATOM      8  C   UNL d   1      52.046  34.120  52.861  0.00  0.00     0.085 A 
ATOM      9  O   UNL d   1      52.958  32.858  52.334  0.00  0.00    -0.265 OA
ATOM     10  C   UNL d   1      51.584  34.756  53.123  0.00  0.00     0.019 A 
ATOM     11  C   UNL d   1      51.777  35.156  53.808  0.00  0.00     0.004 A 
ATOM     12  C   UNL d   1      54.691  33.189  54.588  0.00  0.00     0.022 C 
ATOM     13  C   UNL d   1      52.643  35.325  54.937  0.00  0.00     0.003 C 
ENDROOT
BRANCH   1  14
ATOM     14  N   UNL d   1      54.291  32.385  53.199  0.00  0.00    -0.202 NA
ATOM     15  C   UNL d   1      54.027  31.609  53.325  0.00  0.00     0.279 C 
ATOM     16  O   UNL d   1      54.748  31.612  52.937  0.00  0.00    -0.265 OA
BRANCH  15  17
ATOM     17  C   UNL d   1      53.657  30.892  53.509  0.00  0.00     0.060 A 
ATOM     18  C   UNL d   1      53.853  30.506  54.207  0.00  0.00     0.031 A 
ATOM     19  C   UNL d   1      53.483  29.789  54.390  0.00  0.00     0.119 A 
ATOM     20  O   UNL d   1      53.560  29.279  55.038  0.00  0.00    -0.300 OA
ATOM     21  C   UNL d   1      52.925  29.465  53.881  0.00  0.00     0.119 A 
ATOM     22  C   UNL d   1      53.045  28.634  54.926  0.00  0.00     0.304 A 
ATOM     23  O   UNL d   1      52.650  28.761  54.196  0.00  0.00    -0.300 OA
ATOM     24  C   UNL d   1      52.731  29.861  53.175  0.00  0.00     0.026 A 
ATOM     25  C   UNL d   1      53.098  30.576  52.989  0.00  0.00     0.007 A 
ENDBRANCH  15  17
ENDBRANCH   1  14
TORSDOF 2
ENDMDL
MODEL 4
REMARK VINA RESULT:      -8.2      1.317      4.266
REMARK  2 active torsions:
REMARK  status: ('A' for Active; 'I' for Inactive)
REMARK    1  A    between atoms: N_7  and  C_1 
REMARK       I    between atoms: C_8  and  N_7 
REMARK    2  A    between atoms: C_10  and  C_8 
ROOT
ATOM      1  C   UNL d   1      52.196  34.189  52.984  0.00  0.00     0.159 A 
ATOM      2  N   UNL d   1      50.945  34.269  52.274  0.00  0.00    -0.257 N 
ATOM      3  C   UNL d   1      50.597  34.621  52.941  0.00  0.00     0.150 A 
ATOM      4  C   UNL d   1      51.747  34.057  52.307  0.00  0.00     0.285 A 
ATOM      5  N   UNL d   1      51.040  34.761  53.635  0.00  0.00    -0.226 NA
ATOM      6  C   UNL d   1      51.840  34.545  53.655  0.00  0.00     0.105 A 
ATOM      7  C   UNL d   1      49.807  34.838  52.929  0.00  0.00     0.035 A 
ATOM      8  C   UNL d   1      50.510  34.136  51.604  0.00  0.00     0.085 A 
ATOM      9  O   UNL d   1      52.095  33.705  51.639  0.00  0.00    -0.265 OA
ATOM     10  C   UNL d   1      49.710  34.352  51.583  0.00  0.00     0.019 A 
ATOM     11  C   UNL d   1      49.356  34.699  52.231  0.00  0.00     0.004 A 
ATOM     12  C   UNL d   1      52.285  34.675  54.325  0.00  0.00     0.022 C 
ATOM     13  C   UNL d   1      49.446  35.186  53.576  0.00  0.00     0.003 C 
ENDROOT
BRANCH   1  14
ATOM     14  N   UNL d   1      52.995  33.973  53.006  0.00  0.00    -0.202 NA
ATOM     15  C   UNL d   1      53.202  33.200  53.221  0.00  0.00     0.279 C 
ATOM     16  O   UNL d   1      53.869  33.646  53.056  0.00  0.00    -0.265 OA
BRANCH  15  17
ATOM     17  C   UNL d   1      53.278  32.408  53.448  0.00  0.00     0.060 A 
ATOM     18  C   UNL d   1      52.968  31.820  52.965  0.00  0.00     0.031 A 
ATOM     19  C   UNL d   1      53.044  31.027  53.193  0.00  0.00     0.119 A 
ATOM     20  O   UNL d   1      52.796  30.324  52.833  0.00  0.00    -0.300 OA
ATOM     21  C   UNL d   1      53.424  30.829  53.894  0.00  0.00     0.119 A 
ATOM     22  C   UNL d   1      53.026  29.687  53.317  0.00  0.00     0.304 A 
ATOM     23  O   UNL d   1      53.420  30.015  53.982  0.00  0.00    -0.300 OA
ATOM     24  C   UNL d   1      53.735  31.431  54.379  0.00  0.00     0.026 A 
ATOM     25  C   UNL d   1      53.662  32.221  54.155  0.00  0.00     0.007 A 
ENDBRANCH  15  17
ENDBRANCH   1  14
TORSDOF 2
ENDMDL
MODEL 5
REMARK VINA RESULT:      -8.0      1.508      2.493
REMARK  2 active torsions:
REMARK  status: ('A' for Active; 'I' for Inactive)
REMARK    1  A    between atoms: N_7  and  C_1 
REMARK       I    between atoms: C_8  and  N_7 
REMARK    2  A    between atoms: C_10  and  C_8 
ROOT
ATOM      1  C   UNL d   1      52.620  33.446  52.873  0.00  0.00     0.159 A 
ATOM      2  N   UNL d   1      53.506  33.730  53.973  0.00  0.00    -0.257 N 
ATOM      3  C   UNL d   1      53.451  32.937  54.213  0.00  0.00     0.150 A 
ATOM      4  C   UNL d   1      53.085  33.974  53.300  0.00  0.00     0.285 A 
ATOM      5  N   UNL d   1      52.982  32.390  53.789  0.00  0.00    -0.226 NA
ATOM      6  C   UNL d   1      52.567  32.646  53.119  0.00  0.00     0.105 A 
ATOM      7  C   UNL d   1      53.858  32.676  54.874  0.00  0.00     0.035 A 
ATOM      8  C   UNL d   1      53.962  34.255  54.388  0.00  0.00     0.085 A 
ATOM      9  O   UNL d   1      53.141  34.768  53.059  0.00  0.00    -0.265 OA
ATOM     10  C   UNL d   1      54.377  34.000  55.058  0.00  0.00     0.019 A 
ATOM     11  C   UNL d   1      54.332  33.224  55.305  0.00  0.00     0.004 A 
ATOM     12  C   UNL d   1      52.106  32.124  52.696  0.00  0.00     0.022 C 
ATOM     13  C   UNL d   1      53.816  31.899  55.126  0.00  0.00     0.003 C 
ENDROOT
BRANCH   1  14
ATOM     14  N   UNL d   1      52.205  33.700  52.203  0.00  0.00    -0.202 NA
ATOM     15  C   UNL d   1      51.457  34.046  52.295  0.00  0.00     0.279 C 
ATOM     16  O   UNL d   1      51.669  34.014  51.505  0.00  0.00    -0.265 OA
BRANCH  15  17
ATOM     17  C   UNL d   1      50.729  34.371  52.516  0.00  0.00     0.060 A 
ATOM     18  C   UNL d   1      50.134  34.444  51.956  0.00  0.00     0.031 A 
ATOM     19  C   UNL d   1      49.405  34.770  52.178  0.00  0.00     0.119 A 
ATOM     20  O   UNL d   1      48.712  34.913  51.750  0.00  0.00    -0.300 OA
ATOM     21  C   UNL d   1      49.278  35.017  52.951  0.00  0.00     0.119 A 
ATOM     22  C   UNL d   1      48.152  35.252  52.264  0.00  0.00     0.304 A 
ATOM     23  O   UNL d   1      48.518  35.314  53.017  0.00  0.00    -0.300 OA
ATOM     24  C   UNL d   1      49.886  34.940  53.515  0.00  0.00     0.026 A 
ATOM     25  C   UNL d   1      50.612  34.617  53.296  0.00  0.00     0.007 A 
ENDBRANCH  15  17
ENDBRANCH   1  14
TORSDOF 2
ENDMDL
