MODEL 1
REMARK VINA RESULT:      78.5      0.000      0.000
REMARK  4 active torsions:
REMARK  status: ('A' for Active; 'I' for Inactive)
REMARK    1  A    between atoms: S_4  and  C_3 
REMARK    2  A    between atoms: C_12  and  S_4 
REMARK    3  A    between atoms: C_23  and  N_6 
REMARK    4  A    between atoms: C_27  and  C_23 
ROOT
ATOM      1  C   UNL d   1     -51.027  24.775  33.485  0.00  0.00     0.155 A 
ATOM      2  C   UNL d   1     -51.484  25.441  33.627  0.00  0.00     0.092 A 
ATOM      3  C   UNL d   1     -50.300  26.229  33.697  0.00  0.00     0.124 A 
ATOM      4  N   UNL d   1     -51.387  24.042  33.377  0.00  0.00    -0.210 NA
ATOM      5  N   UNL d   1     -50.210  24.835  33.449  0.00  0.00    -0.273 N 
ATOM      6  C   UNL d   1     -49.845  25.566  33.556  0.00  0.00     0.181 A 
ATOM      7  C   UNL d   1     -52.307  25.381  33.663  0.00  0.00     0.269 A 
ATOM      8  N   UNL d   1     -52.667  24.650  33.555  0.00  0.00    -0.258 N 
ATOM      9  C   UNL d   1     -51.125  26.173  33.734  0.00  0.00     0.022 A 
ATOM     10  C   UNL d   1     -52.207  23.980  33.413  0.00  0.00     0.152 A 
ATOM     11  N   UNL d   1     -49.020  25.622  33.519  0.00  0.00    -0.128 N 
ATOM     12  C   UNL d   1     -53.492  24.593  33.592  0.00  0.00     0.084 A 
ATOM     13  O   UNL d   1     -52.761  26.056  33.806  0.00  0.00    -0.266 OA
ATOM     14  C   UNL d   1     -52.573  23.254  33.307  0.00  0.00     0.038 A 
ATOM     15  C   UNL d   1     -53.841  23.859  33.484  0.00  0.00     0.019 A 
ATOM     16  C   UNL d   1     -53.381  23.189  33.341  0.00  0.00     0.005 A 
ENDROOT
BRANCH   3  17
ATOM     17  S   UNL d   1     -49.933  26.966  33.805  0.00  0.00     0.213 S 
ATOM     18  O   UNL d   1     -50.631  27.263  34.117  0.00  0.00    -0.217 OA
ATOM     19  O   UNL d   1     -49.229  26.655  33.487  0.00  0.00    -0.217 OA
BRANCH  17  20
ATOM     20  C   UNL d   1     -49.560  27.697  33.909  0.00  0.00     0.088 A 
ATOM     21  C   UNL d   1     -49.160  27.854  34.614  0.00  0.00     0.011 A 
ATOM     22  C   UNL d   1     -48.789  28.576  34.718  0.00  0.00     0.001 A 
ATOM     23  C   UNL d   1     -48.390  28.734  35.422  0.00  0.00     0.000 C 
ATOM     24  C   UNL d   1     -48.815  29.150  34.118  0.00  0.00     0.000 A 
ATOM     25  C   UNL d   1     -49.215  28.993  33.414  0.00  0.00     0.001 A 
ATOM     26  C   UNL d   1     -48.439  29.881  34.226  0.00  0.00     0.000 C 
ATOM     27  C   UNL d   1     -49.591  28.261  33.306  0.00  0.00     0.011 A 
ENDBRANCH  17  20
ENDBRANCH   3  17
BRANCH   5  28
ATOM     28  C   UNL d   1     -49.758  24.160  33.306  0.00  0.00     0.083 C 
BRANCH  28  29
ATOM     29  C   UNL d   1     -49.867  23.488  33.773  0.00  0.00     0.019 C 
ATOM     30  C   UNL d   1     -49.258  23.215  34.258  0.00  0.00     0.002 C 
ENDBRANCH  28  29
ENDBRANCH   5  28
TORSDOF 4
ENDMDL
