MODEL 1
REMARK VINA RESULT:      -8.0      0.000      0.000
REMARK  4 active torsions:
REMARK  status: ('A' for Active; 'I' for Inactive)
REMARK    1  A    between atoms: S_9  and  C_3 
REMARK    2  A    between atoms: C_12  and  S_9 
REMARK    3  A    between atoms: C_11  and  C_12 
REMARK    4  A    between atoms: O_16  and  C_11 
ROOT
ATOM      1  C   UNL d   1     -49.895  13.270  22.932  0.00  0.00     0.155 A 
ATOM      2  C   UNL d   1     -49.339  13.884  22.972  0.00  0.00     0.107 A 
ATOM      3  C   UNL d   1     -48.319  12.977  22.558  0.00  0.00     0.182 A 
ATOM      4  N   UNL d   1     -48.866  12.369  22.518  0.00  0.00    -0.250 N 
ATOM      5  N   UNL d   1     -48.545  13.736  22.783  0.00  0.00    -0.220 NA
ATOM      6  C   UNL d   1     -49.660  12.518  22.707  0.00  0.00     0.285 A 
ATOM      7  N   UNL d   1     -50.630  13.576  23.147  0.00  0.00    -0.239 NA
ATOM      8  C   UNL d   1     -49.725  14.569  23.210  0.00  0.00     0.037 A 
ATOM      9  C   UNL d   1     -50.530  14.381  23.320  0.00  0.00     0.083 A 
ATOM     10  O   UNL d   1     -50.211  11.898  22.665  0.00  0.00    -0.265 OA
ATOM     11  C   UNL d   1     -48.627  11.609  22.290  0.00  0.00     0.104 C 
ATOM     12  C   UNL d   1     -49.463  15.337  23.343  0.00  0.00     0.003 A 
ATOM     13  C   UNL d   1     -51.064  14.965  23.563  0.00  0.00     0.019 A 
ATOM     14  C   UNL d   1     -49.997  15.921  23.586  0.00  0.00     0.000 A 
ATOM     15  C   UNL d   1     -50.792  15.733  23.694  0.00  0.00     0.002 A 
ENDROOT
BRANCH   3  16
ATOM     16  S   UNL d   1     -47.528  12.827  22.370  0.00  0.00    -0.044 SA
BRANCH  16  17
ATOM     17  C   UNL d   1     -46.934  12.968  22.924  0.00  0.00     0.095 C 
ATOM     18  C   UNL d   1     -47.019  12.701  23.697  0.00  0.00     0.013 C 
BRANCH  17  19
ATOM     19  C   UNL d   1     -46.256  13.379  22.696  0.00  0.00     0.302 C 
ATOM     20  O   UNL d   1     -45.998  14.016  23.126  0.00  0.00    -0.259 OA
BRANCH  19  21
ATOM     21  O   UNL d   1     -45.834  13.143  22.022  0.00  0.00    -0.295 OA
ATOM     22  C   UNL d   1     -45.014  13.262  21.982  0.00  0.00     0.185 C 
ENDBRANCH  19  21
ENDBRANCH  17  19
ENDBRANCH  16  17
ENDBRANCH   3  16
TORSDOF 4
ENDMDL
MODEL 2
REMARK VINA RESULT:      -7.5      1.325      2.239
REMARK  4 active torsions:
REMARK  status: ('A' for Active; 'I' for Inactive)
REMARK    1  A    between atoms: S_9  and  C_3 
REMARK    2  A    between atoms: C_12  and  S_9 
REMARK    3  A    between atoms: C_11  and  C_12 
REMARK    4  A    between atoms: O_16  and  C_11 
ROOT
ATOM      1  C   UNL d   1     -49.419  14.097  23.012  0.00  0.00     0.155 A 
ATOM      2  C   UNL d   1     -48.968  13.404  23.067  0.00  0.00     0.107 A 
ATOM      3  C   UNL d   1     -47.801  14.144  22.711  0.00  0.00     0.182 A 
ATOM      4  N   UNL d   1     -48.245  14.830  22.656  0.00  0.00    -0.250 N 
ATOM      5  N   UNL d   1     -48.153  13.428  22.915  0.00  0.00    -0.220 NA
ATOM      6  C   UNL d   1     -49.061  14.805  22.808  0.00  0.00     0.285 A 
ATOM      7  N   UNL d   1     -50.202  13.908  23.189  0.00  0.00    -0.239 NA
ATOM      8  C   UNL d   1     -49.466  12.785  23.278  0.00  0.00     0.037 A 
ATOM      9  C   UNL d   1     -50.237  13.096  23.355  0.00  0.00     0.083 A 
ATOM     10  O   UNL d   1     -49.506  15.504  22.750  0.00  0.00    -0.265 OA
ATOM     11  C   UNL d   1     -47.881  15.545  22.450  0.00  0.00     0.104 C 
ATOM     12  C   UNL d   1     -49.333  11.985  23.411  0.00  0.00     0.003 A 
ATOM     13  C   UNL d   1     -50.865  12.601  23.566  0.00  0.00     0.019 A 
ATOM     14  C   UNL d   1     -49.961  11.490  23.622  0.00  0.00     0.000 A 
ATOM     15  C   UNL d   1     -50.722  11.798  23.698  0.00  0.00     0.002 A 
ENDROOT
BRANCH   3  16
ATOM     16  S   UNL d   1     -46.989  14.170  22.560  0.00  0.00    -0.044 SA
BRANCH  16  17
ATOM     17  C   UNL d   1     -46.500  13.552  22.802  0.00  0.00     0.095 C 
ATOM     18  C   UNL d   1     -46.572  13.242  23.561  0.00  0.00     0.013 C 
BRANCH  17  19
ATOM     19  C   UNL d   1     -45.941  13.248  22.276  0.00  0.00     0.302 C 
ATOM     20  O   UNL d   1     -46.174  12.792  21.648  0.00  0.00    -0.259 OA
BRANCH  19  21
ATOM     21  O   UNL d   1     -45.135  13.409  22.389  0.00  0.00    -0.295 OA
ATOM     22  C   UNL d   1     -44.568  13.049  21.902  0.00  0.00     0.185 C 
ENDBRANCH  19  21
ENDBRANCH  17  19
ENDBRANCH  16  17
ENDBRANCH   3  16
TORSDOF 4
ENDMDL
MODEL 3
REMARK VINA RESULT:      -7.4      1.536      4.294
REMARK  4 active torsions:
REMARK  status: ('A' for Active; 'I' for Inactive)
REMARK    1  A    between atoms: S_9  and  C_3 
REMARK    2  A    between atoms: C_12  and  S_9 
REMARK    3  A    between atoms: C_11  and  C_12 
REMARK    4  A    between atoms: O_16  and  C_11 
ROOT
ATOM      1  C   UNL d   1     -46.499  13.263  23.004  0.00  0.00     0.155 A 
ATOM      2  C   UNL d   1     -47.197  12.835  23.131  0.00  0.00     0.107 A 
ATOM      3  C   UNL d   1     -47.959  14.004  22.838  0.00  0.00     0.182 A 
ATOM      4  N   UNL d   1     -47.271  14.430  22.712  0.00  0.00    -0.250 N 
ATOM      5  N   UNL d   1     -47.933  13.209  23.047  0.00  0.00    -0.220 NA
ATOM      6  C   UNL d   1     -46.535  14.055  22.796  0.00  0.00     0.285 A 
ATOM      7  N   UNL d   1     -45.861  12.755  23.126  0.00  0.00    -0.239 NA
ATOM      8  C   UNL d   1     -46.996  12.064  23.331  0.00  0.00     0.037 A 
ATOM      9  C   UNL d   1     -46.164  12.010  23.329  0.00  0.00     0.083 A 
ATOM     10  O   UNL d   1     -45.840  14.491  22.667  0.00  0.00    -0.265 OA
ATOM     11  C   UNL d   1     -47.309  15.230  22.501  0.00  0.00     0.104 C 
ATOM     12  C   UNL d   1     -47.448  11.401  23.515  0.00  0.00     0.003 A 
ATOM     13  C   UNL d   1     -45.793  11.293  23.511  0.00  0.00     0.019 A 
ATOM     14  C   UNL d   1     -47.077  10.684  23.697  0.00  0.00     0.000 A 
ATOM     15  C   UNL d   1     -46.255  10.633  23.694  0.00  0.00     0.002 A 
ENDROOT
BRANCH   3  16
ATOM     16  S   UNL d   1     -48.691  14.379  22.753  0.00  0.00    -0.044 SA
BRANCH  16  17
ATOM     17  C   UNL d   1     -49.278  14.045  22.280  0.00  0.00     0.095 C 
ATOM     18  C   UNL d   1     -49.088  13.743  21.539  0.00  0.00     0.013 C 
BRANCH  17  19
ATOM     19  C   UNL d   1     -50.054  14.016  22.558  0.00  0.00     0.302 C 
ATOM     20  O   UNL d   1     -50.589  13.503  22.229  0.00  0.00    -0.259 OA
BRANCH  19  21
ATOM     21  O   UNL d   1     -50.293  14.513  23.177  0.00  0.00    -0.295 OA
ATOM     22  C   UNL d   1     -51.060  14.830  23.184  0.00  0.00     0.185 C 
ENDBRANCH  19  21
ENDBRANCH  17  19
ENDBRANCH  16  17
ENDBRANCH   3  16
TORSDOF 4
ENDMDL
MODEL 4
REMARK VINA RESULT:      -5.7      8.926     10.544
REMARK  4 active torsions:
REMARK  status: ('A' for Active; 'I' for Inactive)
REMARK    1  A    between atoms: S_9  and  C_3 
REMARK    2  A    between atoms: C_12  and  S_9 
REMARK    3  A    between atoms: C_11  and  C_12 
REMARK    4  A    between atoms: O_16  and  C_11 
ROOT
ATOM      1  C   UNL d   1     -39.935  14.861  17.915  0.00  0.00     0.155 A 
ATOM      2  C   UNL d   1     -39.490  14.303  18.335  0.00  0.00     0.107 A 
ATOM      3  C   UNL d   1     -40.088  14.751  19.550  0.00  0.00     0.182 A 
ATOM      4  N   UNL d   1     -40.529  15.304  19.137  0.00  0.00    -0.250 N 
ATOM      5  N   UNL d   1     -39.567  14.248  19.159  0.00  0.00    -0.220 NA
ATOM      6  C   UNL d   1     -40.451  15.358  18.312  0.00  0.00     0.285 A 
ATOM      7  N   UNL d   1     -39.746  14.789  17.115  0.00  0.00    -0.239 NA
ATOM      8  C   UNL d   1     -39.025  13.885  17.801  0.00  0.00     0.037 A 
ATOM      9  C   UNL d   1     -39.183  14.186  17.039  0.00  0.00     0.083 A 
ATOM     10  O   UNL d   1     -40.901  15.920  17.898  0.00  0.00    -0.265 OA
ATOM     11  C   UNL d   1     -41.050  15.806  19.540  0.00  0.00     0.104 C 
ATOM     12  C   UNL d   1     -38.482  13.275  17.896  0.00  0.00     0.003 A 
ATOM     13  C   UNL d   1     -38.794  13.872  16.380  0.00  0.00     0.019 A 
ATOM     14  C   UNL d   1     -38.093  12.960  17.236  0.00  0.00     0.000 A 
ATOM     15  C   UNL d   1     -38.250  13.259  16.484  0.00  0.00     0.002 A 
ENDROOT
BRANCH   3  16
ATOM     16  S   UNL d   1     -40.166  14.699  20.371  0.00  0.00    -0.044 SA
BRANCH  16  17
ATOM     17  C   UNL d   1     -39.498  14.686  20.853  0.00  0.00     0.095 C 
ATOM     18  C   UNL d   1     -38.908  15.251  20.755  0.00  0.00     0.013 C 
BRANCH  17  19
ATOM     19  C   UNL d   1     -39.427  14.104  21.433  0.00  0.00     0.302 C 
ATOM     20  O   UNL d   1     -40.087  13.802  21.794  0.00  0.00    -0.259 OA
BRANCH  19  21
ATOM     21  O   UNL d   1     -38.678  13.822  21.651  0.00  0.00    -0.295 OA
ATOM     22  C   UNL d   1     -38.597  13.317  22.304  0.00  0.00     0.185 C 
ENDBRANCH  19  21
ENDBRANCH  17  19
ENDBRANCH  16  17
ENDBRANCH   3  16
TORSDOF 4
ENDMDL
MODEL 5
REMARK VINA RESULT:      -5.5      9.210     10.203
REMARK  4 active torsions:
REMARK  status: ('A' for Active; 'I' for Inactive)
REMARK    1  A    between atoms: S_9  and  C_3 
REMARK    2  A    between atoms: C_12  and  S_9 
REMARK    3  A    between atoms: C_11  and  C_12 
REMARK    4  A    between atoms: O_16  and  C_11 
ROOT
ATOM      1  C   UNL d   1     -39.280  14.215  18.210  0.00  0.00     0.155 A 
ATOM      2  C   UNL d   1     -39.738  14.776  18.612  0.00  0.00     0.107 A 
ATOM      3  C   UNL d   1     -39.038  14.474  19.818  0.00  0.00     0.182 A 
ATOM      4  N   UNL d   1     -38.583  13.919  19.423  0.00  0.00    -0.250 N 
ATOM      5  N   UNL d   1     -39.616  14.906  19.422  0.00  0.00    -0.220 NA
ATOM      6  C   UNL d   1     -38.706  13.789  18.612  0.00  0.00     0.285 A 
ATOM      7  N   UNL d   1     -39.521  14.204  17.422  0.00  0.00    -0.239 NA
ATOM      8  C   UNL d   1     -40.263  15.114  18.078  0.00  0.00     0.037 A 
ATOM      9  C   UNL d   1     -40.130  14.760  17.334  0.00  0.00     0.083 A 
ATOM     10  O   UNL d   1     -38.242  13.225  18.217  0.00  0.00    -0.265 OA
ATOM     11  C   UNL d   1     -38.004  13.490  19.831  0.00  0.00     0.104 C 
ATOM     12  C   UNL d   1     -40.842  15.693  18.157  0.00  0.00     0.003 A 
ATOM     13  C   UNL d   1     -40.580  14.990  16.678  0.00  0.00     0.019 A 
ATOM     14  C   UNL d   1     -41.292  15.922  17.502  0.00  0.00     0.000 A 
ATOM     15  C   UNL d   1     -41.159  15.571  16.768  0.00  0.00     0.002 A 
ENDROOT
BRANCH   3  16
ATOM     16  S   UNL d   1     -38.914  14.603  20.625  0.00  0.00    -0.044 SA
BRANCH  16  17
ATOM     17  C   UNL d   1     -39.556  14.689  21.136  0.00  0.00     0.095 C 
ATOM     18  C   UNL d   1     -40.186  14.161  21.100  0.00  0.00     0.013 C 
BRANCH  17  19
ATOM     19  C   UNL d   1     -39.559  15.308  21.681  0.00  0.00     0.302 C 
ATOM     20  O   UNL d   1     -40.081  15.922  21.601  0.00  0.00    -0.259 OA
BRANCH  19  21
ATOM     21  O   UNL d   1     -39.025  15.305  22.316  0.00  0.00    -0.295 OA
ATOM     22  C   UNL d   1     -39.056  15.905  22.888  0.00  0.00     0.185 C 
ENDBRANCH  19  21
ENDBRANCH  17  19
ENDBRANCH  16  17
ENDBRANCH   3  16
TORSDOF 4
ENDMDL
MODEL 6
REMARK VINA RESULT:      -5.5      8.989     10.322
REMARK  4 active torsions:
REMARK  status: ('A' for Active; 'I' for Inactive)
REMARK    1  A    between atoms: S_9  and  C_3 
REMARK    2  A    between atoms: C_12  and  S_9 
REMARK    3  A    between atoms: C_11  and  C_12 
REMARK    4  A    between atoms: O_16  and  C_11 
ROOT
ATOM      1  C   UNL d   1     -40.006  14.790  20.666  0.00  0.00     0.155 A 
ATOM      2  C   UNL d   1     -39.361  14.454  20.269  0.00  0.00     0.107 A 
ATOM      3  C   UNL d   1     -39.774  15.098  19.065  0.00  0.00     0.182 A 
ATOM      4  N   UNL d   1     -40.413  15.431  19.455  0.00  0.00    -0.250 N 
ATOM      5  N   UNL d   1     -39.244  14.610  19.463  0.00  0.00    -0.220 NA
ATOM      6  C   UNL d   1     -40.529  15.276  20.262  0.00  0.00     0.285 A 
ATOM      7  N   UNL d   1     -39.982  14.542  21.452  0.00  0.00    -0.239 NA
ATOM      8  C   UNL d   1     -38.935  13.999  20.805  0.00  0.00     0.037 A 
ATOM      9  C   UNL d   1     -39.319  14.051  21.543  0.00  0.00     0.083 A 
ATOM     10  O   UNL d   1     -41.178  15.616  20.652  0.00  0.00    -0.265 OA
ATOM     11  C   UNL d   1     -40.940  15.921  19.045  0.00  0.00     0.104 C 
ATOM     12  C   UNL d   1     -38.254  13.543  20.730  0.00  0.00     0.003 A 
ATOM     13  C   UNL d   1     -39.017  13.647  22.199  0.00  0.00     0.019 A 
ATOM     14  C   UNL d   1     -37.952  13.139  21.385  0.00  0.00     0.000 A 
ATOM     15  C   UNL d   1     -38.333  13.192  22.114  0.00  0.00     0.002 A 
ENDROOT
BRANCH   3  16
ATOM     16  S   UNL d   1     -39.660  15.254  18.262  0.00  0.00    -0.044 SA
BRANCH  16  17
ATOM     17  C   UNL d   1     -39.560  14.634  17.727  0.00  0.00     0.095 C 
ATOM     18  C   UNL d   1     -40.033  13.963  17.780  0.00  0.00     0.013 C 
BRANCH  17  19
ATOM     19  C   UNL d   1     -38.982  14.694  17.142  0.00  0.00     0.302 C 
ATOM     20  O   UNL d   1     -38.609  15.400  17.004  0.00  0.00    -0.259 OA
BRANCH  19  21
ATOM     21  O   UNL d   1     -38.778  14.029  16.690  0.00  0.00    -0.295 OA
ATOM     22  C   UNL d   1     -38.345  14.120  15.988  0.00  0.00     0.185 C 
ENDBRANCH  19  21
ENDBRANCH  17  19
ENDBRANCH  16  17
ENDBRANCH   3  16
TORSDOF 4
ENDMDL
