MODEL 1
REMARK VINA RESULT:       1.0      0.000      0.000
REMARK  3 active torsions:
REMARK  status: ('A' for Active; 'I' for Inactive)
REMARK    1  A    between atoms: C_3  and  S_1 
REMARK    2  A    between atoms: N_4  and  S_1 
REMARK       I    between atoms: C_2  and  N_5 
REMARK       I    between atoms: N_6  and  C_2 
REMARK    3  A    between atoms: C_13  and  N_6 
ROOT
ATOM      1  C   UNL d   1      32.402  20.974 -21.311  0.00  0.00     0.339 C 
ATOM      2  N   UNL d   1      32.532  18.945 -22.736  0.00  0.00    -0.226 N 
ATOM      3  N   UNL d   1      32.449  20.297 -21.781  0.00  0.00    -0.254 N 
ATOM      4  N   UNL d   1      32.800  21.006 -20.584  0.00  0.00    -0.257 N 
ATOM      5  C   UNL d   1      32.934  18.961 -22.015  0.00  0.00     0.111 A 
ATOM      6  C   UNL d   1      32.086  19.607 -22.981  0.00  0.00     0.111 A 
ATOM      7  O   UNL d   1      31.955  21.631 -21.564  0.00  0.00    -0.245 OA
ATOM      8  C   UNL d   1      32.892  19.645 -21.533  0.00  0.00     0.104 A 
ATOM      9  C   UNL d   1      32.045  20.280 -22.506  0.00  0.00     0.104 A 
ATOM     10  C   UNL d   1      33.241  20.355 -20.339  0.00  0.00     0.104 C 
ENDROOT
BRANCH   2  11
ATOM     11  S   UNL d   1      32.573  18.278 -23.206  0.00  0.00     0.271 S 
ATOM     12  O   UNL d   1      32.857  17.843 -22.565  0.00  0.00    -0.200 OA
ATOM     13  O   UNL d   1      32.289  18.713 -23.847  0.00  0.00    -0.200 OA
BRANCH  11  14
ATOM     14  C   UNL d   1      32.614  17.605 -23.682  0.00  0.00     0.104 A 
ATOM     15  C   UNL d   1      32.947  17.648 -24.429  0.00  0.00     0.012 A 
ATOM     16  C   UNL d   1      32.988  16.985 -24.897  0.00  0.00     0.001 A 
ATOM     17  C   UNL d   1      33.241  18.369 -24.703  0.00  0.00     0.001 C 
ATOM     18  C   UNL d   1      32.695  16.267 -24.622  0.00  0.00     0.000 A 
ATOM     19  C   UNL d   1      32.361  16.224 -23.874  0.00  0.00     0.001 A 
ATOM     20  C   UNL d   1      32.736  15.594 -25.097  0.00  0.00     0.000 C 
ATOM     21  C   UNL d   1      32.320  16.890 -23.403  0.00  0.00     0.012 A 
ATOM     22  C   UNL d   1      31.985  16.852 -22.648  0.00  0.00     0.001 C 
ENDBRANCH  11  14
ENDBRANCH   2  11
BRANCH   4  23
ATOM     23  C   UNL d   1      32.752  21.689 -20.114  0.00  0.00     0.068 A 
ATOM     24  C   UNL d   1      32.759  22.445 -20.451  0.00  0.00     0.018 A 
ATOM     25  C   UNL d   1      32.710  23.110 -19.979  0.00  0.00     0.002 A 
ATOM     26  C   UNL d   1      32.653  23.027 -19.154  0.00  0.00     0.000 A 
ATOM     27  C   UNL d   1      32.646  22.272 -18.812  0.00  0.00     0.002 A 
ATOM     28  C   UNL d   1      32.605  23.702 -18.684  0.00  0.00     0.000 C 
ATOM     29  C   UNL d   1      32.695  21.608 -19.299  0.00  0.00     0.018 A 
ENDBRANCH   4  23
TORSDOF 3
ENDMDL
MODEL 2
REMARK VINA RESULT:       1.1      1.052      5.853
REMARK  3 active torsions:
REMARK  status: ('A' for Active; 'I' for Inactive)
REMARK    1  A    between atoms: C_3  and  S_1 
REMARK    2  A    between atoms: N_4  and  S_1 
REMARK       I    between atoms: C_2  and  N_5 
REMARK       I    between atoms: N_6  and  C_2 
REMARK    3  A    between atoms: C_13  and  N_6 
ROOT
ATOM      1  C   UNL d   1      32.949  18.747 -23.101  0.00  0.00     0.339 C 
ATOM      2  N   UNL d   1      33.053  20.613 -21.466  0.00  0.00    -0.226 N 
ATOM      3  N   UNL d   1      32.984  19.364 -22.554  0.00  0.00    -0.254 N 
ATOM      4  N   UNL d   1      33.067  17.964 -22.857  0.00  0.00    -0.257 N 
ATOM      5  C   UNL d   1      33.173  19.839 -21.207  0.00  0.00     0.111 A 
ATOM      6  C   UNL d   1      32.897  20.765 -22.272  0.00  0.00     0.111 A 
ATOM      7  O   UNL d   1      32.793  18.908 -23.905  0.00  0.00    -0.245 OA
ATOM      8  C   UNL d   1      33.139  19.208 -21.756  0.00  0.00     0.104 A 
ATOM      9  C   UNL d   1      32.863  20.143 -22.813  0.00  0.00     0.104 A 
ATOM     10  C   UNL d   1      33.221  17.811 -22.062  0.00  0.00     0.104 C 
ENDROOT
BRANCH   2  11
ATOM     11  S   UNL d   1      33.087  21.229 -20.930  0.00  0.00     0.271 S 
ATOM     12  O   UNL d   1      33.195  21.762 -21.549  0.00  0.00    -0.200 OA
ATOM     13  O   UNL d   1      32.978  20.695 -20.310  0.00  0.00    -0.200 OA
BRANCH  11  14
ATOM     14  C   UNL d   1      33.121  21.850 -20.388  0.00  0.00     0.104 A 
ATOM     15  C   UNL d   1      33.087  22.626 -20.649  0.00  0.00     0.012 A 
ATOM     16  C   UNL d   1      33.120  23.238 -20.115  0.00  0.00     0.001 A 
ATOM     17  C   UNL d   1      33.018  22.781 -21.457  0.00  0.00     0.001 C 
ATOM     18  C   UNL d   1      33.189  23.081 -19.311  0.00  0.00     0.000 A 
ATOM     19  C   UNL d   1      33.223  22.304 -19.049  0.00  0.00     0.001 A 
ATOM     20  C   UNL d   1      33.223  23.702 -18.770  0.00  0.00     0.000 C 
ATOM     21  C   UNL d   1      33.189  21.689 -19.586  0.00  0.00     0.012 A 
ATOM     22  C   UNL d   1      33.223  20.904 -19.328  0.00  0.00     0.001 C 
ENDBRANCH  11  14
ENDBRANCH   2  11
BRANCH   4  23
ATOM     23  C   UNL d   1      33.031  17.346 -23.410  0.00  0.00     0.068 A 
ATOM     24  C   UNL d   1      33.113  17.490 -24.221  0.00  0.00     0.018 A 
ATOM     25  C   UNL d   1      33.075  16.874 -24.757  0.00  0.00     0.002 A 
ATOM     26  C   UNL d   1      32.954  16.098 -24.486  0.00  0.00     0.000 A 
ATOM     27  C   UNL d   1      32.871  15.950 -23.675  0.00  0.00     0.002 A 
ATOM     28  C   UNL d   1      32.917  15.483 -25.033  0.00  0.00     0.000 C 
ATOM     29  C   UNL d   1      32.911  16.580 -23.143  0.00  0.00     0.018 A 
ENDBRANCH   4  23
TORSDOF 3
ENDMDL
MODEL 3
REMARK VINA RESULT:       1.2      0.797      1.005
REMARK  3 active torsions:
REMARK  status: ('A' for Active; 'I' for Inactive)
REMARK    1  A    between atoms: C_3  and  S_1 
REMARK    2  A    between atoms: N_4  and  S_1 
REMARK       I    between atoms: C_2  and  N_5 
REMARK       I    between atoms: N_6  and  C_2 
REMARK    3  A    between atoms: C_13  and  N_6 
ROOT
ATOM      1  C   UNL d   1      32.713  20.885 -21.446  0.00  0.00     0.339 C 
ATOM      2  N   UNL d   1      32.408  18.838 -22.817  0.00  0.00    -0.226 N 
ATOM      3  N   UNL d   1      32.609  20.203 -21.898  0.00  0.00    -0.254 N 
ATOM      4  N   UNL d   1      32.299  20.983 -20.734  0.00  0.00    -0.257 N 
ATOM      5  C   UNL d   1      31.988  18.920 -22.112  0.00  0.00     0.111 A 
ATOM      6  C   UNL d   1      32.931  19.440 -23.066  0.00  0.00     0.111 A 
ATOM      7  O   UNL d   1      33.238  21.482 -21.701  0.00  0.00    -0.245 OA
ATOM      8  C   UNL d   1      32.090  19.610 -21.647  0.00  0.00     0.104 A 
ATOM      9  C   UNL d   1      33.030  20.119 -22.608  0.00  0.00     0.104 A 
ATOM     10  C   UNL d   1      31.783  20.391 -20.486  0.00  0.00     0.104 C 
ENDROOT
BRANCH   2  11
ATOM     11  S   UNL d   1      32.309  18.165 -23.270  0.00  0.00     0.271 S 
ATOM     12  O   UNL d   1      31.850  17.830 -22.672  0.00  0.00    -0.200 OA
ATOM     13  O   UNL d   1      32.769  18.500 -23.868  0.00  0.00    -0.200 OA
BRANCH  11  14
ATOM     14  C   UNL d   1      32.210  17.486 -23.727  0.00  0.00     0.104 A 
ATOM     15  C   UNL d   1      32.670  16.823 -23.587  0.00  0.00     0.012 A 
ATOM     16  C   UNL d   1      32.572  16.154 -24.038  0.00  0.00     0.001 A 
ATOM     17  C   UNL d   1      33.235  16.840 -22.985  0.00  0.00     0.001 C 
ATOM     18  C   UNL d   1      32.009  16.140 -24.637  0.00  0.00     0.000 A 
ATOM     19  C   UNL d   1      31.547  16.803 -24.778  0.00  0.00     0.001 A 
ATOM     20  C   UNL d   1      31.909  15.461 -25.095  0.00  0.00     0.000 C 
ATOM     21  C   UNL d   1      31.646  17.476 -24.325  0.00  0.00     0.012 A 
ATOM     22  C   UNL d   1      31.184  18.147 -24.463  0.00  0.00     0.001 C 
ENDBRANCH  11  14
ENDBRANCH   2  11
BRANCH   4  23
ATOM     23  C   UNL d   1      32.407  21.671 -20.282  0.00  0.00     0.068 A 
ATOM     24  C   UNL d   1      32.049  22.386 -20.494  0.00  0.00     0.018 A 
ATOM     25  C   UNL d   1      32.162  23.057 -20.041  0.00  0.00     0.002 A 
ATOM     26  C   UNL d   1      32.641  23.021 -19.363  0.00  0.00     0.000 A 
ATOM     27  C   UNL d   1      33.002  22.306 -19.147  0.00  0.00     0.002 A 
ATOM     28  C   UNL d   1      32.751  23.702 -18.912  0.00  0.00     0.000 C 
ATOM     29  C   UNL d   1      32.880  21.636 -19.612  0.00  0.00     0.018 A 
ENDBRANCH   4  23
TORSDOF 3
ENDMDL
MODEL 4
REMARK VINA RESULT:       3.1      2.979      4.315
REMARK  3 active torsions:
REMARK  status: ('A' for Active; 'I' for Inactive)
REMARK    1  A    between atoms: C_3  and  S_1 
REMARK    2  A    between atoms: N_4  and  S_1 
REMARK       I    between atoms: C_2  and  N_5 
REMARK       I    between atoms: N_6  and  C_2 
REMARK    3  A    between atoms: C_13  and  N_6 
ROOT
ATOM      1  C   UNL d   1      33.202  22.278 -18.511  0.00  0.00     0.339 C 
ATOM      2  N   UNL d   1      33.161  22.270 -20.994  0.00  0.00    -0.226 N 
ATOM      3  N   UNL d   1      33.188  22.281 -19.336  0.00  0.00    -0.254 N 
ATOM      4  N   UNL d   1      33.179  22.993 -18.090  0.00  0.00    -0.257 N 
ATOM      5  C   UNL d   1      33.138  22.989 -20.590  0.00  0.00     0.111 A 
ATOM      6  C   UNL d   1      33.198  21.552 -20.568  0.00  0.00     0.111 A 
ATOM      7  O   UNL d   1      33.239  21.557 -18.094  0.00  0.00    -0.245 OA
ATOM      8  C   UNL d   1      33.151  22.994 -19.752  0.00  0.00     0.104 A 
ATOM      9  C   UNL d   1      33.212  21.558 -19.743  0.00  0.00     0.104 A 
ATOM     10  C   UNL d   1      33.142  23.702 -18.507  0.00  0.00     0.104 C 
ENDROOT
BRANCH   2  11
ATOM     11  S   UNL d   1      33.148  22.264 -21.810  0.00  0.00     0.271 S 
ATOM     12  O   UNL d   1      33.230  21.443 -21.806  0.00  0.00    -0.200 OA
ATOM     13  O   UNL d   1      33.066  23.085 -21.815  0.00  0.00    -0.200 OA
BRANCH  11  14
ATOM     14  C   UNL d   1      33.135  22.259 -22.635  0.00  0.00     0.104 A 
ATOM     15  C   UNL d   1      33.095  22.963 -23.051  0.00  0.00     0.012 A 
ATOM     16  C   UNL d   1      33.082  22.958 -23.864  0.00  0.00     0.001 A 
ATOM     17  C   UNL d   1      33.069  23.678 -22.640  0.00  0.00     0.001 C 
ATOM     18  C   UNL d   1      33.108  22.244 -24.272  0.00  0.00     0.000 A 
ATOM     19  C   UNL d   1      33.148  21.538 -23.856  0.00  0.00     0.001 A 
ATOM     20  C   UNL d   1      33.095  22.238 -25.097  0.00  0.00     0.000 C 
ATOM     21  C   UNL d   1      33.161  21.544 -23.039  0.00  0.00     0.012 A 
ATOM     22  C   UNL d   1      33.201  20.835 -22.614  0.00  0.00     0.001 C 
ENDBRANCH  11  14
ENDBRANCH   2  11
BRANCH   4  23
ATOM     23  C   UNL d   1      33.193  22.986 -17.260  0.00  0.00     0.068 A 
ATOM     24  C   UNL d   1      33.202  23.690 -16.825  0.00  0.00     0.018 A 
ATOM     25  C   UNL d   1      33.216  23.672 -16.008  0.00  0.00     0.002 A 
ATOM     26  C   UNL d   1      33.220  22.942 -15.611  0.00  0.00     0.000 A 
ATOM     27  C   UNL d   1      33.211  22.234 -16.044  0.00  0.00     0.002 A 
ATOM     28  C   UNL d   1      33.234  22.931 -14.787  0.00  0.00     0.000 C 
ATOM     29  C   UNL d   1      33.197  22.265 -16.868  0.00  0.00     0.018 A 
ENDBRANCH   4  23
TORSDOF 3
ENDMDL
