MODEL 1
REMARK VINA RESULT:      -0.3      0.000      0.000
REMARK  5 active torsions:
REMARK  status: ('A' for Active; 'I' for Inactive)
REMARK    1  A    between atoms: C_3  and  C_1 
REMARK    2  A    between atoms: C_9  and  N_2 
REMARK    3  A    between atoms: C_7  and  C_3 
REMARK    4  A    between atoms: C_8  and  C_3 
REMARK    5  A    between atoms: C_20  and  C_6 
ROOT
ATOM      1  C   UNL d   1      31.115  16.567 -23.901  0.00  0.00     0.103 A 
ATOM      2  N   UNL d   1      31.709  17.131 -24.000  0.00  0.00    -0.269 N 
ATOM      3  S   UNL d   1      31.459  15.867 -23.619  0.00  0.00    -0.064 SA
ATOM      4  C   UNL d   1      32.425  16.783 -23.780  0.00  0.00     0.271 A 
ATOM      5  C   UNL d   1      32.276  16.005 -23.544  0.00  0.00     0.087 A 
ATOM      6  O   UNL d   1      33.170  17.148 -23.791  0.00  0.00    -0.266 OA
ENDROOT
BRANCH   2   7
ATOM      7  C   UNL d   1      32.094  17.839 -24.178  0.00  0.00     0.068 A 
ATOM      8  C   UNL d   1      32.126  18.435 -23.611  0.00  0.00     0.020 A 
ATOM      9  C   UNL d   1      32.509  19.143 -23.788  0.00  0.00     0.031 A 
ATOM     10  C   UNL d   1      32.854  19.243 -24.529  0.00  0.00     0.140 A 
ATOM     11  C   UNL d   1      32.818  18.644 -25.090  0.00  0.00     0.031 A 
ATOM     12  F   UNL d   1      33.241  19.956 -24.708  0.00  0.00    -0.204 F 
ATOM     13  C   UNL d   1      32.436  17.936 -24.916  0.00  0.00     0.020 A 
ENDBRANCH   2   7
BRANCH   1  14
ATOM     14  C   UNL d   1      30.306  16.672 -24.055  0.00  0.00     0.103 C 
BRANCH  14  15
ATOM     15  C   UNL d   1      29.828  16.008 -24.168  0.00  0.00     0.300 C 
ATOM     16  O   UNL d   1      29.394  15.689 -23.535  0.00  0.00    -0.264 OA
ATOM     17  N   UNL d   1      29.779  15.656 -24.918  0.00  0.00    -0.102 N 
ENDBRANCH  14  15
BRANCH  14  18
ATOM     18  C   UNL d   1      29.985  17.425 -24.095  0.00  0.00     0.129 C 
ATOM     19  N   UNL d   1      29.163  17.525 -24.107  0.00  0.00    -0.146 N 
ENDBRANCH  14  18
ENDBRANCH   1  14
BRANCH   5  20
ATOM     20  C   UNL d   1      32.836  15.461 -23.282  0.00  0.00     0.011 C 
ATOM     21  C   UNL d   1      33.058  15.453 -22.482  0.00  0.00     0.001 C 
ENDBRANCH   5  20
TORSDOF 5
ENDMDL
MODEL 2
REMARK VINA RESULT:       0.7      2.352      4.052
REMARK  5 active torsions:
REMARK  status: ('A' for Active; 'I' for Inactive)
REMARK    1  A    between atoms: C_3  and  C_1 
REMARK    2  A    between atoms: C_9  and  N_2 
REMARK    3  A    between atoms: C_7  and  C_3 
REMARK    4  A    between atoms: C_8  and  C_3 
REMARK    5  A    between atoms: C_20  and  C_6 
ROOT
ATOM      1  C   UNL d   1      30.625  16.521 -23.999  0.00  0.00     0.103 A 
ATOM      2  N   UNL d   1      29.801  16.488 -24.025  0.00  0.00    -0.269 N 
ATOM      3  S   UNL d   1      30.874  17.206 -24.395  0.00  0.00    -0.064 SA
ATOM      4  C   UNL d   1      29.535  17.151 -24.437  0.00  0.00     0.271 A 
ATOM      5  C   UNL d   1      30.191  17.597 -24.667  0.00  0.00     0.087 A 
ATOM      6  O   UNL d   1      28.743  17.343 -24.597  0.00  0.00    -0.266 OA
ENDROOT
BRANCH   2   7
ATOM      7  C   UNL d   1      29.025  16.229 -23.914  0.00  0.00     0.068 A 
ATOM      8  C   UNL d   1      28.658  16.354 -23.188  0.00  0.00     0.020 A 
ATOM      9  C   UNL d   1      27.883  16.096 -23.076  0.00  0.00     0.031 A 
ATOM     10  C   UNL d   1      27.489  15.719 -23.692  0.00  0.00     0.140 A 
ATOM     11  C   UNL d   1      27.861  15.598 -24.414  0.00  0.00     0.031 A 
ATOM     12  F   UNL d   1      26.707  15.459 -23.579  0.00  0.00    -0.204 F 
ATOM     13  C   UNL d   1      28.635  15.854 -24.528  0.00  0.00     0.020 A 
ENDBRANCH   2   7
BRANCH   1  14
ATOM     14  C   UNL d   1      31.129  15.969 -23.640  0.00  0.00     0.103 C 
BRANCH  14  15
ATOM     15  C   UNL d   1      31.830  15.754 -24.023  0.00  0.00     0.300 C 
ATOM     16  O   UNL d   1      31.817  15.505 -24.815  0.00  0.00    -0.264 OA
ATOM     17  N   UNL d   1      32.551  15.787 -23.614  0.00  0.00    -0.102 N 
ENDBRANCH  14  15
BRANCH  14  18
ATOM     18  C   UNL d   1      30.937  15.640 -22.915  0.00  0.00     0.129 C 
ATOM     19  N   UNL d   1      31.444  15.737 -22.268  0.00  0.00    -0.146 N 
ENDBRANCH  14  18
ENDBRANCH   1  14
BRANCH   5  20
ATOM     20  C   UNL d   1      30.175  18.304 -25.091  0.00  0.00     0.011 C 
ATOM     21  C   UNL d   1      30.757  18.879 -24.954  0.00  0.00     0.001 C 
ENDBRANCH   5  20
TORSDOF 5
ENDMDL
MODEL 3
REMARK VINA RESULT:       1.1      4.409      5.964
REMARK  5 active torsions:
REMARK  status: ('A' for Active; 'I' for Inactive)
REMARK    1  A    between atoms: C_3  and  C_1 
REMARK    2  A    between atoms: C_9  and  N_2 
REMARK    3  A    between atoms: C_7  and  C_3 
REMARK    4  A    between atoms: C_8  and  C_3 
REMARK    5  A    between atoms: C_20  and  C_6 
ROOT
ATOM      1  C   UNL d   1      32.815  22.315 -21.584  0.00  0.00     0.103 A 
ATOM      2  N   UNL d   1      32.907  21.570 -21.926  0.00  0.00    -0.269 N 
ATOM      3  S   UNL d   1      32.927  22.891 -22.170  0.00  0.00    -0.064 SA
ATOM      4  C   UNL d   1      33.077  21.680 -22.726  0.00  0.00     0.271 A 
ATOM      5  C   UNL d   1      33.091  22.492 -22.882  0.00  0.00     0.087 A 
ATOM      6  O   UNL d   1      33.212  21.081 -23.285  0.00  0.00    -0.266 OA
ENDROOT
BRANCH   2   7
ATOM      7  C   UNL d   1      32.946  20.751 -22.018  0.00  0.00     0.068 A 
ATOM      8  C   UNL d   1      33.201  20.286 -21.388  0.00  0.00     0.020 A 
ATOM      9  C   UNL d   1      33.241  19.468 -21.478  0.00  0.00     0.031 A 
ATOM     10  C   UNL d   1      33.025  19.128 -22.196  0.00  0.00     0.140 A 
ATOM     11  C   UNL d   1      32.771  19.598 -22.820  0.00  0.00     0.031 A 
ATOM     12  F   UNL d   1      33.065  18.303 -22.287  0.00  0.00    -0.204 F 
ATOM     13  C   UNL d   1      32.731  20.415 -22.732  0.00  0.00     0.020 A 
ENDBRANCH   2   7
BRANCH   1  14
ATOM     14  C   UNL d   1      32.639  22.473 -20.789  0.00  0.00     0.103 C 
BRANCH  14  15
ATOM     15  C   UNL d   1      31.853  22.440 -20.535  0.00  0.00     0.300 C 
ATOM     16  O   UNL d   1      31.321  23.047 -20.730  0.00  0.00    -0.264 OA
ATOM     17  N   UNL d   1      31.592  21.795 -20.082  0.00  0.00    -0.102 N 
ENDBRANCH  14  15
BRANCH  14  18
ATOM     18  C   UNL d   1      33.236  22.660 -20.261  0.00  0.00     0.129 C 
ATOM     19  N   UNL d   1      33.117  23.250 -19.691  0.00  0.00    -0.146 N 
ENDBRANCH  14  18
ENDBRANCH   1  14
BRANCH   5  20
ATOM     20  C   UNL d   1      33.240  22.845 -23.612  0.00  0.00     0.011 C 
ATOM     21  C   UNL d   1      32.907  23.585 -23.786  0.00  0.00     0.001 C 
ENDBRANCH   5  20
TORSDOF 5
ENDMDL
MODEL 4
REMARK VINA RESULT:       1.7      2.756      4.454
REMARK  5 active torsions:
REMARK  status: ('A' for Active; 'I' for Inactive)
REMARK    1  A    between atoms: C_3  and  C_1 
REMARK    2  A    between atoms: C_9  and  N_2 
REMARK    3  A    between atoms: C_7  and  C_3 
REMARK    4  A    between atoms: C_8  and  C_3 
REMARK    5  A    between atoms: C_20  and  C_6 
ROOT
ATOM      1  C   UNL d   1      33.029  20.199 -22.873  0.00  0.00     0.103 A 
ATOM      2  N   UNL d   1      32.894  19.480 -23.254  0.00  0.00    -0.269 N 
ATOM      3  S   UNL d   1      33.176  20.779 -23.448  0.00  0.00    -0.064 SA
ATOM      4  C   UNL d   1      32.957  19.610 -24.067  0.00  0.00     0.271 A 
ATOM      5  C   UNL d   1      33.131  20.408 -24.192  0.00  0.00     0.087 A 
ATOM      6  O   UNL d   1      32.864  19.039 -24.662  0.00  0.00    -0.266 OA
ENDROOT
BRANCH   2   7
ATOM      7  C   UNL d   1      32.732  18.681 -23.381  0.00  0.00     0.068 A 
ATOM      8  C   UNL d   1      32.061  18.468 -23.809  0.00  0.00     0.020 A 
ATOM      9  C   UNL d   1      31.898  17.670 -23.937  0.00  0.00     0.031 A 
ATOM     10  C   UNL d   1      32.408  17.099 -23.635  0.00  0.00     0.140 A 
ATOM     11  C   UNL d   1      33.075  17.319 -23.209  0.00  0.00     0.031 A 
ATOM     12  F   UNL d   1      32.244  16.294 -23.763  0.00  0.00    -0.204 F 
ATOM     13  C   UNL d   1      33.240  18.115 -23.080  0.00  0.00     0.020 A 
ENDBRANCH   2   7
BRANCH   1  14
ATOM     14  C   UNL d   1      33.020  20.332 -22.054  0.00  0.00     0.103 C 
BRANCH  14  15
ATOM     15  C   UNL d   1      32.804  21.077 -21.769  0.00  0.00     0.300 C 
ATOM     16  O   UNL d   1      32.157  21.482 -22.096  0.00  0.00    -0.264 OA
ATOM     17  N   UNL d   1      33.236  21.424 -21.151  0.00  0.00    -0.102 N 
ENDBRANCH  14  15
BRANCH  14  18
ATOM     18  C   UNL d   1      33.223  19.733 -21.534  0.00  0.00     0.129 C 
ATOM     19  N   UNL d   1      32.987  19.774 -20.741  0.00  0.00    -0.146 N 
ENDBRANCH  14  18
ENDBRANCH   1  14
BRANCH   5  20
ATOM     20  C   UNL d   1      33.240  20.774 -24.922  0.00  0.00     0.011 C 
ATOM     21  C   UNL d   1      33.067  21.581 -25.008  0.00  0.00     0.001 C 
ENDBRANCH   5  20
TORSDOF 5
ENDMDL
MODEL 5
REMARK VINA RESULT:       2.5      4.757      6.031
REMARK  5 active torsions:
REMARK  status: ('A' for Active; 'I' for Inactive)
REMARK    1  A    between atoms: C_3  and  C_1 
REMARK    2  A    between atoms: C_9  and  N_2 
REMARK    3  A    between atoms: C_7  and  C_3 
REMARK    4  A    between atoms: C_8  and  C_3 
REMARK    5  A    between atoms: C_20  and  C_6 
ROOT
ATOM      1  C   UNL d   1      32.763  22.108 -21.146  0.00  0.00     0.103 A 
ATOM      2  N   UNL d   1      32.881  22.203 -21.957  0.00  0.00    -0.269 N 
ATOM      3  S   UNL d   1      32.806  21.300 -20.965  0.00  0.00    -0.064 SA
ATOM      4  C   UNL d   1      32.998  21.454 -22.283  0.00  0.00     0.271 A 
ATOM      5  C   UNL d   1      32.953  20.894 -21.677  0.00  0.00     0.087 A 
ATOM      6  O   UNL d   1      33.138  21.286 -23.084  0.00  0.00    -0.266 OA
ENDROOT
BRANCH   2   7
ATOM      7  C   UNL d   1      32.966  22.554 -22.699  0.00  0.00     0.068 A 
ATOM      8  C   UNL d   1      32.887  22.091 -23.375  0.00  0.00     0.020 A 
ATOM      9  C   UNL d   1      32.971  22.441 -24.117  0.00  0.00     0.031 A 
ATOM     10  C   UNL d   1      33.133  23.246 -24.169  0.00  0.00     0.140 A 
ATOM     11  C   UNL d   1      33.210  23.701 -23.490  0.00  0.00     0.031 A 
ATOM     12  F   UNL d   1      33.218  23.599 -24.918  0.00  0.00    -0.204 F 
ATOM     13  C   UNL d   1      33.126  23.355 -22.749  0.00  0.00     0.020 A 
ENDBRANCH   2   7
BRANCH   1  14
ATOM     14  C   UNL d   1      32.623  22.713 -20.594  0.00  0.00     0.103 C 
BRANCH  14  15
ATOM     15  C   UNL d   1      31.854  22.838 -20.320  0.00  0.00     0.300 C 
ATOM     16  O   UNL d   1      31.342  23.353 -20.724  0.00  0.00    -0.264 OA
ATOM     17  N   UNL d   1      31.589  22.448 -19.637  0.00  0.00    -0.102 N 
ENDBRANCH  14  15
BRANCH  14  18
ATOM     18  C   UNL d   1      33.240  23.179 -20.325  0.00  0.00     0.129 C 
ATOM     19  N   UNL d   1      33.187  23.549 -19.585  0.00  0.00    -0.146 N 
ENDBRANCH  14  18
ENDBRANCH   1  14
BRANCH   5  20
ATOM     20  C   UNL d   1      33.039  20.079 -21.760  0.00  0.00     0.011 C 
ATOM     21  C   UNL d   1      32.763  19.573 -21.163  0.00  0.00     0.001 C 
ENDBRANCH   5  20
TORSDOF 5
ENDMDL
