MODEL 1
REMARK VINA RESULT:      47.3      0.000      0.000
REMARK  7 active torsions:
REMARK  status: ('A' for Active; 'I' for Inactive)
REMARK    1  A    between atoms: C_4  and  C_10 
REMARK    2  A    between atoms: O_17  and  C_4 
REMARK    3  A    between atoms: O_19  and  C_5 
REMARK    4  A    between atoms: O_20  and  C_7 
REMARK    5  A    between atoms: C_12  and  C_8 
REMARK    6  A    between atoms: O_15  and  C_12 
REMARK    7  A    between atoms: C_16  and  O_15 
ROOT
ATOM      1  C   UNL d   1     -50.860  25.804  33.314  0.00  0.00     0.022 A 
ATOM      2  C   UNL d   1     -50.268  25.233  33.317  0.00  0.00     0.028 A 
ATOM      3  C   UNL d   1     -51.665  25.582  33.309  0.00  0.00     0.005 A 
ATOM      4  C   UNL d   1     -50.483  24.439  33.314  0.00  0.00     0.116 A 
ATOM      5  C   UNL d   1     -51.876  24.790  33.306  0.00  0.00     0.026 A 
ATOM      6  C   UNL d   1     -51.289  24.217  33.309  0.00  0.00     0.116 A 
ATOM      7  C   UNL d   1     -50.644  26.594  33.317  0.00  0.00     0.106 A 
ATOM      8  N   UNL d   1     -51.235  27.165  33.315  0.00  0.00    -0.242 NA
ATOM      9  C   UNL d   1     -52.041  26.943  33.309  0.00  0.00     0.099 A 
ATOM     10  C   UNL d   1     -52.251  26.151  33.306  0.00  0.00     0.021 A 
ENDROOT
BRANCH   7  11
ATOM     11  C   UNL d   1     -49.837  26.816  33.323  0.00  0.00     0.142 C 
BRANCH  11  12
ATOM     12  O   UNL d   1     -49.395  26.751  34.010  0.00  0.00    -0.304 OA
BRANCH  12  13
ATOM     13  C   UNL d   1     -49.040  27.424  34.345  0.00  0.00     0.100 A 
ATOM     14  C   UNL d   1     -48.526  27.356  34.986  0.00  0.00     0.025 A 
ATOM     15  C   UNL d   1     -48.171  28.029  35.321  0.00  0.00     0.007 A 
ATOM     16  C   UNL d   1     -48.324  28.782  35.021  0.00  0.00     0.063 A 
ATOM     17  C   UNL d   1     -48.838  28.850  34.379  0.00  0.00     0.007 A 
ATOM     18  C   UNL d   1     -49.193  28.177  34.044  0.00  0.00     0.025 A 
BRANCH  16  19
ATOM     19  C   UNL d   1     -47.967  29.452  35.359  0.00  0.00     0.296 C 
ATOM     20  O   UNL d   1     -47.685  29.440  36.128  0.00  0.00    -0.259 OA
BRANCH  19  21
ATOM     21  O   UNL d   1     -47.890  30.153  34.916  0.00  0.00    -0.296 OA
ATOM     22  C   UNL d   1     -47.383  30.770  35.180  0.00  0.00     0.185 C 
ENDBRANCH  19  21
ENDBRANCH  16  19
ENDBRANCH  12  13
ENDBRANCH  11  12
ENDBRANCH   7  11
BRANCH   4  23
ATOM     23  O   UNL d   1     -49.888  23.853  33.317  0.00  0.00    -0.326 OA
ATOM     24  C   UNL d   1     -49.559  23.611  34.028  0.00  0.00     0.181 C 
ENDBRANCH   4  23
BRANCH   6  25
ATOM     25  O   UNL d   1     -51.510  23.406  33.306  0.00  0.00    -0.326 OA
ATOM     26  C   UNL d   1     -52.295  23.210  33.468  0.00  0.00     0.181 C 
ENDBRANCH   6  25
TORSDOF 7
ENDMDL
MODEL 2
REMARK VINA RESULT:      49.8      1.107      1.826
REMARK  7 active torsions:
REMARK  status: ('A' for Active; 'I' for Inactive)
REMARK    1  A    between atoms: C_4  and  C_10 
REMARK    2  A    between atoms: O_17  and  C_4 
REMARK    3  A    between atoms: O_19  and  C_5 
REMARK    4  A    between atoms: O_20  and  C_7 
REMARK    5  A    between atoms: C_12  and  C_8 
REMARK    6  A    between atoms: O_15  and  C_12 
REMARK    7  A    between atoms: C_16  and  O_15 
ROOT
ATOM      1  C   UNL d   1     -50.546  25.618  33.311  0.00  0.00     0.022 A 
ATOM      2  C   UNL d   1     -51.114  26.212  33.312  0.00  0.00     0.028 A 
ATOM      3  C   UNL d   1     -50.772  24.813  33.310  0.00  0.00     0.005 A 
ATOM      4  C   UNL d   1     -51.909  26.001  33.311  0.00  0.00     0.116 A 
ATOM      5  C   UNL d   1     -51.566  24.607  33.310  0.00  0.00     0.026 A 
ATOM      6  C   UNL d   1     -52.135  25.196  33.310  0.00  0.00     0.116 A 
ATOM      7  C   UNL d   1     -49.755  25.829  33.312  0.00  0.00     0.106 A 
ATOM      8  N   UNL d   1     -49.187  25.235  33.312  0.00  0.00    -0.242 NA
ATOM      9  C   UNL d   1     -49.413  24.430  33.310  0.00  0.00     0.099 A 
ATOM     10  C   UNL d   1     -50.207  24.225  33.310  0.00  0.00     0.021 A 
ENDROOT
BRANCH   7  11
ATOM     11  C   UNL d   1     -49.528  26.635  33.313  0.00  0.00     0.142 C 
BRANCH  11  12
ATOM     12  O   UNL d   1     -48.745  26.843  33.433  0.00  0.00    -0.304 OA
BRANCH  12  13
ATOM     13  C   UNL d   1     -48.548  27.436  33.980  0.00  0.00     0.100 A 
ATOM     14  C   UNL d   1     -47.834  27.412  34.392  0.00  0.00     0.025 A 
ATOM     15  C   UNL d   1     -47.637  28.005  34.940  0.00  0.00     0.007 A 
ATOM     16  C   UNL d   1     -48.151  28.633  35.086  0.00  0.00     0.063 A 
ATOM     17  C   UNL d   1     -48.865  28.658  34.674  0.00  0.00     0.007 A 
ATOM     18  C   UNL d   1     -49.062  28.065  34.127  0.00  0.00     0.025 A 
BRANCH  16  19
ATOM     19  C   UNL d   1     -47.949  29.225  35.635  0.00  0.00     0.296 C 
ATOM     20  O   UNL d   1     -48.273  29.233  36.387  0.00  0.00    -0.259 OA
BRANCH  19  21
ATOM     21  O   UNL d   1     -47.410  29.823  35.426  0.00  0.00    -0.296 OA
ATOM     22  C   UNL d   1     -47.451  30.580  35.789  0.00  0.00     0.185 C 
ENDBRANCH  19  21
ENDBRANCH  16  19
ENDBRANCH  12  13
ENDBRANCH  11  12
ENDBRANCH   7  11
BRANCH   4  23
ATOM     23  O   UNL d   1     -52.492  26.599  33.312  0.00  0.00    -0.326 OA
ATOM     24  C   UNL d   1     -52.276  27.378  33.456  0.00  0.00     0.181 C 
ENDBRANCH   4  23
BRANCH   6  25
ATOM     25  O   UNL d   1     -52.947  24.980  33.310  0.00  0.00    -0.326 OA
ATOM     26  C   UNL d   1     -53.142  24.178  33.310  0.00  0.00     0.181 C 
ENDBRANCH   6  25
TORSDOF 7
ENDMDL
