MODEL 1
REMARK VINA RESULT:      -5.5      0.000      0.000
REMARK  4 active torsions:
REMARK  status: ('A' for Active; 'I' for Inactive)
REMARK    1  A    between atoms: N_2  and  S_1 
REMARK    2  A    between atoms: C_3  and  S_1 
REMARK       I    between atoms: C_5  and  N_4 
REMARK    3  A    between atoms: O_17  and  C_5 
REMARK    4  A    between atoms: C_18  and  O_17 
ROOT
ATOM      1  N   UNL d   1     -41.538-123.097 -51.552  0.00  0.00    -0.226 N 
ATOM      2  N   UNL d   1     -41.369-123.085 -53.213  0.00  0.00    -0.248 N 
ATOM      3  C   UNL d   1     -41.282-123.095 -54.033  0.00  0.00     0.378 C 
ATOM      4  C   UNL d   1     -41.377-123.798 -51.967  0.00  0.00     0.111 A 
ATOM      5  C   UNL d   1     -41.613-122.386 -51.982  0.00  0.00     0.111 A 
ATOM      6  C   UNL d   1     -41.530-122.380 -52.802  0.00  0.00     0.105 A 
ATOM      7  C   UNL d   1     -41.293-123.792 -52.788  0.00  0.00     0.105 A 
ATOM      8  O   UNL d   1     -41.123-123.801 -54.429  0.00  0.00    -0.237 OA
ENDROOT
BRANCH   1   9
ATOM      9  S   UNL d   1     -41.621-123.102 -50.732  0.00  0.00     0.277 S 
ATOM     10  O   UNL d   1     -42.048-123.807 -50.780  0.00  0.00    -0.199 OA
ATOM     11  O   UNL d   1     -41.187-122.385 -50.683  0.00  0.00    -0.199 OA
BRANCH   9  12
ATOM     12  C   UNL d   1     -41.708-123.113 -49.922  0.00  0.00     0.133 A 
ATOM     13  S   UNL d   1     -41.123-123.271 -49.415  0.00  0.00    -0.074 SA
ATOM     14  C   UNL d   1     -41.430-123.229 -48.642  0.00  0.00     0.036 A 
ATOM     15  C   UNL d   1     -42.242-123.036 -48.703  0.00  0.00     0.008 A 
ATOM     16  C   UNL d   1     -42.415-122.964 -49.483  0.00  0.00     0.020 A 
ENDBRANCH   9  12
ENDBRANCH   1   9
BRANCH   3  17
ATOM     17  O   UNL d   1     -41.359-122.392 -54.444  0.00  0.00    -0.257 OA
BRANCH  17  18
ATOM     18  C   UNL d   1     -41.466-122.405 -55.261  0.00  0.00     0.128 C 
ATOM     19  C   UNL d   1     -41.875-121.810 -55.641  0.00  0.00     0.029 C 
ENDBRANCH  17  18
ENDBRANCH   3  17
TORSDOF 4
ENDMDL
MODEL 2
REMARK VINA RESULT:      -4.7      1.390      4.334
REMARK  4 active torsions:
REMARK  status: ('A' for Active; 'I' for Inactive)
REMARK    1  A    between atoms: N_2  and  S_1 
REMARK    2  A    between atoms: C_3  and  S_1 
REMARK       I    between atoms: C_5  and  N_4 
REMARK    3  A    between atoms: O_17  and  C_5 
REMARK    4  A    between atoms: C_18  and  O_17 
ROOT
ATOM      1  N   UNL d   1     -41.620-122.719 -52.412  0.00  0.00    -0.226 N 
ATOM      2  N   UNL d   1     -41.627-123.050 -50.776  0.00  0.00    -0.248 N 
ATOM      3  C   UNL d   1     -41.620-123.224 -49.969  0.00  0.00     0.378 C 
ATOM      4  C   UNL d   1     -41.132-123.313 -52.097  0.00  0.00     0.111 A 
ATOM      5  C   UNL d   1     -42.114-122.291 -51.894  0.00  0.00     0.111 A 
ATOM      6  C   UNL d   1     -42.118-122.455 -51.086  0.00  0.00     0.105 A 
ATOM      7  C   UNL d   1     -41.135-123.476 -51.288  0.00  0.00     0.105 A 
ATOM      8  O   UNL d   1     -41.128-123.817 -49.674  0.00  0.00    -0.237 OA
ENDROOT
BRANCH   1   9
ATOM      9  S   UNL d   1     -41.617-122.556 -53.220  0.00  0.00     0.277 S 
ATOM     10  O   UNL d   1     -41.918-123.309 -53.374  0.00  0.00    -0.199 OA
ATOM     11  O   UNL d   1     -41.310-121.790 -53.064  0.00  0.00    -0.199 OA
BRANCH   9  12
ATOM     12  C   UNL d   1     -41.616-122.401 -54.019  0.00  0.00     0.133 A 
ATOM     13  S   UNL d   1     -41.198-122.809 -54.551  0.00  0.00    -0.074 SA
ATOM     14  C   UNL d   1     -41.344-122.483 -55.304  0.00  0.00     0.036 A 
ATOM     15  C   UNL d   1     -41.880-121.848 -55.204  0.00  0.00     0.008 A 
ATOM     16  C   UNL d   1     -42.048-121.794 -54.422  0.00  0.00     0.020 A 
ENDBRANCH   9  12
ENDBRANCH   1   9
BRANCH   3  17
ATOM     17  O   UNL d   1     -42.108-122.798 -49.472  0.00  0.00    -0.257 OA
BRANCH  17  18
ATOM     18  C   UNL d   1     -42.146-122.992 -48.671  0.00  0.00     0.128 C 
ATOM     19  C   UNL d   1     -42.820-122.848 -48.235  0.00  0.00     0.029 C 
ENDBRANCH  17  18
ENDBRANCH   3  17
TORSDOF 4
ENDMDL
MODEL 3
REMARK VINA RESULT:      -4.7      1.138      1.740
REMARK  4 active torsions:
REMARK  status: ('A' for Active; 'I' for Inactive)
REMARK    1  A    between atoms: N_2  and  S_1 
REMARK    2  A    between atoms: C_3  and  S_1 
REMARK       I    between atoms: C_5  and  N_4 
REMARK    3  A    between atoms: O_17  and  C_5 
REMARK    4  A    between atoms: C_18  and  O_17 
ROOT
ATOM      1  N   UNL d   1     -41.849-122.982 -50.327  0.00  0.00    -0.226 N 
ATOM      2  N   UNL d   1     -41.518-122.703 -51.939  0.00  0.00    -0.248 N 
ATOM      3  C   UNL d   1     -41.357-122.551 -52.734  0.00  0.00     0.378 C 
ATOM      4  C   UNL d   1     -41.919-122.220 -50.648  0.00  0.00     0.111 A 
ATOM      5  C   UNL d   1     -41.610-123.607 -50.825  0.00  0.00     0.111 A 
ATOM      6  C   UNL d   1     -41.447-123.469 -51.622  0.00  0.00     0.105 A 
ATOM      7  C   UNL d   1     -41.755-122.082 -51.445  0.00  0.00     0.105 A 
ATOM      8  O   UNL d   1     -41.432-121.786 -53.036  0.00  0.00    -0.237 OA
ENDROOT
BRANCH   1   9
ATOM      9  S   UNL d   1     -42.013-123.120 -49.530  0.00  0.00     0.277 S 
ATOM     10  O   UNL d   1     -42.475-122.437 -49.507  0.00  0.00    -0.199 OA
ATOM     11  O   UNL d   1     -41.542-123.816 -49.554  0.00  0.00    -0.199 OA
BRANCH   9  12
ATOM     12  C   UNL d   1     -42.179-123.250 -48.744  0.00  0.00     0.133 A 
ATOM     13  S   UNL d   1     -42.843-123.585 -48.479  0.00  0.00    -0.074 SA
ATOM     14  C   UNL d   1     -42.804-123.620 -47.648  0.00  0.00     0.036 A 
ATOM     15  C   UNL d   1     -42.073-123.287 -47.415  0.00  0.00     0.008 A 
ATOM     16  C   UNL d   1     -41.688-123.060 -48.081  0.00  0.00     0.020 A 
ENDBRANCH   9  12
ENDBRANCH   1   9
BRANCH   3  17
ATOM     17  O   UNL d   1     -41.124-123.171 -53.212  0.00  0.00    -0.257 OA
BRANCH  17  18
ATOM     18  C   UNL d   1     -41.131-123.079 -54.032  0.00  0.00     0.128 C 
ATOM     19  C   UNL d   1     -41.200-123.724 -54.526  0.00  0.00     0.029 C 
ENDBRANCH  17  18
ENDBRANCH   3  17
TORSDOF 4
ENDMDL
