MODEL 1
REMARK VINA RESULT:      -2.7      0.000      0.000
REMARK  4 active torsions:
REMARK  status: ('A' for Active; 'I' for Inactive)
REMARK    1  A    between atoms: C_2  and  S_1 
REMARK    2  A    between atoms: N_3  and  S_1 
REMARK    3  A    between atoms: C_6  and  N_3 
REMARK    4  A    between atoms: C_4  and  C_6 
REMARK       I    between atoms: N_5  and  C_4 
ROOT
ATOM      1  S   UNL d   1      32.368  17.703 -23.971  0.00  0.00     0.287 S 
ATOM      2  O   UNL d   1      32.119  17.790 -24.766  0.00  0.00    -0.198 OA
ATOM      3  O   UNL d   1      32.612  17.604 -23.171  0.00  0.00    -0.198 OA
ENDROOT
BRANCH   1   4
ATOM      4  C   UNL d   1      31.958  16.957 -23.929  0.00  0.00     0.126 A 
ATOM      5  C   UNL d   1      32.379  16.261 -23.764  0.00  0.00     0.071 A 
ATOM      6 CL   UNL d   1      33.215  16.277 -23.635  0.00  0.00    -0.082 Cl
ATOM      7  C   UNL d   1      31.976  15.533 -23.722  0.00  0.00     0.012 A 
ATOM      8  C   UNL d   1      31.162  15.519 -23.848  0.00  0.00     0.002 A 
ATOM      9  C   UNL d   1      30.746  16.220 -24.013  0.00  0.00     0.012 A 
ATOM     10  C   UNL d   1      31.142  16.937 -24.054  0.00  0.00     0.071 A 
ATOM     11 CL   UNL d   1      30.730  17.635 -24.218  0.00  0.00    -0.082 Cl
ENDBRANCH   1   4
BRANCH   1  12
ATOM     12  N   UNL d   1      32.772  18.437 -24.012  0.00  0.00    -0.152 NA
BRANCH  12  13
ATOM     13  C   UNL d   1      32.814  18.925 -23.333  0.00  0.00     0.173 C 
BRANCH  13  14
ATOM     14  C   UNL d   1      33.018  19.729 -23.418  0.00  0.00     0.285 C 
ATOM     15  N   UNL d   1      32.996  20.245 -22.773  0.00  0.00    -0.271 N 
ATOM     16  C   UNL d   1      32.763  19.913 -22.056  0.00  0.00     0.083 A 
ATOM     17  C   UNL d   1      33.207  21.016 -22.932  0.00  0.00     0.083 A 
ATOM     18  C   UNL d   1      32.689  20.283 -21.326  0.00  0.00     0.019 A 
ATOM     19  C   UNL d   1      32.827  21.069 -21.133  0.00  0.00     0.002 A 
ATOM     20  C   UNL d   1      33.069  21.674 -21.606  0.00  0.00     0.002 A 
ATOM     21  C   UNL d   1      33.241  21.656 -22.411  0.00  0.00     0.019 A 
ATOM     22  O   UNL d   1      33.194  19.933 -24.011  0.00  0.00    -0.265 OA
ENDBRANCH  13  14
ENDBRANCH  12  13
ENDBRANCH   1  12
TORSDOF 4
ENDMDL
MODEL 2
REMARK VINA RESULT:      -2.6      2.556      5.054
REMARK  4 active torsions:
REMARK  status: ('A' for Active; 'I' for Inactive)
REMARK    1  A    between atoms: C_2  and  S_1 
REMARK    2  A    between atoms: N_3  and  S_1 
REMARK    3  A    between atoms: C_6  and  N_3 
REMARK    4  A    between atoms: C_4  and  C_6 
REMARK       I    between atoms: N_5  and  C_4 
ROOT
ATOM      1  S   UNL d   1      32.427  21.202 -21.346  0.00  0.00     0.287 S 
ATOM      2  O   UNL d   1      31.615  21.061 -21.192  0.00  0.00    -0.198 OA
ATOM      3  O   UNL d   1      33.241  21.355 -21.501  0.00  0.00    -0.198 OA
ENDROOT
BRANCH   1   4
ATOM      4  C   UNL d   1      32.289  22.041 -21.286  0.00  0.00     0.126 A 
ATOM      5  C   UNL d   1      32.368  22.523 -21.957  0.00  0.00     0.071 A 
ATOM      6 CL   UNL d   1      32.584  22.196 -22.707  0.00  0.00    -0.082 Cl
ATOM      7  C   UNL d   1      32.233  23.344 -21.896  0.00  0.00     0.012 A 
ATOM      8  C   UNL d   1      32.023  23.661 -21.165  0.00  0.00     0.002 A 
ATOM      9  C   UNL d   1      31.946  23.171 -20.497  0.00  0.00     0.012 A 
ATOM     10  C   UNL d   1      32.078  22.364 -20.556  0.00  0.00     0.071 A 
ATOM     11 CL   UNL d   1      32.002  21.876 -19.893  0.00  0.00    -0.082 Cl
ENDBRANCH   1   4
BRANCH   1  12
ATOM     12  N   UNL d   1      32.563  20.376 -21.406  0.00  0.00    -0.152 NA
BRANCH  12  13
ATOM     13  C   UNL d   1      32.776  20.044 -22.144  0.00  0.00     0.173 C 
BRANCH  13  14
ATOM     14  C   UNL d   1      33.012  19.245 -22.181  0.00  0.00     0.285 C 
ATOM     15  N   UNL d   1      32.961  18.817 -22.887  0.00  0.00    -0.271 N 
ATOM     16  C   UNL d   1      32.667  19.231 -23.536  0.00  0.00     0.083 A 
ATOM     17  C   UNL d   1      33.209  18.042 -22.847  0.00  0.00     0.083 A 
ATOM     18  C   UNL d   1      32.554  18.957 -24.302  0.00  0.00     0.019 A 
ATOM     19  C   UNL d   1      32.704  18.210 -24.608  0.00  0.00     0.002 A 
ATOM     20  C   UNL d   1      32.999  17.558 -24.237  0.00  0.00     0.002 A 
ATOM     21  C   UNL d   1      33.227  17.478 -23.450  0.00  0.00     0.019 A 
ATOM     22  O   UNL d   1      33.236  18.973 -21.634  0.00  0.00    -0.265 OA
ENDBRANCH  13  14
ENDBRANCH  12  13
ENDBRANCH   1  12
TORSDOF 4
ENDMDL
MODEL 3
REMARK VINA RESULT:      -1.6      1.190      1.677
REMARK  4 active torsions:
REMARK  status: ('A' for Active; 'I' for Inactive)
REMARK    1  A    between atoms: C_2  and  S_1 
REMARK    2  A    between atoms: N_3  and  S_1 
REMARK    3  A    between atoms: C_6  and  N_3 
REMARK    4  A    between atoms: C_4  and  C_6 
REMARK       I    between atoms: N_5  and  C_4 
ROOT
ATOM      1  S   UNL d   1      32.666  18.582 -23.307  0.00  0.00     0.287 S 
ATOM      2  O   UNL d   1      33.230  18.845 -23.868  0.00  0.00    -0.198 OA
ATOM      3  O   UNL d   1      32.094  18.310 -22.752  0.00  0.00    -0.198 OA
ENDROOT
BRANCH   1   4
ATOM      4  C   UNL d   1      32.312  18.084 -23.902  0.00  0.00     0.126 A 
ATOM      5  C   UNL d   1      32.389  17.260 -23.852  0.00  0.00     0.071 A 
ATOM      6 CL   UNL d   1      32.816  16.899 -23.218  0.00  0.00    -0.082 Cl
ATOM      7  C   UNL d   1      32.042  16.775 -24.435  0.00  0.00     0.012 A 
ATOM      8  C   UNL d   1      31.627  17.128 -25.053  0.00  0.00     0.002 A 
ATOM      9  C   UNL d   1      31.554  17.955 -25.097  0.00  0.00     0.012 A 
ATOM     10  C   UNL d   1      31.895  18.433 -24.524  0.00  0.00     0.071 A 
ATOM     11 CL   UNL d   1      31.823  19.255 -24.565  0.00  0.00    -0.082 Cl
ENDBRANCH   1   4
BRANCH   1  12
ATOM     12  N   UNL d   1      33.014  19.071 -22.721  0.00  0.00    -0.152 NA
BRANCH  12  13
ATOM     13  C   UNL d   1      32.775  19.870 -22.654  0.00  0.00     0.173 C 
BRANCH  13  14
ATOM     14  C   UNL d   1      32.929  20.286 -21.948  0.00  0.00     0.285 C 
ATOM     15  N   UNL d   1      32.992  21.110 -21.942  0.00  0.00    -0.271 N 
ATOM     16  C   UNL d   1      32.893  21.482 -22.671  0.00  0.00     0.083 A 
ATOM     17  C   UNL d   1      33.143  21.447 -21.216  0.00  0.00     0.083 A 
ATOM     18  C   UNL d   1      32.924  22.285 -22.839  0.00  0.00     0.019 A 
ATOM     19  C   UNL d   1      33.060  22.911 -22.325  0.00  0.00     0.002 A 
ATOM     20  C   UNL d   1      33.197  22.899 -21.532  0.00  0.00     0.002 A 
ATOM     21  C   UNL d   1      33.235  22.246 -21.030  0.00  0.00     0.019 A 
ATOM     22  O   UNL d   1      32.997  19.936 -21.403  0.00  0.00    -0.265 OA
ENDBRANCH  13  14
ENDBRANCH  12  13
ENDBRANCH   1  12
TORSDOF 4
ENDMDL
MODEL 4
REMARK VINA RESULT:      -1.5      2.772      5.157
REMARK  4 active torsions:
REMARK  status: ('A' for Active; 'I' for Inactive)
REMARK    1  A    between atoms: C_2  and  S_1 
REMARK    2  A    between atoms: N_3  and  S_1 
REMARK    3  A    between atoms: C_6  and  N_3 
REMARK    4  A    between atoms: C_4  and  C_6 
REMARK       I    between atoms: N_5  and  C_4 
ROOT
ATOM      1  S   UNL d   1      32.391  21.676 -21.206  0.00  0.00     0.287 S 
ATOM      2  O   UNL d   1      31.988  21.109 -20.739  0.00  0.00    -0.198 OA
ATOM      3  O   UNL d   1      32.797  22.253 -21.667  0.00  0.00    -0.198 OA
ENDROOT
BRANCH   1   4
ATOM      4  C   UNL d   1      32.473  22.177 -20.522  0.00  0.00     0.126 A 
ATOM      5  C   UNL d   1      32.891  21.906 -19.858  0.00  0.00     0.071 A 
ATOM      6 CL   UNL d   1      33.240  21.136 -19.846  0.00  0.00    -0.082 Cl
ATOM      7  C   UNL d   1      32.970  22.398 -19.189  0.00  0.00     0.012 A 
ATOM      8  C   UNL d   1      32.629  23.148 -19.202  0.00  0.00     0.002 A 
ATOM      9  C   UNL d   1      32.212  23.412 -19.871  0.00  0.00     0.012 A 
ATOM     10  C   UNL d   1      32.133  22.929 -20.529  0.00  0.00     0.071 A 
ATOM     11 CL   UNL d   1      31.719  23.190 -21.195  0.00  0.00    -0.082 Cl
ENDBRANCH   1   4
BRANCH   1  12
ATOM     12  N   UNL d   1      32.310  21.183 -21.881  0.00  0.00    -0.152 NA
BRANCH  12  13
ATOM     13  C   UNL d   1      32.968  20.741 -22.152  0.00  0.00     0.173 C 
BRANCH  13  14
ATOM     14  C   UNL d   1      32.963  20.433 -22.926  0.00  0.00     0.285 C 
ATOM     15  N   UNL d   1      33.042  19.621 -23.063  0.00  0.00    -0.271 N 
ATOM     16  C   UNL d   1      33.125  19.151 -22.392  0.00  0.00     0.083 A 
ATOM     17  C   UNL d   1      33.028  19.393 -23.845  0.00  0.00     0.083 A 
ATOM     18  C   UNL d   1      33.213  18.336 -22.352  0.00  0.00     0.019 A 
ATOM     19  C   UNL d   1      33.241  17.792 -22.966  0.00  0.00     0.002 A 
ATOM     20  C   UNL d   1      33.189  17.918 -23.760  0.00  0.00     0.002 A 
ATOM     21  C   UNL d   1      33.094  18.632 -24.159  0.00  0.00     0.019 A 
ATOM     22  O   UNL d   1      32.894  20.855 -23.417  0.00  0.00    -0.265 OA
ENDBRANCH  13  14
ENDBRANCH  12  13
ENDBRANCH   1  12
TORSDOF 4
ENDMDL
MODEL 5
REMARK VINA RESULT:      -1.1      1.508      4.516
REMARK  4 active torsions:
REMARK  status: ('A' for Active; 'I' for Inactive)
REMARK    1  A    between atoms: C_2  and  S_1 
REMARK    2  A    between atoms: N_3  and  S_1 
REMARK    3  A    between atoms: C_6  and  N_3 
REMARK    4  A    between atoms: C_4  and  C_6 
REMARK       I    between atoms: N_5  and  C_4 
ROOT
ATOM      1  S   UNL d   1      33.221  19.168 -22.897  0.00  0.00     0.287 S 
ATOM      2  O   UNL d   1      33.203  19.449 -23.686  0.00  0.00    -0.198 OA
ATOM      3  O   UNL d   1      33.240  18.896 -22.099  0.00  0.00    -0.198 OA
ENDROOT
BRANCH   1   4
ATOM      4  C   UNL d   1      33.228  19.972 -22.614  0.00  0.00     0.126 A 
ATOM      5  C   UNL d   1      33.235  20.601 -23.156  0.00  0.00     0.071 A 
ATOM      6 CL   UNL d   1      33.235  20.460 -23.989  0.00  0.00    -0.082 Cl
ATOM      7  C   UNL d   1      33.241  21.387 -22.877  0.00  0.00     0.012 A 
ATOM      8  C   UNL d   1      33.240  21.523 -22.065  0.00  0.00     0.002 A 
ATOM      9  C   UNL d   1      33.233  20.888 -21.528  0.00  0.00     0.012 A 
ATOM     10  C   UNL d   1      33.227  20.114 -21.801  0.00  0.00     0.071 A 
ATOM     11 CL   UNL d   1      33.220  19.481 -21.270  0.00  0.00    -0.082 Cl
ENDBRANCH   1   4
BRANCH   1  12
ATOM     12  N   UNL d   1      33.215  18.376 -23.174  0.00  0.00    -0.152 NA
BRANCH  12  13
ATOM     13  C   UNL d   1      32.512  18.055 -23.497  0.00  0.00     0.173 C 
BRANCH  13  14
ATOM     14  C   UNL d   1      32.481  17.244 -23.685  0.00  0.00     0.285 C 
ATOM     15  N   UNL d   1      31.823  16.919 -24.066  0.00  0.00    -0.271 N 
ATOM     16  C   UNL d   1      31.214  17.446 -24.241  0.00  0.00     0.083 A 
ATOM     17  C   UNL d   1      31.863  16.120 -24.218  0.00  0.00     0.083 A 
ATOM     18  C   UNL d   1      30.499  17.289 -24.613  0.00  0.00     0.019 A 
ATOM     19  C   UNL d   1      30.217  16.573 -24.900  0.00  0.00     0.002 A 
ATOM     20  C   UNL d   1      30.566  15.847 -24.890  0.00  0.00     0.002 A 
ATOM     21  C   UNL d   1      31.302  15.638 -24.586  0.00  0.00     0.019 A 
ATOM     22  O   UNL d   1      32.994  16.878 -23.521  0.00  0.00    -0.265 OA
ENDBRANCH  13  14
ENDBRANCH  12  13
ENDBRANCH   1  12
TORSDOF 4
ENDMDL
MODEL 6
REMARK VINA RESULT:      -0.4      1.673      2.365
REMARK  4 active torsions:
REMARK  status: ('A' for Active; 'I' for Inactive)
REMARK    1  A    between atoms: C_2  and  S_1 
REMARK    2  A    between atoms: N_3  and  S_1 
REMARK    3  A    between atoms: C_6  and  N_3 
REMARK    4  A    between atoms: C_4  and  C_6 
REMARK       I    between atoms: N_5  and  C_4 
ROOT
ATOM      1  S   UNL d   1      30.216  16.957 -24.351  0.00  0.00     0.287 S 
ATOM      2  O   UNL d   1      30.679  16.262 -24.285  0.00  0.00    -0.198 OA
ATOM      3  O   UNL d   1      29.741  17.651 -24.414  0.00  0.00    -0.198 OA
ENDROOT
BRANCH   1   4
ATOM      4  C   UNL d   1      29.554  16.544 -24.009  0.00  0.00     0.126 A 
ATOM      5  C   UNL d   1      29.683  15.882 -23.526  0.00  0.00     0.071 A 
ATOM      6 CL   UNL d   1      30.466  15.605 -23.365  0.00  0.00    -0.082 Cl
ATOM      7  C   UNL d   1      29.034  15.480 -23.192  0.00  0.00     0.012 A 
ATOM      8  C   UNL d   1      28.272  15.750 -23.350  0.00  0.00     0.002 A 
ATOM      9  C   UNL d   1      28.150  16.415 -23.834  0.00  0.00     0.012 A 
ATOM     10  C   UNL d   1      28.788  16.811 -24.164  0.00  0.00     0.071 A 
ATOM     11 CL   UNL d   1      28.669  17.472 -24.646  0.00  0.00    -0.082 Cl
ENDBRANCH   1   4
BRANCH   1  12
ATOM     12  N   UNL d   1      30.868  17.365 -24.689  0.00  0.00    -0.152 NA
BRANCH  12  13
ATOM     13  C   UNL d   1      31.513  17.587 -24.204  0.00  0.00     0.173 C 
BRANCH  13  14
ATOM     14  C   UNL d   1      32.029  18.189 -24.461  0.00  0.00     0.285 C 
ATOM     15  N   UNL d   1      32.346  18.736 -23.928  0.00  0.00    -0.271 N 
ATOM     16  C   UNL d   1      32.117  18.644 -23.142  0.00  0.00     0.083 A 
ATOM     17  C   UNL d   1      32.842  19.296 -24.251  0.00  0.00     0.083 A 
ATOM     18  C   UNL d   1      32.337  19.097 -22.493  0.00  0.00     0.019 A 
ATOM     19  C   UNL d   1      32.836  19.749 -22.468  0.00  0.00     0.002 A 
ATOM     20  C   UNL d   1      33.234  20.108 -23.069  0.00  0.00     0.002 A 
ATOM     21  C   UNL d   1      33.241  19.910 -23.869  0.00  0.00     0.019 A 
ATOM     22  O   UNL d   1      32.173  18.211 -25.096  0.00  0.00    -0.265 OA
ENDBRANCH  13  14
ENDBRANCH  12  13
ENDBRANCH   1  12
TORSDOF 4
ENDMDL
