MODEL 1
REMARK VINA RESULT:      15.8      0.000      0.000
REMARK  2 active torsions:
REMARK  status: ('A' for Active; 'I' for Inactive)
REMARK    1  A    between atoms: C_5  and  N_1 
REMARK    2  A    between atoms: O_14  and  C_11 
ROOT
ATOM      1  C   UNL d   1      58.335  49.693  50.484  0.00  0.00     0.069 A 
ATOM      2  C   UNL d   1      58.588  49.708  51.270  0.00  0.00     0.020 A 
ATOM      3  C   UNL d   1      58.918  49.677  49.877  0.00  0.00     0.020 A 
ATOM      4  C   UNL d   1      59.948  49.692  50.880  0.00  0.00     0.094 A 
ATOM      5  C   UNL d   1      59.391  49.707  51.459  0.00  0.00     0.026 A 
ATOM      6  C   UNL d   1      59.722  49.677  50.072  0.00  0.00     0.026 A 
ENDROOT
BRANCH   1   7
ATOM      7  N   UNL d   1      57.523  49.694  50.318  0.00  0.00    -0.249 N 
ATOM      8  C   UNL d   1      57.189  49.700  49.564  0.00  0.00     0.208 A 
ATOM      9  N   UNL d   1      56.348  49.699  49.683  0.00  0.00    -0.212 NA
ATOM     10  S   UNL d   1      57.603  49.706  48.835  0.00  0.00    -0.038 SA
ATOM     11  C   UNL d   1      56.224  49.692  50.498  0.00  0.00     0.162 A 
ATOM     12  C   UNL d   1      56.953  49.689  50.881  0.00  0.00     0.286 A 
ATOM     13  O   UNL d   1      57.087  49.682  51.717  0.00  0.00    -0.265 OA
ENDBRANCH   1   7
BRANCH   4  14
ATOM     14  O   UNL d   1      60.742  49.692  51.097  0.00  0.00    -0.328 OA
ATOM     15  C   UNL d   1      60.951  49.683  51.894  0.00  0.00     0.181 C 
ENDBRANCH   4  14
TORSDOF 2
ENDMDL
MODEL 2
REMARK VINA RESULT:      16.5      1.481      3.116
REMARK  2 active torsions:
REMARK  status: ('A' for Active; 'I' for Inactive)
REMARK    1  A    between atoms: C_5  and  N_1 
REMARK    2  A    between atoms: O_14  and  C_11 
ROOT
ATOM      1  C   UNL d   1      58.734  49.700  50.574  0.00  0.00     0.069 A 
ATOM      2  C   UNL d   1      58.146  49.706  51.154  0.00  0.00     0.020 A 
ATOM      3  C   UNL d   1      58.499  49.695  49.767  0.00  0.00     0.020 A 
ATOM      4  C   UNL d   1      57.122  49.703  50.178  0.00  0.00     0.094 A 
ATOM      5  C   UNL d   1      57.347  49.708  50.950  0.00  0.00     0.026 A 
ATOM      6  C   UNL d   1      57.696  49.696  49.567  0.00  0.00     0.026 A 
ENDROOT
BRANCH   1   7
ATOM      7  N   UNL d   1      59.531  49.698  50.803  0.00  0.00    -0.249 N 
ATOM      8  C   UNL d   1      60.176  49.702  50.290  0.00  0.00     0.208 A 
ATOM      9  N   UNL d   1      60.866  49.699  50.785  0.00  0.00    -0.212 NA
ATOM     10  S   UNL d   1      60.146  49.708  49.452  0.00  0.00    -0.038 SA
ATOM     11  C   UNL d   1      60.599  49.694  51.565  0.00  0.00     0.162 A 
ATOM     12  C   UNL d   1      59.776  49.693  51.567  0.00  0.00     0.286 A 
ATOM     13  O   UNL d   1      59.270  49.689  52.246  0.00  0.00    -0.265 OA
ENDBRANCH   1   7
BRANCH   4  14
ATOM     14  O   UNL d   1      56.317  49.705  50.004  0.00  0.00    -0.328 OA
ATOM     15  C   UNL d   1      56.066  49.691  49.219  0.00  0.00     0.181 C 
ENDBRANCH   4  14
TORSDOF 2
ENDMDL
