MODEL 1
REMARK VINA RESULT:      -2.1      0.000      0.000
REMARK  4 active torsions:
REMARK  status: ('A' for Active; 'I' for Inactive)
REMARK    1  A    between atoms: C_5  and  N_1 
REMARK    2  A    between atoms: C_7  and  C_3 
REMARK    3  A    between atoms: C_8  and  C_4 
REMARK    4  A    between atoms: N_10  and  C_5 
ROOT
ATOM      1  N   UNL d   1      32.447  22.909 -20.556  0.00  0.00    -0.203 N 
ATOM      2  N   UNL d   1      32.405  23.317 -19.837  0.00  0.00    -0.163 NA
ATOM      3  C   UNL d   1      32.561  22.815 -19.225  0.00  0.00     0.103 A 
ATOM      4  C   UNL d   1      32.638  22.113 -20.393  0.00  0.00     0.087 A 
ATOM      5  C   UNL d   1      32.710  22.047 -19.571  0.00  0.00     0.040 A 
ENDROOT
BRANCH   3   6
ATOM      6  C   UNL d   1      32.570  23.027 -18.419  0.00  0.00     0.019 A 
ATOM      7  C   UNL d   1      31.966  23.484 -18.096  0.00  0.00     0.002 A 
ATOM      8  C   UNL d   1      31.993  23.686 -17.285  0.00  0.00     0.000 A 
ATOM      9  C   UNL d   1      32.616  23.430 -16.819  0.00  0.00     0.000 A 
ATOM     10  C   UNL d   1      33.212  22.973 -17.160  0.00  0.00     0.000 A 
ATOM     11  C   UNL d   1      32.579  23.630 -16.160  0.00  0.00     0.000 C 
ATOM     12  C   UNL d   1      33.191  22.774 -17.945  0.00  0.00     0.002 A 
ENDBRANCH   3   6
BRANCH   1  13
ATOM     13  C   UNL d   1      32.320  23.232 -21.324  0.00  0.00     0.222 C 
ATOM     14  S   UNL d   1      32.988  23.479 -21.781  0.00  0.00    -0.037 SA
BRANCH  13  15
ATOM     15  N   UNL d   1      31.541  23.315 -21.646  0.00  0.00    -0.214 NA
ATOM     16  C   UNL d   1      31.438  23.633 -22.408  0.00  0.00     0.122 C 
ENDBRANCH  13  15
ENDBRANCH   1  13
BRANCH   4  17
ATOM     17  C   UNL d   1      32.742  21.486 -20.922  0.00  0.00     0.018 A 
ATOM     18  C   UNL d   1      33.129  21.597 -21.637  0.00  0.00     0.002 A 
ATOM     19  C   UNL d   1      33.232  20.972 -22.163  0.00  0.00     0.011 A 
ATOM     20  C   UNL d   1      32.943  20.227 -21.970  0.00  0.00     0.058 A 
ATOM     21  C   UNL d   1      32.562  20.106 -21.274  0.00  0.00     0.011 A 
ATOM     22 CL   UNL d   1      33.059  19.604 -22.521  0.00  0.00    -0.082 Cl
ATOM     23  C   UNL d   1      32.458  20.732 -20.744  0.00  0.00     0.002 A 
ENDBRANCH   4  17
TORSDOF 4
ENDMDL
MODEL 2
REMARK VINA RESULT:      -0.7      2.160      4.651
REMARK  4 active torsions:
REMARK  status: ('A' for Active; 'I' for Inactive)
REMARK    1  A    between atoms: C_5  and  N_1 
REMARK    2  A    between atoms: C_7  and  C_3 
REMARK    3  A    between atoms: C_8  and  C_4 
REMARK    4  A    between atoms: N_10  and  C_5 
ROOT
ATOM      1  N   UNL d   1      32.611  21.772 -20.974  0.00  0.00    -0.203 N 
ATOM      2  N   UNL d   1      32.683  21.771 -21.799  0.00  0.00    -0.163 NA
ATOM      3  C   UNL d   1      32.834  22.518 -22.064  0.00  0.00     0.103 A 
ATOM      4  C   UNL d   1      32.722  22.553 -20.704  0.00  0.00     0.087 A 
ATOM      5  C   UNL d   1      32.860  23.021 -21.373  0.00  0.00     0.040 A 
ENDROOT
BRANCH   3   6
ATOM      6  C   UNL d   1      32.940  22.734 -22.862  0.00  0.00     0.019 A 
ATOM      7  C   UNL d   1      33.136  23.506 -23.068  0.00  0.00     0.002 A 
ATOM      8  C   UNL d   1      33.238  23.702 -23.875  0.00  0.00     0.000 A 
ATOM      9  C   UNL d   1      33.143  23.129 -24.451  0.00  0.00     0.000 A 
ATOM     10  C   UNL d   1      32.947  22.360 -24.226  0.00  0.00     0.000 A 
ATOM     11  C   UNL d   1      33.241  23.355 -25.096  0.00  0.00     0.000 C 
ATOM     12  C   UNL d   1      32.847  22.165 -23.446  0.00  0.00     0.002 A 
ENDBRANCH   3   6
BRANCH   1  13
ATOM     13  C   UNL d   1      32.454  21.104 -20.485  0.00  0.00     0.222 C 
ATOM     14  S   UNL d   1      31.651  20.903 -20.310  0.00  0.00    -0.037 SA
BRANCH  13  15
ATOM     15  N   UNL d   1      33.080  20.632 -20.166  0.00  0.00    -0.214 NA
ATOM     16  C   UNL d   1      33.114  19.818 -20.332  0.00  0.00     0.122 C 
ENDBRANCH  13  15
ENDBRANCH   1  13
BRANCH   4  17
ATOM     17  C   UNL d   1      32.704  22.841 -19.929  0.00  0.00     0.018 A 
ATOM     18  C   UNL d   1      33.240  22.576 -19.368  0.00  0.00     0.002 A 
ATOM     19  C   UNL d   1      33.221  22.863 -18.597  0.00  0.00     0.011 A 
ATOM     20  C   UNL d   1      32.658  23.422 -18.385  0.00  0.00     0.058 A 
ATOM     21  C   UNL d   1      32.127  23.690 -18.925  0.00  0.00     0.011 A 
ATOM     22 CL   UNL d   1      32.656  23.702 -17.593  0.00  0.00    -0.082 Cl
ATOM     23  C   UNL d   1      32.145  23.402 -19.701  0.00  0.00     0.002 A 
ENDBRANCH   4  17
TORSDOF 4
ENDMDL
MODEL 3
REMARK VINA RESULT:      -0.2      3.534      5.155
REMARK  4 active torsions:
REMARK  status: ('A' for Active; 'I' for Inactive)
REMARK    1  A    between atoms: C_5  and  N_1 
REMARK    2  A    between atoms: C_7  and  C_3 
REMARK    3  A    between atoms: C_8  and  C_4 
REMARK    4  A    between atoms: N_10  and  C_5 
ROOT
ATOM      1  N   UNL d   1      31.654  18.782 -23.758  0.00  0.00    -0.203 N 
ATOM      2  N   UNL d   1      31.691  19.457 -23.280  0.00  0.00    -0.163 NA
ATOM      3  C   UNL d   1      32.374  19.454 -22.851  0.00  0.00     0.103 A 
ATOM      4  C   UNL d   1      32.344  18.332 -23.626  0.00  0.00     0.087 A 
ATOM      5  C   UNL d   1      32.794  18.741 -23.065  0.00  0.00     0.040 A 
ENDROOT
BRANCH   3   6
ATOM      6  C   UNL d   1      32.603  20.044 -22.308  0.00  0.00     0.019 A 
ATOM      7  C   UNL d   1      32.445  19.963 -21.504  0.00  0.00     0.002 A 
ATOM      8  C   UNL d   1      32.684  20.566 -20.976  0.00  0.00     0.000 A 
ATOM      9  C   UNL d   1      33.071  21.229 -21.259  0.00  0.00     0.000 A 
ATOM     10  C   UNL d   1      33.221  21.293 -22.068  0.00  0.00     0.000 A 
ATOM     11  C   UNL d   1      33.241  21.689 -20.773  0.00  0.00     0.000 C 
ATOM     12  C   UNL d   1      32.993  20.712 -22.584  0.00  0.00     0.002 A 
ENDBRANCH   3   6
BRANCH   1  13
ATOM     13  C   UNL d   1      31.032  18.578 -24.289  0.00  0.00     0.222 C 
ATOM     14  S   UNL d   1      31.050  18.882 -25.079  0.00  0.00    -0.037 SA
BRANCH  13  15
ATOM     15  N   UNL d   1      30.393  18.077 -24.050  0.00  0.00    -0.214 NA
ATOM     16  C   UNL d   1      29.711  18.020 -24.523  0.00  0.00     0.122 C 
ENDBRANCH  13  15
ENDBRANCH   1  13
BRANCH   4  17
ATOM     17  C   UNL d   1      32.567  17.613 -23.969  0.00  0.00     0.018 A 
ATOM     18  C   UNL d   1      32.913  17.589 -24.712  0.00  0.00     0.002 A 
ATOM     19  C   UNL d   1      33.134  16.873 -25.053  0.00  0.00     0.011 A 
ATOM     20  C   UNL d   1      33.007  16.172 -24.643  0.00  0.00     0.058 A 
ATOM     21  C   UNL d   1      32.670  16.182 -23.914  0.00  0.00     0.011 A 
ATOM     22 CL   UNL d   1      33.240  15.453 -25.008  0.00  0.00    -0.082 Cl
ATOM     23  C   UNL d   1      32.447  16.901 -23.571  0.00  0.00     0.002 A 
ENDBRANCH   4  17
TORSDOF 4
ENDMDL
MODEL 4
REMARK VINA RESULT:       0.3      2.917      4.356
REMARK  4 active torsions:
REMARK  status: ('A' for Active; 'I' for Inactive)
REMARK    1  A    between atoms: C_5  and  N_1 
REMARK    2  A    between atoms: C_7  and  C_3 
REMARK    3  A    between atoms: C_8  and  C_4 
REMARK    4  A    between atoms: N_10  and  C_5 
ROOT
ATOM      1  N   UNL d   1      32.593  19.433 -23.433  0.00  0.00    -0.203 N 
ATOM      2  N   UNL d   1      32.645  20.152 -23.026  0.00  0.00    -0.163 NA
ATOM      3  C   UNL d   1      32.847  20.019 -22.256  0.00  0.00     0.103 A 
ATOM      4  C   UNL d   1      32.771  18.817 -22.898  0.00  0.00     0.087 A 
ATOM      5  C   UNL d   1      32.929  19.173 -22.167  0.00  0.00     0.040 A 
ENDROOT
BRANCH   3   6
ATOM      6  C   UNL d   1      32.950  20.610 -21.677  0.00  0.00     0.019 A 
ATOM      7  C   UNL d   1      32.939  20.422 -20.876  0.00  0.00     0.002 A 
ATOM      8  C   UNL d   1      33.044  21.029 -20.311  0.00  0.00     0.000 A 
ATOM      9  C   UNL d   1      33.158  21.802 -20.555  0.00  0.00     0.000 A 
ATOM     10  C   UNL d   1      33.167  21.971 -21.362  0.00  0.00     0.000 A 
ATOM     11  C   UNL d   1      33.239  22.255 -20.040  0.00  0.00     0.000 C 
ATOM     12  C   UNL d   1      33.065  21.387 -21.914  0.00  0.00     0.002 A 
ENDBRANCH   3   6
BRANCH   1  13
ATOM     13  C   UNL d   1      32.397  19.331 -24.247  0.00  0.00     0.222 C 
ATOM     14  S   UNL d   1      32.961  19.555 -24.836  0.00  0.00    -0.037 SA
BRANCH  13  15
ATOM     15  N   UNL d   1      31.651  19.010 -24.484  0.00  0.00    -0.214 NA
ATOM     16  C   UNL d   1      31.184  19.413 -25.043  0.00  0.00     0.122 C 
ENDBRANCH  13  15
ENDBRANCH   1  13
BRANCH   4  17
ATOM     17  C   UNL d   1      32.794  18.002 -23.035  0.00  0.00     0.018 A 
ATOM     18  C   UNL d   1      32.396  17.479 -22.544  0.00  0.00     0.002 A 
ATOM     19  C   UNL d   1      32.420  16.668 -22.682  0.00  0.00     0.011 A 
ATOM     20  C   UNL d   1      32.847  16.377 -23.321  0.00  0.00     0.058 A 
ATOM     21  C   UNL d   1      33.241  16.879 -23.810  0.00  0.00     0.011 A 
ATOM     22 CL   UNL d   1      32.859  15.547 -23.444  0.00  0.00    -0.082 Cl
ATOM     23  C   UNL d   1      33.218  17.694 -23.672  0.00  0.00     0.002 A 
ENDBRANCH   4  17
TORSDOF 4
ENDMDL
MODEL 5
REMARK VINA RESULT:       0.4      0.977      1.386
REMARK  4 active torsions:
REMARK  status: ('A' for Active; 'I' for Inactive)
REMARK    1  A    between atoms: C_5  and  N_1 
REMARK    2  A    between atoms: C_7  and  C_3 
REMARK    3  A    between atoms: C_8  and  C_4 
REMARK    4  A    between atoms: N_10  and  C_5 
ROOT
ATOM      1  N   UNL d   1      32.556  22.738 -21.659  0.00  0.00    -0.203 N 
ATOM      2  N   UNL d   1      32.495  23.189 -20.967  0.00  0.00    -0.163 NA
ATOM      3  C   UNL d   1      32.610  22.719 -20.321  0.00  0.00     0.103 A 
ATOM      4  C   UNL d   1      32.715  21.949 -21.442  0.00  0.00     0.087 A 
ATOM      5  C   UNL d   1      32.750  21.929 -20.615  0.00  0.00     0.040 A 
ENDROOT
BRANCH   3   6
ATOM      6  C   UNL d   1      32.590  22.978 -19.529  0.00  0.00     0.019 A 
ATOM      7  C   UNL d   1      31.966  22.773 -19.033  0.00  0.00     0.002 A 
ATOM      8  C   UNL d   1      31.964  23.042 -18.242  0.00  0.00     0.000 A 
ATOM      9  C   UNL d   1      32.580  23.505 -17.965  0.00  0.00     0.000 A 
ATOM     10  C   UNL d   1      33.197  23.701 -18.476  0.00  0.00     0.000 A 
ATOM     11  C   UNL d   1      32.519  23.695 -17.304  0.00  0.00     0.000 C 
ATOM     12  C   UNL d   1      33.203  23.443 -19.244  0.00  0.00     0.002 A 
ENDBRANCH   3   6
BRANCH   1  13
ATOM     13  C   UNL d   1      32.472  23.020 -22.449  0.00  0.00     0.222 C 
ATOM     14  S   UNL d   1      31.695  23.167 -22.752  0.00  0.00    -0.037 SA
BRANCH  13  15
ATOM     15  N   UNL d   1      33.145  23.159 -22.943  0.00  0.00    -0.214 NA
ATOM     16  C   UNL d   1      33.092  23.697 -23.576  0.00  0.00     0.122 C 
ENDBRANCH  13  15
ENDBRANCH   1  13
BRANCH   4  17
ATOM     17  C   UNL d   1      32.824  21.290 -21.930  0.00  0.00     0.018 A 
ATOM     18  C   UNL d   1      32.654  20.533 -21.662  0.00  0.00     0.002 A 
ATOM     19  C   UNL d   1      32.763  19.878 -22.148  0.00  0.00     0.011 A 
ATOM     20  C   UNL d   1      33.044  19.982 -22.913  0.00  0.00     0.058 A 
ATOM     21  C   UNL d   1      33.213  20.718 -23.188  0.00  0.00     0.011 A 
ATOM     22 CL   UNL d   1      33.147  19.301 -23.393  0.00  0.00    -0.082 Cl
ATOM     23  C   UNL d   1      33.105  21.377 -22.700  0.00  0.00     0.002 A 
ENDBRANCH   4  17
TORSDOF 4
ENDMDL
