MODEL 1
REMARK VINA RESULT:      56.7      0.000      0.000
REMARK  5 active torsions:
REMARK  status: ('A' for Active; 'I' for Inactive)
REMARK    1  A    between atoms: C_7  and  C_1 
REMARK    2  A    between atoms: C_8  and  N_2 
REMARK    3  A    between atoms: C_13  and  C_7 
REMARK    4  A    between atoms: C_14  and  C_8 
REMARK    5  A    between atoms: O_22  and  C_15 
ROOT
ATOM      1  C   UNL d   1      13.873  13.075  -2.042  0.00  0.00     0.095 A 
ATOM      2  N   UNL d   1      14.035  14.162  -2.981  0.00  0.00    -0.304 N 
ATOM      3  C   UNL d   1      13.554  12.606  -2.648  0.00  0.00     0.202 A 
ATOM      4  C   UNL d   1      14.116  13.857  -2.203  0.00  0.00     0.087 A 
ATOM      5  C   UNL d   1      13.478  12.916  -3.411  0.00  0.00     0.057 A 
ATOM      6  C   UNL d   1      13.719  13.697  -3.581  0.00  0.00     0.067 A 
ATOM      7  C   UNL d   1      13.643  14.001  -4.338  0.00  0.00     0.020 A 
ATOM      8  C   UNL d   1      13.160  12.450  -4.018  0.00  0.00     0.029 A 
ATOM      9  O   UNL d   1      13.311  11.827  -2.488  0.00  0.00    -0.286 OA
ATOM     10  C   UNL d   1      13.087  12.765  -4.778  0.00  0.00     0.094 A 
ATOM     11  C   UNL d   1      13.328  13.536  -4.937  0.00  0.00     0.026 A 
ENDROOT
BRANCH   1  12
ATOM     12  C   UNL d   1      13.949  12.769  -1.279  0.00  0.00     0.200 C 
ATOM     13  O   UNL d   1      13.295  12.708  -0.798  0.00  0.00    -0.286 OA
BRANCH  12  14
ATOM     14  C   UNL d   1      14.691  12.525  -1.012  0.00  0.00     0.039 A 
ATOM     15  C   UNL d   1      15.147  12.022  -1.477  0.00  0.00     0.003 A 
ATOM     16  C   UNL d   1      15.885  11.783  -1.205  0.00  0.00     0.000 A 
ATOM     17  C   UNL d   1      16.165  12.045  -0.473  0.00  0.00     0.000 A 
ATOM     18  C   UNL d   1      15.698  12.551  -0.015  0.00  0.00     0.000 A 
ATOM     19  C   UNL d   1      14.955  12.794  -0.282  0.00  0.00     0.003 A 
ENDBRANCH  12  14
ENDBRANCH   1  12
BRANCH   2  20
ATOM     20  C   UNL d   1      14.275  14.933  -3.140  0.00  0.00     0.080 C 
BRANCH  20  21
ATOM     21  C   UNL d   1      14.543  15.417  -2.523  0.00  0.00     0.018 A 
ATOM     22  C   UNL d   1      14.879  15.069  -1.856  0.00  0.00     0.002 A 
ATOM     23  C   UNL d   1      15.145  15.546  -1.243  0.00  0.00     0.000 A 
ATOM     24  C   UNL d   1      15.079  16.359  -1.292  0.00  0.00     0.000 A 
ATOM     25  C   UNL d   1      14.739  16.702  -1.968  0.00  0.00     0.000 A 
ATOM     26  C   UNL d   1      15.345  16.835  -0.678  0.00  0.00     0.000 C 
ATOM     27  C   UNL d   1      14.472  16.226  -2.582  0.00  0.00     0.002 A 
ENDBRANCH  20  21
ENDBRANCH   2  20
BRANCH  10  28
ATOM     28  O   UNL d   1      12.769  12.292  -5.376  0.00  0.00    -0.328 OA
ATOM     29  C   UNL d   1      13.262  11.782  -5.791  0.00  0.00     0.181 C 
ENDBRANCH  10  28
TORSDOF 5
ENDMDL
MODEL 2
REMARK VINA RESULT:      56.8      1.553      3.841
REMARK  5 active torsions:
REMARK  status: ('A' for Active; 'I' for Inactive)
REMARK    1  A    between atoms: C_7  and  C_1 
REMARK    2  A    between atoms: C_8  and  N_2 
REMARK    3  A    between atoms: C_13  and  C_7 
REMARK    4  A    between atoms: C_14  and  C_8 
REMARK    5  A    between atoms: O_22  and  C_15 
ROOT
ATOM      1  C   UNL d   1      14.917  14.137  -1.320  0.00  0.00     0.095 A 
ATOM      2  N   UNL d   1      14.445  14.874  -2.471  0.00  0.00    -0.304 N 
ATOM      3  C   UNL d   1      15.183  14.847  -0.980  0.00  0.00     0.202 A 
ATOM      4  C   UNL d   1      14.545  14.144  -2.068  0.00  0.00     0.087 A 
ATOM      5  C   UNL d   1      15.078  15.560  -1.386  0.00  0.00     0.057 A 
ATOM      6  C   UNL d   1      14.708  15.576  -2.134  0.00  0.00     0.067 A 
ATOM      7  C   UNL d   1      14.606  16.285  -2.533  0.00  0.00     0.020 A 
ATOM      8  C   UNL d   1      15.342  16.270  -1.050  0.00  0.00     0.029 A 
ATOM      9  O   UNL d   1      15.552  14.840  -0.236  0.00  0.00    -0.286 OA
ATOM     10  C   UNL d   1      15.236  16.980  -1.460  0.00  0.00     0.094 A 
ATOM     11  C   UNL d   1      14.870  16.987  -2.197  0.00  0.00     0.026 A 
ENDROOT
BRANCH   1  12
ATOM     12  C   UNL d   1      15.019  13.423  -0.918  0.00  0.00     0.200 C 
ATOM     13  O   UNL d   1      15.770  13.140  -0.778  0.00  0.00    -0.286 OA
BRANCH  12  14
ATOM     14  C   UNL d   1      14.357  13.003  -0.661  0.00  0.00     0.039 A 
ATOM     15  C   UNL d   1      14.310  12.193  -0.798  0.00  0.00     0.003 A 
ATOM     16  C   UNL d   1      13.648  11.780  -0.540  0.00  0.00     0.000 A 
ATOM     17  C   UNL d   1      13.037  12.175  -0.147  0.00  0.00     0.000 A 
ATOM     18  C   UNL d   1      13.096  12.989  -0.015  0.00  0.00     0.000 A 
ATOM     19  C   UNL d   1      13.758  13.409  -0.272  0.00  0.00     0.003 A 
ENDBRANCH  12  14
ENDBRANCH   1  12
BRANCH   2  20
ATOM     20  C   UNL d   1      14.079  14.881  -3.208  0.00  0.00     0.080 C 
BRANCH  20  21
ATOM     21  C   UNL d   1      13.805  14.173  -3.539  0.00  0.00     0.018 A 
ATOM     22  C   UNL d   1      13.044  13.914  -3.362  0.00  0.00     0.002 A 
ATOM     23  C   UNL d   1      12.770  13.212  -3.689  0.00  0.00     0.000 A 
ATOM     24  C   UNL d   1      13.248  12.772  -4.185  0.00  0.00     0.000 A 
ATOM     25  C   UNL d   1      14.015  13.040  -4.359  0.00  0.00     0.000 A 
ATOM     26  C   UNL d   1      12.974  12.070  -4.512  0.00  0.00     0.000 C 
ATOM     27  C   UNL d   1      14.290  13.742  -4.033  0.00  0.00     0.002 A 
ENDBRANCH  20  21
ENDBRANCH   2  20
BRANCH  10  28
ATOM     28  O   UNL d   1      15.502  17.682  -1.116  0.00  0.00    -0.328 OA
ATOM     29  C   UNL d   1      15.028  18.066  -0.566  0.00  0.00     0.181 C 
ENDBRANCH  10  28
TORSDOF 5
ENDMDL
MODEL 3
REMARK VINA RESULT:      57.1      1.199      3.002
REMARK  5 active torsions:
REMARK  status: ('A' for Active; 'I' for Inactive)
REMARK    1  A    between atoms: C_7  and  C_1 
REMARK    2  A    between atoms: C_8  and  N_2 
REMARK    3  A    between atoms: C_13  and  C_7 
REMARK    4  A    between atoms: C_14  and  C_8 
REMARK    5  A    between atoms: O_22  and  C_15 
ROOT
ATOM      1  C   UNL d   1      13.916  14.314  -3.212  0.00  0.00     0.095 A 
ATOM      2  N   UNL d   1      13.469  13.042  -2.690  0.00  0.00    -0.304 N 
ATOM      3  C   UNL d   1      13.738  14.054  -3.981  0.00  0.00     0.202 A 
ATOM      4  C   UNL d   1      13.783  13.810  -2.560  0.00  0.00     0.087 A 
ATOM      5  C   UNL d   1      13.429  13.296  -4.098  0.00  0.00     0.057 A 
ATOM      6  C   UNL d   1      13.293  12.786  -3.451  0.00  0.00     0.067 A 
ATOM      7  C   UNL d   1      12.987  12.036  -3.570  0.00  0.00     0.020 A 
ATOM      8  C   UNL d   1      13.251  13.034  -4.863  0.00  0.00     0.029 A 
ATOM      9  O   UNL d   1      13.871  14.556  -4.630  0.00  0.00    -0.286 OA
ATOM     10  C   UNL d   1      12.943  12.276  -4.974  0.00  0.00     0.094 A 
ATOM     11  C   UNL d   1      12.812  11.780  -4.331  0.00  0.00     0.026 A 
ENDROOT
BRANCH   1  12
ATOM     12  C   UNL d   1      14.224  15.070  -3.093  0.00  0.00     0.200 C 
ATOM     13  O   UNL d   1      14.275  15.591  -3.716  0.00  0.00    -0.286 OA
BRANCH  12  14
ATOM     14  C   UNL d   1      14.480  15.290  -2.339  0.00  0.00     0.039 A 
ATOM     15  C   UNL d   1      15.279  15.431  -2.204  0.00  0.00     0.003 A 
ATOM     16  C   UNL d   1      15.527  15.650  -1.452  0.00  0.00     0.000 A 
ATOM     17  C   UNL d   1      14.978  15.727  -0.838  0.00  0.00     0.000 A 
ATOM     18  C   UNL d   1      14.177  15.582  -0.986  0.00  0.00     0.000 A 
ATOM     19  C   UNL d   1      13.922  15.362  -1.739  0.00  0.00     0.003 A 
ENDBRANCH  12  14
ENDBRANCH   1  12
BRANCH   2  20
ATOM     20  C   UNL d   1      13.337  12.545  -2.047  0.00  0.00     0.080 C 
BRANCH  20  21
ATOM     21  C   UNL d   1      13.964  12.354  -1.539  0.00  0.00     0.018 A 
ATOM     22  C   UNL d   1      14.664  12.060  -1.857  0.00  0.00     0.002 A 
ATOM     23  C   UNL d   1      15.286  11.869  -1.356  0.00  0.00     0.000 A 
ATOM     24  C   UNL d   1      15.214  11.971  -0.549  0.00  0.00     0.000 A 
ATOM     25  C   UNL d   1      14.504  12.268  -0.235  0.00  0.00     0.000 A 
ATOM     26  C   UNL d   1      15.836  11.780  -0.048  0.00  0.00     0.000 C 
ATOM     27  C   UNL d   1      13.880  12.459  -0.735  0.00  0.00     0.002 A 
ENDBRANCH  20  21
ENDBRANCH   2  20
BRANCH  10  28
ATOM     28  O   UNL d   1      12.769  12.025  -5.741  0.00  0.00    -0.328 OA
ATOM     29  C   UNL d   1      13.379  11.779  -6.233  0.00  0.00     0.181 C 
ENDBRANCH  10  28
TORSDOF 5
ENDMDL
MODEL 4
REMARK VINA RESULT:      59.0      1.523      4.338
REMARK  5 active torsions:
REMARK  status: ('A' for Active; 'I' for Inactive)
REMARK    1  A    between atoms: C_7  and  C_1 
REMARK    2  A    between atoms: C_8  and  N_2 
REMARK    3  A    between atoms: C_13  and  C_7 
REMARK    4  A    between atoms: C_14  and  C_8 
REMARK    5  A    between atoms: O_22  and  C_15 
ROOT
ATOM      1  C   UNL d   1      14.170  14.504  -2.500  0.00  0.00     0.095 A 
ATOM      2  N   UNL d   1      13.474  13.263  -2.754  0.00  0.00    -0.304 N 
ATOM      3  C   UNL d   1      14.557  14.149  -1.856  0.00  0.00     0.202 A 
ATOM      4  C   UNL d   1      13.625  14.064  -2.955  0.00  0.00     0.087 A 
ATOM      5  C   UNL d   1      14.400  13.359  -1.668  0.00  0.00     0.057 A 
ATOM      6  C   UNL d   1      13.856  12.912  -2.117  0.00  0.00     0.067 A 
ATOM      7  C   UNL d   1      13.704  12.131  -1.927  0.00  0.00     0.020 A 
ATOM      8  C   UNL d   1      14.784  13.002  -1.026  0.00  0.00     0.029 A 
ATOM      9  O   UNL d   1      15.099  14.587  -1.404  0.00  0.00    -0.286 OA
ATOM     10  C   UNL d   1      14.624  12.214  -0.842  0.00  0.00     0.094 A 
ATOM     11  C   UNL d   1      14.086  11.780  -1.290  0.00  0.00     0.026 A 
ENDROOT
BRANCH   1  12
ATOM     12  C   UNL d   1      14.325  15.292  -2.691  0.00  0.00     0.200 C 
ATOM     13  O   UNL d   1      14.511  15.824  -2.103  0.00  0.00    -0.286 OA
BRANCH  12  14
ATOM     14  C   UNL d   1      14.288  15.534  -3.480  0.00  0.00     0.039 A 
ATOM     15  C   UNL d   1      13.612  15.380  -3.922  0.00  0.00     0.003 A 
ATOM     16  C   UNL d   1      13.582  15.623  -4.706  0.00  0.00     0.000 A 
ATOM     17  C   UNL d   1      14.224  16.018  -5.046  0.00  0.00     0.000 A 
ATOM     18  C   UNL d   1      14.899  16.166  -4.591  0.00  0.00     0.000 A 
ATOM     19  C   UNL d   1      14.935  15.924  -3.802  0.00  0.00     0.003 A 
ENDBRANCH  12  14
ENDBRANCH   1  12
BRANCH   2  20
ATOM     20  C   UNL d   1      12.936  12.829  -3.202  0.00  0.00     0.080 C 
BRANCH  20  21
ATOM     21  C   UNL d   1      13.132  12.603  -3.975  0.00  0.00     0.018 A 
ATOM     22  C   UNL d   1      13.691  12.010  -4.091  0.00  0.00     0.002 A 
ATOM     23  C   UNL d   1      13.887  11.783  -4.855  0.00  0.00     0.000 A 
ATOM     24  C   UNL d   1      13.532  12.143  -5.497  0.00  0.00     0.000 A 
ATOM     25  C   UNL d   1      12.969  12.741  -5.372  0.00  0.00     0.000 A 
ATOM     26  C   UNL d   1      13.728  11.916  -6.262  0.00  0.00     0.000 C 
ATOM     27  C   UNL d   1      12.772  12.968  -4.608  0.00  0.00     0.002 A 
ENDBRANCH  20  21
ENDBRANCH   2  20
BRANCH  10  28
ATOM     28  O   UNL d   1      15.012  11.867  -0.200  0.00  0.00    -0.328 OA
ATOM     29  C   UNL d   1      15.828  11.779  -0.224  0.00  0.00     0.181 C 
ENDBRANCH  10  28
TORSDOF 5
ENDMDL
