MODEL 1
REMARK VINA RESULT:      -8.9      0.000      0.000
REMARK  6 active torsions:
REMARK  status: ('A' for Active; 'I' for Inactive)
REMARK    1  A    between atoms: S_10  and  C_5 
REMARK    2  A    between atoms: C_11  and  N_8 
REMARK    3  A    between atoms: C_15  and  S_10 
REMARK    4  A    between atoms: C_16  and  C_11 
REMARK    5  A    between atoms: C_17  and  C_15 
REMARK    6  A    between atoms: C_23  and  C_16 
ROOT
ATOM      1  C   UNL d   1      51.658  33.436  53.090  0.00  0.00     0.174 A 
ATOM      2  C   UNL d   1      52.259  33.919  53.395  0.00  0.00     0.159 A 
ATOM      3  N   UNL d   1      51.949  32.672  53.044  0.00  0.00    -0.203 NA
ATOM      4  N   UNL d   1      50.930  33.772  52.900  0.00  0.00    -0.239 N 
ATOM      5  C   UNL d   1      52.728  32.693  53.321  0.00  0.00     0.181 A 
ATOM      6  C   UNL d   1      50.774  34.590  53.004  0.00  0.00     0.358 A 
ATOM      7  N   UNL d   1      51.374  35.073  53.309  0.00  0.00    -0.152 NA
ATOM      8  N   UNL d   1      53.001  33.443  53.563  0.00  0.00    -0.279 N 
ATOM      9  C   UNL d   1      52.131  34.738  53.510  0.00  0.00     0.302 A 
ATOM     10  O   UNL d   1      50.037  34.937  52.813  0.00  0.00    -0.244 OA
ATOM     11  O   UNL d   1      52.732  35.221  53.814  0.00  0.00    -0.263 OA
ATOM     12  C   UNL d   1      50.329  33.289  52.595  0.00  0.00     0.105 C 
ENDROOT
BRANCH   5  13
ATOM     13  S   UNL d   1      53.056  31.939  53.289  0.00  0.00    -0.049 SA
BRANCH  13  14
ATOM     14  C   UNL d   1      52.817  31.207  52.982  0.00  0.00     0.038 C 
BRANCH  14  15
ATOM     15  C   UNL d   1      53.013  30.510  53.376  0.00  0.00     0.007 A 
ATOM     16  C   UNL d   1      53.805  30.297  53.456  0.00  0.00     0.001 A 
ATOM     17  C   UNL d   1      54.000  29.599  53.851  0.00  0.00     0.000 A 
ATOM     18  C   UNL d   1      53.404  29.117  54.162  0.00  0.00     0.000 A 
ATOM     19  C   UNL d   1      52.610  29.337  54.078  0.00  0.00     0.000 A 
ATOM     20  C   UNL d   1      53.601  28.416  54.559  0.00  0.00     0.000 C 
ATOM     21  C   UNL d   1      52.419  30.036  53.683  0.00  0.00     0.001 A 
ENDBRANCH  14  15
ENDBRANCH  13  14
ENDBRANCH   5  13
BRANCH   8  22
ATOM     22  C   UNL d   1      53.767  33.540  53.850  0.00  0.00     0.082 C 
BRANCH  22  23
ATOM     23  C   UNL d   1      53.907  33.566  54.663  0.00  0.00     0.019 C 
BRANCH  23  24
ATOM     24  C   UNL d   1      54.678  33.572  54.953  0.00  0.00     0.002 C 
ATOM     25  C   UNL d   1      55.316  33.701  54.446  0.00  0.00     0.000 C 
ATOM     26  C   UNL d   1      54.821  33.450  55.759  0.00  0.00     0.000 C 
ENDBRANCH  23  24
ENDBRANCH  22  23
ENDBRANCH   8  22
TORSDOF 6
ENDMDL
MODEL 2
REMARK VINA RESULT:      -8.0      1.766      4.457
REMARK  6 active torsions:
REMARK  status: ('A' for Active; 'I' for Inactive)
REMARK    1  A    between atoms: S_10  and  C_5 
REMARK    2  A    between atoms: C_11  and  N_8 
REMARK    3  A    between atoms: C_15  and  S_10 
REMARK    4  A    between atoms: C_16  and  C_11 
REMARK    5  A    between atoms: C_17  and  C_15 
REMARK    6  A    between atoms: C_23  and  C_16 
ROOT
ATOM      1  C   UNL d   1      53.509  33.848  54.319  0.00  0.00     0.174 A 
ATOM      2  C   UNL d   1      53.701  33.075  54.088  0.00  0.00     0.159 A 
ATOM      3  N   UNL d   1      52.839  34.074  53.906  0.00  0.00    -0.203 NA
ATOM      4  N   UNL d   1      53.982  34.230  54.876  0.00  0.00    -0.239 N 
ATOM      5  C   UNL d   1      52.625  33.437  53.425  0.00  0.00     0.181 A 
ATOM      6  C   UNL d   1      54.654  33.863  55.220  0.00  0.00     0.358 A 
ATOM      7  N   UNL d   1      54.846  33.090  54.990  0.00  0.00    -0.152 NA
ATOM      8  N   UNL d   1      53.118  32.767  53.480  0.00  0.00    -0.279 N 
ATOM      9  C   UNL d   1      54.365  32.685  54.415  0.00  0.00     0.302 A 
ATOM     10  O   UNL d   1      55.137  34.245  55.786  0.00  0.00    -0.244 OA
ATOM     11  O   UNL d   1      54.557  31.912  54.184  0.00  0.00    -0.263 OA
ATOM     12  C   UNL d   1      53.790  35.003  55.107  0.00  0.00     0.105 C 
ENDROOT
BRANCH   5  13
ATOM     13  S   UNL d   1      51.951  33.628  52.992  0.00  0.00    -0.049 SA
BRANCH  13  14
ATOM     14  C   UNL d   1      51.698  34.289  52.562  0.00  0.00     0.038 C 
BRANCH  14  15
ATOM     15  C   UNL d   1      50.918  34.337  52.299  0.00  0.00     0.007 A 
ATOM     16  C   UNL d   1      50.320  34.525  52.832  0.00  0.00     0.001 A 
ATOM     17  C   UNL d   1      49.540  34.573  52.569  0.00  0.00     0.000 A 
ATOM     18  C   UNL d   1      49.361  34.432  51.773  0.00  0.00     0.000 A 
ATOM     19  C   UNL d   1      49.967  34.243  51.242  0.00  0.00     0.000 A 
ATOM     20  C   UNL d   1      48.576  34.480  51.509  0.00  0.00     0.000 C 
ATOM     21  C   UNL d   1      50.746  34.196  51.509  0.00  0.00     0.001 A 
ENDBRANCH  14  15
ENDBRANCH  13  14
ENDBRANCH   5  13
BRANCH   8  22
ATOM     22  C   UNL d   1      52.965  32.094  53.030  0.00  0.00     0.082 C 
BRANCH  22  23
ATOM     23  C   UNL d   1      52.565  31.453  53.360  0.00  0.00     0.019 C 
BRANCH  23  24
ATOM     24  C   UNL d   1      52.556  30.724  52.977  0.00  0.00     0.002 C 
ATOM     25  C   UNL d   1      52.914  30.634  52.239  0.00  0.00     0.000 C 
ATOM     26  C   UNL d   1      52.186  30.072  53.329  0.00  0.00     0.000 C 
ENDBRANCH  23  24
ENDBRANCH  22  23
ENDBRANCH   8  22
TORSDOF 6
ENDMDL
MODEL 3
REMARK VINA RESULT:      -7.5      1.856      4.365
REMARK  6 active torsions:
REMARK  status: ('A' for Active; 'I' for Inactive)
REMARK    1  A    between atoms: S_10  and  C_5 
REMARK    2  A    between atoms: C_11  and  N_8 
REMARK    3  A    between atoms: C_15  and  S_10 
REMARK    4  A    between atoms: C_16  and  C_11 
REMARK    5  A    between atoms: C_17  and  C_15 
REMARK    6  A    between atoms: C_23  and  C_16 
ROOT
ATOM      1  C   UNL d   1      52.647  31.985  53.163  0.00  0.00     0.174 A 
ATOM      2  C   UNL d   1      53.196  32.545  53.430  0.00  0.00     0.159 A 
ATOM      3  N   UNL d   1      51.970  32.385  52.935  0.00  0.00    -0.203 NA
ATOM      4  N   UNL d   1      52.852  31.186  53.169  0.00  0.00    -0.239 N 
ATOM      5  C   UNL d   1      52.110  33.189  53.065  0.00  0.00     0.181 A 
ATOM      6  C   UNL d   1      53.601  30.918  53.437  0.00  0.00     0.358 A 
ATOM      7  N   UNL d   1      54.151  31.479  53.704  0.00  0.00    -0.152 NA
ATOM      8  N   UNL d   1      52.861  33.375  53.376  0.00  0.00    -0.279 N 
ATOM      9  C   UNL d   1      53.951  32.307  53.703  0.00  0.00     0.302 A 
ATOM     10  O   UNL d   1      53.815  30.110  53.446  0.00  0.00    -0.244 OA
ATOM     11  O   UNL d   1      54.500  32.867  53.971  0.00  0.00    -0.263 OA
ATOM     12  C   UNL d   1      52.303  30.625  52.902  0.00  0.00     0.105 C 
ENDROOT
BRANCH   5  13
ATOM     13  S   UNL d   1      51.448  33.627  52.847  0.00  0.00    -0.049 SA
BRANCH  13  14
ATOM     14  C   UNL d   1      51.090  33.830  52.128  0.00  0.00     0.038 C 
BRANCH  14  15
ATOM     15  C   UNL d   1      50.359  34.212  52.123  0.00  0.00     0.007 A 
ATOM     16  C   UNL d   1      49.911  34.223  51.433  0.00  0.00     0.001 A 
ATOM     17  C   UNL d   1      49.179  34.605  51.428  0.00  0.00     0.000 A 
ATOM     18  C   UNL d   1      48.900  34.974  52.114  0.00  0.00     0.000 A 
ATOM     19  C   UNL d   1      49.356  34.959  52.805  0.00  0.00     0.000 A 
ATOM     20  C   UNL d   1      48.165  35.358  52.110  0.00  0.00     0.000 C 
ATOM     21  C   UNL d   1      50.087  34.576  52.805  0.00  0.00     0.001 A 
ENDBRANCH  14  15
ENDBRANCH  13  14
ENDBRANCH   5  13
BRANCH   8  22
ATOM     22  C   UNL d   1      53.071  34.157  53.531  0.00  0.00     0.082 C 
BRANCH  22  23
ATOM     23  C   UNL d   1      53.080  34.441  54.306  0.00  0.00     0.019 C 
BRANCH  23  24
ATOM     24  C   UNL d   1      53.156  35.247  54.454  0.00  0.00     0.002 C 
ATOM     25  C   UNL d   1      52.859  35.575  55.150  0.00  0.00     0.000 C 
ATOM     26  C   UNL d   1      53.534  35.738  53.905  0.00  0.00     0.000 C 
ENDBRANCH  23  24
ENDBRANCH  22  23
ENDBRANCH   8  22
TORSDOF 6
ENDMDL
MODEL 4
REMARK VINA RESULT:      -6.9      1.039      2.873
REMARK  6 active torsions:
REMARK  status: ('A' for Active; 'I' for Inactive)
REMARK    1  A    between atoms: S_10  and  C_5 
REMARK    2  A    between atoms: C_11  and  N_8 
REMARK    3  A    between atoms: C_15  and  S_10 
REMARK    4  A    between atoms: C_16  and  C_11 
REMARK    5  A    between atoms: C_17  and  C_15 
REMARK    6  A    between atoms: C_23  and  C_16 
ROOT
ATOM      1  C   UNL d   1      53.451  33.763  54.376  0.00  0.00     0.174 A 
ATOM      2  C   UNL d   1      52.941  34.265  53.957  0.00  0.00     0.159 A 
ATOM      3  N   UNL d   1      53.337  33.001  54.099  0.00  0.00    -0.203 NA
ATOM      4  N   UNL d   1      53.946  34.083  54.952  0.00  0.00    -0.239 N 
ATOM      5  C   UNL d   1      52.757  33.041  53.511  0.00  0.00     0.181 A 
ATOM      6  C   UNL d   1      53.952  34.903  55.131  0.00  0.00     0.358 A 
ATOM      7  N   UNL d   1      53.442  35.405  54.713  0.00  0.00    -0.152 NA
ATOM      8  N   UNL d   1      52.454  33.804  53.361  0.00  0.00    -0.279 N 
ATOM      9  C   UNL d   1      52.926  35.087  54.115  0.00  0.00     0.302 A 
ATOM     10  O   UNL d   1      54.452  35.234  55.715  0.00  0.00    -0.244 OA
ATOM     11  O   UNL d   1      52.416  35.588  53.696  0.00  0.00    -0.263 OA
ATOM     12  C   UNL d   1      54.456  33.581  55.371  0.00  0.00     0.105 C 
ENDROOT
BRANCH   5  13
ATOM     13  S   UNL d   1      52.614  32.290  53.207  0.00  0.00    -0.049 SA
BRANCH  13  14
ATOM     14  C   UNL d   1      53.077  31.707  52.844  0.00  0.00     0.038 C 
BRANCH  14  15
ATOM     15  C   UNL d   1      53.068  30.934  53.133  0.00  0.00     0.007 A 
ATOM     16  C   UNL d   1      52.373  30.495  53.097  0.00  0.00     0.001 A 
ATOM     17  C   UNL d   1      52.364  29.722  53.386  0.00  0.00     0.000 A 
ATOM     18  C   UNL d   1      53.051  29.392  53.708  0.00  0.00     0.000 A 
ATOM     19  C   UNL d   1      53.747  29.839  53.741  0.00  0.00     0.000 A 
ATOM     20  C   UNL d   1      53.042  28.615  53.998  0.00  0.00     0.000 C 
ATOM     21  C   UNL d   1      53.751  30.611  53.451  0.00  0.00     0.001 A 
ENDBRANCH  14  15
ENDBRANCH  13  14
ENDBRANCH   5  13
BRANCH   8  22
ATOM     22  C   UNL d   1      51.873  33.920  52.788  0.00  0.00     0.082 C 
BRANCH  22  23
ATOM     23  C   UNL d   1      51.075  33.924  52.998  0.00  0.00     0.019 C 
BRANCH  23  24
ATOM     24  C   UNL d   1      50.501  34.148  52.452  0.00  0.00     0.002 C 
ATOM     25  C   UNL d   1      50.659  34.121  51.643  0.00  0.00     0.000 C 
ATOM     26  C   UNL d   1      49.757  34.404  52.710  0.00  0.00     0.000 C 
ENDBRANCH  23  24
ENDBRANCH  22  23
ENDBRANCH   8  22
TORSDOF 6
ENDMDL
