MODEL 1
REMARK VINA RESULT:      -5.0      0.000      0.000
REMARK  2 active torsions:
REMARK  status: ('A' for Active; 'I' for Inactive)
REMARK    1  A    between atoms: C_4  and  N_2 
REMARK    2  A    between atoms: C_7  and  C_4 
REMARK       I    between atoms: N_8  and  C_7 
ROOT
ATOM      1  S   UNL d   1     -41.514-121.711 -53.039  0.00  0.00     0.274 S 
ATOM      2  N   UNL d   1     -41.467-122.339 -52.522  0.00  0.00    -0.192 N 
ATOM      3  C   UNL d   1     -41.508-123.045 -52.941  0.00  0.00     0.275 A 
ATOM      4  C   UNL d   1     -41.583-122.855 -53.751  0.00  0.00     0.069 A 
ATOM      5  C   UNL d   1     -41.587-122.019 -53.812  0.00  0.00     0.109 A 
ATOM      6  O   UNL d   1     -41.442-121.398 -52.277  0.00  0.00    -0.200 OA
ATOM      7  O   UNL d   1     -41.545-120.961 -53.394  0.00  0.00    -0.200 OA
ATOM      8  O   UNL d   1     -41.479-123.817 -52.611  0.00  0.00    -0.266 OA
ATOM      9  C   UNL d   1     -41.646-123.311 -54.415  0.00  0.00     0.005 A 
ATOM     10  C   UNL d   1     -41.653-121.667 -54.535  0.00  0.00     0.013 A 
ATOM     11  C   UNL d   1     -41.716-122.942 -55.167  0.00  0.00     0.000 A 
ATOM     12  C   UNL d   1     -41.719-122.123 -55.227  0.00  0.00     0.001 A 
ENDROOT
BRANCH   2  13
ATOM     13  C   UNL d   1     -41.391-122.265 -51.707  0.00  0.00     0.156 C 
BRANCH  13  14
ATOM     14  C   UNL d   1     -42.052-122.371 -51.225  0.00  0.00     0.283 C 
ATOM     15  N   UNL d   1     -41.951-122.620 -50.451  0.00  0.00    -0.271 N 
ATOM     16  C   UNL d   1     -41.208-122.770 -50.139  0.00  0.00     0.083 A 
ATOM     17  C   UNL d   1     -42.622-122.725 -49.968  0.00  0.00     0.083 A 
ATOM     18  C   UNL d   1     -41.123-123.020 -49.361  0.00  0.00     0.019 A 
ATOM     19  C   UNL d   1     -41.777-123.126 -48.877  0.00  0.00     0.003 A 
ATOM     20  C   UNL d   1     -42.527-122.975 -49.192  0.00  0.00     0.019 A 
ATOM     21  C   UNL d   1     -41.690-123.380 -48.086  0.00  0.00     0.000 C 
ATOM     22  O   UNL d   1     -42.813-122.220 -51.536  0.00  0.00    -0.265 OA
ENDBRANCH  13  14
ENDBRANCH   2  13
TORSDOF 2
ENDMDL
MODEL 2
REMARK VINA RESULT:      -4.5      0.972      4.266
REMARK  2 active torsions:
REMARK  status: ('A' for Active; 'I' for Inactive)
REMARK    1  A    between atoms: C_4  and  N_2 
REMARK    2  A    between atoms: C_7  and  C_4 
REMARK       I    between atoms: N_8  and  C_7 
ROOT
ATOM      1  S   UNL d   1     -41.424-121.992 -50.904  0.00  0.00     0.274 S 
ATOM      2  N   UNL d   1     -41.666-122.437 -51.542  0.00  0.00    -0.192 N 
ATOM      3  C   UNL d   1     -41.873-123.192 -51.288  0.00  0.00     0.275 A 
ATOM      4  C   UNL d   1     -41.757-123.223 -50.462  0.00  0.00     0.069 A 
ATOM      5  C   UNL d   1     -41.475-122.471 -50.222  0.00  0.00     0.109 A 
ATOM      6  O   UNL d   1     -41.370-121.512 -51.575  0.00  0.00    -0.200 OA
ATOM      7  O   UNL d   1     -41.151-121.394 -50.397  0.00  0.00    -0.200 OA
ATOM      8  O   UNL d   1     -42.152-123.817 -51.776  0.00  0.00    -0.266 OA
ATOM      9  C   UNL d   1     -41.864-123.810 -49.917  0.00  0.00     0.005 A 
ATOM     10  C   UNL d   1     -41.311-122.331 -49.444  0.00  0.00     0.013 A 
ATOM     11  C   UNL d   1     -41.692-123.661 -49.108  0.00  0.00     0.000 A 
ATOM     12  C   UNL d   1     -41.416-122.925 -48.872  0.00  0.00     0.001 A 
ENDROOT
BRANCH   2  13
ATOM     13  C   UNL d   1     -41.696-122.163 -52.315  0.00  0.00     0.156 C 
BRANCH  13  14
ATOM     14  C   UNL d   1     -41.515-122.676 -52.937  0.00  0.00     0.283 C 
ATOM     15  N   UNL d   1     -41.719-122.469 -53.702  0.00  0.00    -0.271 N 
ATOM     16  C   UNL d   1     -42.100-121.764 -53.873  0.00  0.00     0.083 A 
ATOM     17  C   UNL d   1     -41.534-122.991 -54.326  0.00  0.00     0.083 A 
ATOM     18  C   UNL d   1     -42.299-121.570 -54.645  0.00  0.00     0.019 A 
ATOM     19  C   UNL d   1     -42.122-122.076 -55.268  0.00  0.00     0.003 A 
ATOM     20  C   UNL d   1     -41.737-122.788 -55.096  0.00  0.00     0.019 A 
ATOM     21  C   UNL d   1     -42.324-121.879 -56.053  0.00  0.00     0.000 C 
ATOM     22  O   UNL d   1     -41.127-123.397 -52.771  0.00  0.00    -0.265 OA
ENDBRANCH  13  14
ENDBRANCH   2  13
TORSDOF 2
ENDMDL
