MODEL 1
REMARK VINA RESULT:      24.9      0.000      0.000
REMARK  1 active torsions:
REMARK  status: ('A' for Active; 'I' for Inactive)
REMARK    1  A    between atoms: C_10  and  N_2 
ROOT
ATOM      1  C   UNL d   1     -51.656  25.843  33.337  0.00  0.00     0.759 A 
ATOM      2  N   UNL d   1     -51.535  25.007  33.352  0.00  0.00    -0.103 N 
ATOM      3  N   UNL d   1     -51.006  26.346  33.341  0.00  0.00    -0.038 N 
ATOM      4  C   UNL d   1     -50.770  24.713  33.369  0.00  0.00     0.280 A 
ATOM      5  N   UNL d   1     -52.348  26.299  33.319  0.00  0.00     0.066 NA
ATOM      6  C   UNL d   1     -50.117  25.212  33.373  0.00  0.00     0.075 A 
ATOM      7  N   UNL d   1     -51.306  27.138  33.324  0.00  0.00    -0.025 NA
ATOM      8  N   UNL d   1     -52.115  27.097  33.311  0.00  0.00    -0.007 NA
ATOM      9  C   UNL d   1     -50.238  26.048  33.358  0.00  0.00     0.107 A 
ATOM     10  O   UNL d   1     -50.650  23.880  33.384  0.00  0.00    -0.266 OA
ATOM     11  C   UNL d   1     -49.352  24.918  33.390  0.00  0.00     0.006 A 
ATOM     12  C   UNL d   1     -49.588  26.552  33.361  0.00  0.00     0.020 A 
ATOM     13  C   UNL d   1     -48.698  25.418  33.394  0.00  0.00     0.000 A 
ATOM     14  C   UNL d   1     -48.818  26.254  33.379  0.00  0.00     0.002 A 
ENDROOT
BRANCH   2  15
ATOM     15  C   UNL d   1     -52.181  24.509  33.348  0.00  0.00     0.084 A 
ATOM     16  C   UNL d   1     -52.092  23.690  33.368  0.00  0.00     0.017 A 
ATOM     17  C   UNL d   1     -51.411  23.390  33.390  0.00  0.00     0.002 C 
ATOM     18  C   UNL d   1     -52.740  23.188  33.365  0.00  0.00     0.002 A 
ATOM     19  C   UNL d   1     -53.514  23.515  33.340  0.00  0.00     0.000 A 
ATOM     20  C   UNL d   1     -53.627  24.339  33.320  0.00  0.00     0.002 A 
ATOM     21  C   UNL d   1     -52.955  24.836  33.324  0.00  0.00     0.018 A 
ENDBRANCH   2  15
TORSDOF 1
ENDMDL
