MODEL 1
REMARK VINA RESULT:      14.2      0.000      0.000
REMARK  0 active torsions:
REMARK  status: ('A' for Active; 'I' for Inactive)
ROOT
ATOM      1  N   UNL d   1      14.261  13.353  -2.136  0.00  0.00    -0.242 NA
ATOM      2  N   UNL d   1      13.847  11.779  -1.967  0.00  0.00    -0.242 NA
ATOM      3  C   UNL d   1      13.680  12.177  -2.678  0.00  0.00     0.101 A 
ATOM      4  C   UNL d   1      13.885  12.957  -2.761  0.00  0.00     0.101 A 
ATOM      5  C   UNL d   1      13.310  11.779  -3.284  0.00  0.00     0.043 A 
ATOM      6  C   UNL d   1      13.727  13.362  -3.454  0.00  0.00     0.043 A 
ATOM      7  C   UNL d   1      13.353  12.974  -4.080  0.00  0.00     0.124 A 
ATOM      8  C   UNL d   1      13.143  12.177  -3.995  0.00  0.00     0.124 A 
ATOM      9  C   UNL d   1      14.221  12.177  -1.348  0.00  0.00     0.099 A 
ATOM     10  C   UNL d   1      14.427  12.956  -1.432  0.00  0.00     0.099 A 
ATOM     11  N   UNL d   1      13.190  13.362  -4.771  0.00  0.00    -0.146 N 
ATOM     12  N   UNL d   1      12.783  11.793  -4.590  0.00  0.00    -0.146 N 
ATOM     13  C   UNL d   1      14.800  13.353  -0.813  0.00  0.00     0.021 A 
ATOM     14  C   UNL d   1      14.386  11.779  -0.644  0.00  0.00     0.021 A 
ATOM     15  C   UNL d   1      14.763  12.177  -0.019  0.00  0.00     0.002 A 
ATOM     16  C   UNL d   1      14.968  12.956  -0.103  0.00  0.00     0.002 A 
ENDROOT
TORSDOF 0
ENDMDL
