MODEL 1
REMARK VINA RESULT:     112.3      0.000      0.000
REMARK  5 active torsions:
REMARK  status: ('A' for Active; 'I' for Inactive)
REMARK    1  A    between atoms: C_12  and  C_4 
REMARK    2  A    between atoms: N_10  and  C_6 
REMARK    3  A    between atoms: C_11  and  C_9 
REMARK    4  A    between atoms: C_14  and  N_10 
REMARK    5  A    between atoms: C_15  and  C_14 
ROOT
ATOM      1  C   UNL d   1      60.338  47.345  50.716  0.00  0.00     0.167 A 
ATOM      2  N   UNL d   1      59.684  47.665  51.110  0.00  0.00    -0.195 N 
ATOM      3  N   UNL d   1      59.296  46.369  51.491  0.00  0.00    -0.163 NA
ATOM      4  C   UNL d   1      60.465  46.549  50.712  0.00  0.00     0.055 A 
ATOM      5  N   UNL d   1      60.864  47.840  50.325  0.00  0.00    -0.231 NA
ATOM      6  C   UNL d   1      59.572  48.473  51.103  0.00  0.00     0.167 A 
ATOM      7  C   UNL d   1      59.939  46.054  51.104  0.00  0.00     0.104 A 
ATOM      8  C   UNL d   1      60.099  48.972  50.711  0.00  0.00     0.054 A 
ATOM      9  C   UNL d   1      60.743  48.657  50.323  0.00  0.00     0.063 A 
ATOM     10  C   UNL d   1      60.056  45.249  51.107  0.00  0.00     0.023 C 
ENDROOT
BRANCH   6  11
ATOM     11  N   UNL d   1      58.898  48.803  51.509  0.00  0.00    -0.224 NA
BRANCH  11  12
ATOM     12  C   UNL d   1      58.450  49.512  51.577  0.00  0.00     0.120 C 
BRANCH  12  13
ATOM     13  C   UNL d   1      57.664  49.552  51.278  0.00  0.00     0.101 A 
ATOM     14  N   UNL d   1      57.539  49.666  50.453  0.00  0.00    -0.242 NA
ATOM     15  C   UNL d   1      56.738  49.707  50.152  0.00  0.00     0.099 A 
ATOM     16  C   UNL d   1      56.084  49.634  50.678  0.00  0.00     0.021 A 
ATOM     17  C   UNL d   1      56.220  49.518  51.519  0.00  0.00     0.003 A 
ATOM     18  C   UNL d   1      57.008  49.479  51.809  0.00  0.00     0.021 A 
ENDBRANCH  12  13
ENDBRANCH  11  12
ENDBRANCH   6  11
BRANCH   9  19
ATOM     19  C   UNL d   1      61.289  49.169  49.916  0.00  0.00     0.036 C 
ATOM     20  C   UNL d   1      61.833  49.673  49.519  0.00  0.00     0.006 C 
ATOM     21  C   UNL d   1      61.037  49.591  49.220  0.00  0.00     0.006 C 
ATOM     22  C   UNL d   1      62.080  49.250  50.214  0.00  0.00     0.006 C 
ENDBRANCH   9  19
BRANCH   4  23
ATOM     23  C   UNL d   1      61.112  46.232  50.323  0.00  0.00     0.004 A 
ATOM     24  C   UNL d   1      61.855  46.543  50.460  0.00  0.00     0.000 A 
ATOM     25  C   UNL d   1      62.509  46.223  50.066  0.00  0.00     0.000 A 
ATOM     26  C   UNL d   1      62.401  45.602  49.546  0.00  0.00     0.000 A 
ATOM     27  C   UNL d   1      61.650  45.299  49.417  0.00  0.00     0.000 A 
ATOM     28  C   UNL d   1      61.006  45.615  49.805  0.00  0.00     0.000 A 
ENDBRANCH   4  23
TORSDOF 5
ENDMDL
