MODEL 1
REMARK VINA RESULT:      91.2      0.000      0.000
REMARK  6 active torsions:
REMARK  status: ('A' for Active; 'I' for Inactive)
REMARK    1  A    between atoms: C_11  and  N_4 
REMARK    2  A    between atoms: C_19  and  C_7 
REMARK    3  A    between atoms: C_17  and  C_11 
REMARK    4  A    between atoms: O_21  and  C_16 
REMARK    5  A    between atoms: C_20  and  C_17 
REMARK    6  A    between atoms: C_25  and  C_19 
ROOT
ATOM      1  C   UNL d   1     -58.509 -98.788 -43.115  0.00  0.00     0.137 A 
ATOM      2  C   UNL d   1     -57.796 -98.802 -42.696  0.00  0.00     0.192 A 
ATOM      3  C   UNL d   1     -58.505 -98.774 -43.940  0.00  0.00     0.272 A 
ATOM      4  N   UNL d   1     -57.790 -98.776 -44.346  0.00  0.00    -0.258 N 
ATOM      5  N   UNL d   1     -57.083 -98.804 -43.098  0.00  0.00    -0.204 NA
ATOM      6  C   UNL d   1     -59.226 -98.786 -42.706  0.00  0.00     0.205 A 
ATOM      7  C   UNL d   1     -57.075 -98.790 -43.929  0.00  0.00     0.152 A 
ATOM      8  C   UNL d   1     -59.232 -98.800 -41.892  0.00  0.00     0.062 A 
ATOM      9  O   UNL d   1     -57.806 -98.816 -41.875  0.00  0.00    -0.289 OA
ATOM     10  C   UNL d   1     -58.525 -98.814 -41.471  0.00  0.00     0.107 A 
ATOM     11  C   UNL d   1     -58.532 -98.828 -40.640  0.00  0.00     0.049 A 
ATOM     12  C   UNL d   1     -59.953 -98.798 -41.486  0.00  0.00     0.007 A 
ATOM     13  O   UNL d   1     -59.216 -98.760 -44.354  0.00  0.00    -0.266 OA
ATOM     14  O   UNL d   1     -59.932 -98.772 -43.126  0.00  0.00    -0.286 OA
ATOM     15  C   UNL d   1     -59.250 -98.826 -40.240  0.00  0.00     0.096 A 
ATOM     16  C   UNL d   1     -59.956 -98.812 -40.660  0.00  0.00     0.024 A 
ENDROOT
BRANCH   4  17
ATOM     17  C   UNL d   1     -57.787 -98.762 -45.170  0.00  0.00     0.084 C 
BRANCH  17  18
ATOM     18  C   UNL d   1     -57.979 -99.450 -45.604  0.00  0.00     0.019 C 
BRANCH  18  19
ATOM     19  C   UNL d   1     -58.565 -99.419 -46.186  0.00  0.00     0.002 A 
ATOM     20  C   UNL d   1     -59.364 -99.465 -45.962  0.00  0.00     0.000 A 
ATOM     21  C   UNL d   1     -59.959 -99.434 -46.546  0.00  0.00     0.000 A 
ATOM     22  C   UNL d   1     -59.754 -99.357 -47.346  0.00  0.00     0.000 A 
ATOM     23  C   UNL d   1     -58.949 -99.311 -47.563  0.00  0.00     0.000 A 
ATOM     24  C   UNL d   1     -58.362 -99.342 -46.981  0.00  0.00     0.000 A 
ENDBRANCH  18  19
ENDBRANCH  17  18
ENDBRANCH   4  17
BRANCH   7  25
ATOM     25  C   UNL d   1     -56.356 -98.792 -44.333  0.00  0.00     0.038 C 
BRANCH  25  26
ATOM     26  C   UNL d   1     -55.922 -99.486 -44.409  0.00  0.00     0.003 C 
ATOM     27  C   UNL d   1     -55.270 -99.611 -43.931  0.00  0.00     0.000 C 
ENDBRANCH  25  26
ENDBRANCH   7  25
BRANCH  15  28
ATOM     28  O   UNL d   1     -59.267 -98.839 -39.424  0.00  0.00    -0.328 OA
ATOM     29  C   UNL d   1     -59.852 -99.269 -39.036  0.00  0.00     0.181 C 
ENDBRANCH  15  28
TORSDOF 6
ENDMDL
