MODEL 1
REMARK VINA RESULT:      -4.5      0.000      0.000
REMARK  7 active torsions:
REMARK  status: ('A' for Active; 'I' for Inactive)
REMARK    1  A    between atoms: N_3  and  C_1 
REMARK       I    between atoms: C_8  and  N_3 
REMARK    2  A    between atoms: C_12  and  N_3 
REMARK    3  A    between atoms: S_5  and  C_11 
REMARK    4  A    between atoms: C_16  and  S_5 
REMARK    5  A    between atoms: C_9  and  C_8 
REMARK    6  A    between atoms: C_11  and  C_9 
REMARK    7  A    between atoms: C_21  and  C_12 
ROOT
ATOM      1  N   UNL d   1     -47.609  13.473  22.880  0.00  0.00    -0.253 N 
ATOM      2  C   UNL d   1     -46.988  13.770  22.402  0.00  0.00     0.267 C 
ATOM      3  O   UNL d   1     -47.109  14.452  21.960  0.00  0.00    -0.267 OA
ENDROOT
BRANCH   1   4
ATOM      4  C   UNL d   1     -48.332  13.867  22.900  0.00  0.00     0.182 A 
ATOM      5  N   UNL d   1     -48.567  14.436  23.458  0.00  0.00    -0.222 NA
ATOM      6  C   UNL d   1     -49.337  14.691  23.273  0.00  0.00     0.089 A 
ATOM      7  C   UNL d   1     -49.826  15.231  23.627  0.00  0.00     0.020 A 
ATOM      8  C   UNL d   1     -49.575  14.276  22.599  0.00  0.00     0.050 A 
ATOM      9  C   UNL d   1     -50.560  15.367  23.319  0.00  0.00     0.002 A 
ATOM     10  C   UNL d   1     -51.063  15.920  23.680  0.00  0.00     0.000 C 
ATOM     11  C   UNL d   1     -50.808  14.960  22.648  0.00  0.00     0.001 A 
ATOM     12  C   UNL d   1     -50.317  14.414  22.287  0.00  0.00     0.007 A 
ATOM     13  C   UNL d   1     -50.553  14.002  21.618  0.00  0.00     0.001 C 
ATOM     14  S   UNL d   1     -48.962  13.773  22.370  0.00  0.00    -0.048 SA
ENDBRANCH   1   4
BRANCH   1  15
ATOM     15  C   UNL d   1     -47.496  12.790  23.326  0.00  0.00     0.086 C 
BRANCH  15  16
ATOM     16  C   UNL d   1     -47.914  12.103  23.143  0.00  0.00     0.037 A 
ATOM     17  C   UNL d   1     -47.816  11.742  22.410  0.00  0.00     0.100 A 
ATOM     18  N   UNL d   1     -48.234  11.055  22.227  0.00  0.00    -0.242 NA
ATOM     19  C   UNL d   1     -48.752  10.729  22.778  0.00  0.00     0.099 A 
ATOM     20  C   UNL d   1     -48.853  11.090  23.515  0.00  0.00     0.021 A 
ATOM     21  C   UNL d   1     -48.434  11.777  23.698  0.00  0.00     0.005 A 
ENDBRANCH  15  16
ENDBRANCH   1  15
BRANCH   2  22
ATOM     22  C   UNL d   1     -46.269  13.376  22.383  0.00  0.00     0.073 C 
BRANCH  22  23
ATOM     23  C   UNL d   1     -45.636  13.702  21.960  0.00  0.00     0.104 C 
BRANCH  23  24
ATOM     24  S   UNL d   1     -44.918  13.294  21.911  0.00  0.00     0.211 S 
ATOM     25  O   UNL d   1     -44.580  13.814  22.475  0.00  0.00    -0.217 OA
ATOM     26  O   UNL d   1     -45.252  12.776  21.351  0.00  0.00    -0.217 OA
BRANCH  24  27
ATOM     27  C   UNL d   1     -44.196  12.886  21.864  0.00  0.00     0.088 A 
ATOM     28  C   UNL d   1     -44.120  12.146  22.221  0.00  0.00     0.011 A 
ATOM     29  C   UNL d   1     -43.407  11.737  22.177  0.00  0.00     0.001 A 
ATOM     30  C   UNL d   1     -42.769  12.069  21.775  0.00  0.00     0.000 A 
ATOM     31  C   UNL d   1     -42.840  12.801  21.420  0.00  0.00     0.001 A 
ATOM     32  C   UNL d   1     -43.555  13.216  21.461  0.00  0.00     0.011 A 
ENDBRANCH  24  27
ENDBRANCH  23  24
ENDBRANCH  22  23
ENDBRANCH   2  22
TORSDOF 7
ENDMDL
MODEL 2
REMARK VINA RESULT:      -3.8      1.034      5.241
REMARK  7 active torsions:
REMARK  status: ('A' for Active; 'I' for Inactive)
REMARK    1  A    between atoms: N_3  and  C_1 
REMARK       I    between atoms: C_8  and  N_3 
REMARK    2  A    between atoms: C_12  and  N_3 
REMARK    3  A    between atoms: S_5  and  C_11 
REMARK    4  A    between atoms: C_16  and  S_5 
REMARK    5  A    between atoms: C_9  and  C_8 
REMARK    6  A    between atoms: C_11  and  C_9 
REMARK    7  A    between atoms: C_21  and  C_12 
ROOT
ATOM      1  N   UNL d   1     -46.480  13.185  23.002  0.00  0.00    -0.253 N 
ATOM      2  C   UNL d   1     -46.808  13.927  22.794  0.00  0.00     0.267 C 
ATOM      3  O   UNL d   1     -46.388  14.429  22.297  0.00  0.00    -0.267 OA
ENDROOT
BRANCH   1   4
ATOM      4  C   UNL d   1     -45.742  12.968  22.707  0.00  0.00     0.182 A 
ATOM      5  N   UNL d   1     -45.324  13.349  22.099  0.00  0.00    -0.222 NA
ATOM      6  C   UNL d   1     -44.605  12.949  21.976  0.00  0.00     0.089 A 
ATOM      7  C   UNL d   1     -43.996  13.082  21.460  0.00  0.00     0.020 A 
ATOM      8  C   UNL d   1     -44.583  12.319  22.510  0.00  0.00     0.050 A 
ATOM      9  C   UNL d   1     -43.354  12.591  21.466  0.00  0.00     0.002 A 
ATOM     10  C   UNL d   1     -42.727  12.725  20.937  0.00  0.00     0.000 C 
ATOM     11  C   UNL d   1     -43.321  11.960  21.994  0.00  0.00     0.001 A 
ATOM     12  C   UNL d   1     -43.934  11.823  22.516  0.00  0.00     0.007 A 
ATOM     13  C   UNL d   1     -43.913  11.198  23.047  0.00  0.00     0.001 C 
ATOM     14  S   UNL d   1     -45.277  12.329  22.958  0.00  0.00    -0.048 SA
ENDBRANCH   1   4
BRANCH   1  15
ATOM     15  C   UNL d   1     -46.894  12.676  23.500  0.00  0.00     0.086 C 
BRANCH  15  16
ATOM     16  C   UNL d   1     -47.364  12.078  23.180  0.00  0.00     0.037 A 
ATOM     17  C   UNL d   1     -47.457  11.366  23.583  0.00  0.00     0.100 A 
ATOM     18  N   UNL d   1     -47.926  10.768  23.264  0.00  0.00    -0.242 NA
ATOM     19  C   UNL d   1     -48.303  10.881  22.541  0.00  0.00     0.099 A 
ATOM     20  C   UNL d   1     -48.212  11.595  22.134  0.00  0.00     0.021 A 
ATOM     21  C   UNL d   1     -47.743  12.194  22.454  0.00  0.00     0.005 A 
ENDBRANCH  15  16
ENDBRANCH   1  15
BRANCH   2  22
ATOM     22  C   UNL d   1     -47.542  14.142  23.089  0.00  0.00     0.073 C 
BRANCH  22  23
ATOM     23  C   UNL d   1     -47.815  14.917  22.983  0.00  0.00     0.104 C 
BRANCH  23  24
ATOM     24  S   UNL d   1     -48.626  15.076  23.004  0.00  0.00     0.211 S 
ATOM     25  O   UNL d   1     -48.557  15.538  22.308  0.00  0.00    -0.217 OA
ATOM     26  O   UNL d   1     -48.697  14.618  23.696  0.00  0.00    -0.217 OA
BRANCH  24  27
ATOM     27  C   UNL d   1     -49.441  15.238  23.023  0.00  0.00     0.088 A 
ATOM     28  C   UNL d   1     -49.758  15.671  23.650  0.00  0.00     0.011 A 
ATOM     29  C   UNL d   1     -50.564  15.833  23.673  0.00  0.00     0.001 A 
ATOM     30  C   UNL d   1     -51.055  15.562  23.069  0.00  0.00     0.000 A 
ATOM     31  C   UNL d   1     -50.745  15.133  22.447  0.00  0.00     0.001 A 
ATOM     32  C   UNL d   1     -49.934  14.967  22.418  0.00  0.00     0.011 A 
ENDBRANCH  24  27
ENDBRANCH  23  24
ENDBRANCH  22  23
ENDBRANCH   2  22
TORSDOF 7
ENDMDL
MODEL 3
REMARK VINA RESULT:      -3.5      4.176      8.141
REMARK  7 active torsions:
REMARK  status: ('A' for Active; 'I' for Inactive)
REMARK    1  A    between atoms: N_3  and  C_1 
REMARK       I    between atoms: C_8  and  N_3 
REMARK    2  A    between atoms: C_12  and  N_3 
REMARK    3  A    between atoms: S_5  and  C_11 
REMARK    4  A    between atoms: C_16  and  S_5 
REMARK    5  A    between atoms: C_9  and  C_8 
REMARK    6  A    between atoms: C_11  and  C_9 
REMARK    7  A    between atoms: C_21  and  C_12 
ROOT
ATOM      1  N   UNL d   1     -41.317  14.361  20.197  0.00  0.00    -0.253 N 
ATOM      2  C   UNL d   1     -41.812  13.699  20.331  0.00  0.00     0.267 C 
ATOM      3  O   UNL d   1     -41.850  13.102  19.767  0.00  0.00    -0.267 OA
ENDROOT
BRANCH   1   4
ATOM      4  C   UNL d   1     -40.875  14.406  19.502  0.00  0.00     0.182 A 
ATOM      5  N   UNL d   1     -40.269  13.888  19.270  0.00  0.00    -0.222 NA
ATOM      6  C   UNL d   1     -39.972  14.135  18.534  0.00  0.00     0.089 A 
ATOM      7  C   UNL d   1     -39.388  13.836  18.060  0.00  0.00     0.020 A 
ATOM      8  C   UNL d   1     -40.398  14.808  18.314  0.00  0.00     0.050 A 
ATOM      9  C   UNL d   1     -39.216  14.200  17.360  0.00  0.00     0.002 A 
ATOM     10  C   UNL d   1     -38.617  13.895  16.872  0.00  0.00     0.000 C 
ATOM     11  C   UNL d   1     -39.634  14.871  17.130  0.00  0.00     0.001 A 
ATOM     12  C   UNL d   1     -40.225  15.176  17.605  0.00  0.00     0.007 A 
ATOM     13  C   UNL d   1     -40.648  15.844  17.387  0.00  0.00     0.001 C 
ATOM     14  S   UNL d   1     -40.950  14.975  18.904  0.00  0.00    -0.048 SA
ENDBRANCH   1   4
BRANCH   1  15
ATOM     15  C   UNL d   1     -41.273  14.963  20.757  0.00  0.00     0.086 C 
BRANCH  15  16
ATOM     16  C   UNL d   1     -40.587  15.061  21.205  0.00  0.00     0.037 A 
ATOM     17  C   UNL d   1     -40.189  14.403  21.499  0.00  0.00     0.100 A 
ATOM     18  N   UNL d   1     -39.503  14.501  21.947  0.00  0.00    -0.242 NA
ATOM     19  C   UNL d   1     -39.216  15.256  22.101  0.00  0.00     0.099 A 
ATOM     20  C   UNL d   1     -39.614  15.919  21.808  0.00  0.00     0.021 A 
ATOM     21  C   UNL d   1     -40.299  15.821  21.360  0.00  0.00     0.005 A 
ENDBRANCH  15  16
ENDBRANCH   1  15
BRANCH   2  22
ATOM     22  C   UNL d   1     -42.250  13.656  21.022  0.00  0.00     0.073 C 
BRANCH  22  23
ATOM     23  C   UNL d   1     -42.565  12.927  21.262  0.00  0.00     0.104 C 
BRANCH  23  24
ATOM     24  S   UNL d   1     -43.319  12.895  21.601  0.00  0.00     0.211 S 
ATOM     25  O   UNL d   1     -43.243  12.066  21.700  0.00  0.00    -0.217 OA
ATOM     26  O   UNL d   1     -43.397  13.718  21.503  0.00  0.00    -0.217 OA
BRANCH  24  27
ATOM     27  C   UNL d   1     -44.076  12.860  21.942  0.00  0.00     0.088 A 
ATOM     28  C   UNL d   1     -44.616  13.467  21.803  0.00  0.00     0.011 A 
ATOM     29  C   UNL d   1     -45.367  13.437  22.138  0.00  0.00     0.001 A 
ATOM     30  C   UNL d   1     -45.578  12.798  22.613  0.00  0.00     0.000 A 
ATOM     31  C   UNL d   1     -45.046  12.195  22.753  0.00  0.00     0.001 A 
ATOM     32  C   UNL d   1     -44.289  12.220  22.418  0.00  0.00     0.011 A 
ENDBRANCH  24  27
ENDBRANCH  23  24
ENDBRANCH  22  23
ENDBRANCH   2  22
TORSDOF 7
ENDMDL
MODEL 4
REMARK VINA RESULT:      -3.2      8.590      9.398
REMARK  7 active torsions:
REMARK  status: ('A' for Active; 'I' for Inactive)
REMARK    1  A    between atoms: N_3  and  C_1 
REMARK       I    between atoms: C_8  and  N_3 
REMARK    2  A    between atoms: C_12  and  N_3 
REMARK    3  A    between atoms: S_5  and  C_11 
REMARK    4  A    between atoms: C_16  and  S_5 
REMARK    5  A    between atoms: C_9  and  C_8 
REMARK    6  A    between atoms: C_11  and  C_9 
REMARK    7  A    between atoms: C_21  and  C_12 
ROOT
ATOM      1  N   UNL d   1     -39.352  15.252  18.628  0.00  0.00    -0.253 N 
ATOM      2  C   UNL d   1     -39.587  15.484  19.398  0.00  0.00     0.267 C 
ATOM      3  O   UNL d   1     -40.313  15.856  19.503  0.00  0.00    -0.267 OA
ENDROOT
BRANCH   1   4
ATOM      4  C   UNL d   1     -39.849  15.399  17.987  0.00  0.00     0.182 A 
ATOM      5  N   UNL d   1     -40.679  15.417  18.003  0.00  0.00    -0.222 NA
ATOM      6  C   UNL d   1     -40.958  15.585  17.238  0.00  0.00     0.089 A 
ATOM      7  C   UNL d   1     -41.708  15.666  16.943  0.00  0.00     0.020 A 
ATOM      8  C   UNL d   1     -40.296  15.669  16.751  0.00  0.00     0.050 A 
ATOM      9  C   UNL d   1     -41.813  15.833  16.159  0.00  0.00     0.002 A 
ATOM     10  C   UNL d   1     -42.581  15.917  15.854  0.00  0.00     0.000 C 
ATOM     11  C   UNL d   1     -41.161  15.919  15.665  0.00  0.00     0.001 A 
ATOM     12  C   UNL d   1     -40.402  15.838  15.958  0.00  0.00     0.007 A 
ATOM     13  C   UNL d   1     -39.744  15.921  15.476  0.00  0.00     0.001 C 
ATOM     14  S   UNL d   1     -39.618  15.556  17.207  0.00  0.00    -0.048 SA
ENDBRANCH   1   4
BRANCH   1  15
ATOM     15  C   UNL d   1     -38.627  14.878  18.514  0.00  0.00     0.086 C 
BRANCH  15  16
ATOM     16  C   UNL d   1     -38.602  14.090  18.271  0.00  0.00     0.037 A 
ATOM     17  C   UNL d   1     -38.162  13.874  17.610  0.00  0.00     0.100 A 
ATOM     18  N   UNL d   1     -38.137  13.086  17.368  0.00  0.00    -0.242 NA
ATOM     19  C   UNL d   1     -38.553  12.513  17.787  0.00  0.00     0.099 A 
ATOM     20  C   UNL d   1     -38.997  12.726  18.452  0.00  0.00     0.021 A 
ATOM     21  C   UNL d   1     -39.021  13.515  18.694  0.00  0.00     0.005 A 
ENDBRANCH  15  16
ENDBRANCH   1  15
BRANCH   2  22
ATOM     22  C   UNL d   1     -39.091  15.337  20.033  0.00  0.00     0.073 C 
BRANCH  22  23
ATOM     23  C   UNL d   1     -39.346  15.520  20.801  0.00  0.00     0.104 C 
BRANCH  23  24
ATOM     24  S   UNL d   1     -39.008  15.134  21.450  0.00  0.00     0.211 S 
ATOM     25  O   UNL d   1     -39.699  14.668  21.538  0.00  0.00    -0.217 OA
ATOM     26  O   UNL d   1     -38.320  15.597  21.365  0.00  0.00    -0.217 OA
BRANCH  24  27
ATOM     27  C   UNL d   1     -38.671  14.746  22.103  0.00  0.00     0.088 A 
ATOM     28  C   UNL d   1     -38.279  15.184  22.682  0.00  0.00     0.011 A 
ATOM     29  C   UNL d   1     -37.944  14.804  23.331  0.00  0.00     0.001 A 
ATOM     30  C   UNL d   1     -38.000  13.985  23.400  0.00  0.00     0.000 A 
ATOM     31  C   UNL d   1     -38.387  13.549  22.829  0.00  0.00     0.001 A 
ATOM     32  C   UNL d   1     -38.726  13.925  22.174  0.00  0.00     0.011 A 
ENDBRANCH  24  27
ENDBRANCH  23  24
ENDBRANCH  22  23
ENDBRANCH   2  22
TORSDOF 7
ENDMDL
MODEL 5
REMARK VINA RESULT:      -2.9      6.946      9.711
REMARK  7 active torsions:
REMARK  status: ('A' for Active; 'I' for Inactive)
REMARK    1  A    between atoms: N_3  and  C_1 
REMARK       I    between atoms: C_8  and  N_3 
REMARK    2  A    between atoms: C_12  and  N_3 
REMARK    3  A    between atoms: S_5  and  C_11 
REMARK    4  A    between atoms: C_16  and  S_5 
REMARK    5  A    between atoms: C_9  and  C_8 
REMARK    6  A    between atoms: C_11  and  C_9 
REMARK    7  A    between atoms: C_21  and  C_12 
ROOT
ATOM      1  N   UNL d   1     -39.747  15.129  17.908  0.00  0.00    -0.253 N 
ATOM      2  C   UNL d   1     -39.134  14.665  17.575  0.00  0.00     0.267 C 
ATOM      3  O   UNL d   1     -38.886  13.984  17.962  0.00  0.00    -0.267 OA
ENDROOT
BRANCH   1   4
ATOM      4  C   UNL d   1     -40.093  14.897  18.620  0.00  0.00     0.182 A 
ATOM      5  N   UNL d   1     -40.697  14.334  18.712  0.00  0.00    -0.222 NA
ATOM      6  C   UNL d   1     -40.881  14.269  19.520  0.00  0.00     0.089 A 
ATOM      7  C   UNL d   1     -41.419  13.811  19.916  0.00  0.00     0.020 A 
ATOM      8  C   UNL d   1     -40.388  14.795  19.925  0.00  0.00     0.050 A 
ATOM      9  C   UNL d   1     -41.476  13.867  20.720  0.00  0.00     0.002 A 
ATOM     10  C   UNL d   1     -42.027  13.397  21.128  0.00  0.00     0.000 C 
ATOM     11  C   UNL d   1     -40.991  14.387  21.134  0.00  0.00     0.001 A 
ATOM     12  C   UNL d   1     -40.446  14.851  20.738  0.00  0.00     0.007 A 
ATOM     13  C   UNL d   1     -39.957  15.374  21.139  0.00  0.00     0.001 C 
ATOM     14  S   UNL d   1     -39.906  15.179  19.376  0.00  0.00    -0.048 SA
ENDBRANCH   1   4
BRANCH   1  15
ATOM     15  C   UNL d   1     -40.002  15.813  17.527  0.00  0.00     0.086 C 
BRANCH  15  16
ATOM     16  C   UNL d   1     -40.711  15.811  17.106  0.00  0.00     0.037 A 
ATOM     17  C   UNL d   1     -41.425  15.703  17.501  0.00  0.00     0.100 A 
ATOM     18  N   UNL d   1     -42.135  15.701  17.081  0.00  0.00    -0.242 NA
ATOM     19  C   UNL d   1     -42.131  15.808  16.266  0.00  0.00     0.099 A 
ATOM     20  C   UNL d   1     -41.416  15.917  15.865  0.00  0.00     0.021 A 
ATOM     21  C   UNL d   1     -40.706  15.919  16.286  0.00  0.00     0.005 A 
ENDBRANCH  15  16
ENDBRANCH   1  15
BRANCH   2  22
ATOM     22  C   UNL d   1     -38.792  14.898  16.867  0.00  0.00     0.073 C 
BRANCH  22  23
ATOM     23  C   UNL d   1     -38.137  14.481  16.574  0.00  0.00     0.104 C 
BRANCH  23  24
ATOM     24  S   UNL d   1     -38.088  14.305  15.767  0.00  0.00     0.211 S 
ATOM     25  O   UNL d   1     -38.036  15.123  15.589  0.00  0.00    -0.217 OA
ATOM     26  O   UNL d   1     -38.140  13.493  15.943  0.00  0.00    -0.217 OA
BRANCH  24  27
ATOM     27  C   UNL d   1     -38.038  14.131  14.957  0.00  0.00     0.088 A 
ATOM     28  C   UNL d   1     -38.029  13.345  14.707  0.00  0.00     0.011 A 
ATOM     29  C   UNL d   1     -37.979  13.167  13.905  0.00  0.00     0.001 A 
ATOM     30  C   UNL d   1     -37.940  13.777  13.352  0.00  0.00     0.000 A 
ATOM     31  C   UNL d   1     -37.949  14.556  13.595  0.00  0.00     0.001 A 
ATOM     32  C   UNL d   1     -37.998  14.741  14.401  0.00  0.00     0.011 A 
ENDBRANCH  24  27
ENDBRANCH  23  24
ENDBRANCH  22  23
ENDBRANCH   2  22
TORSDOF 7
ENDMDL
MODEL 6
REMARK VINA RESULT:      -2.7      7.648      9.703
REMARK  7 active torsions:
REMARK  status: ('A' for Active; 'I' for Inactive)
REMARK    1  A    between atoms: N_3  and  C_1 
REMARK       I    between atoms: C_8  and  N_3 
REMARK    2  A    between atoms: C_12  and  N_3 
REMARK    3  A    between atoms: S_5  and  C_11 
REMARK    4  A    between atoms: C_16  and  S_5 
REMARK    5  A    between atoms: C_9  and  C_8 
REMARK    6  A    between atoms: C_11  and  C_9 
REMARK    7  A    between atoms: C_21  and  C_12 
ROOT
ATOM      1  N   UNL d   1     -39.069  15.057  19.425  0.00  0.00    -0.253 N 
ATOM      2  C   UNL d   1     -38.559  14.566  18.977  0.00  0.00     0.267 C 
ATOM      3  O   UNL d   1     -38.015  14.087  19.365  0.00  0.00    -0.267 OA
ENDROOT
BRANCH   1   4
ATOM      4  C   UNL d   1     -39.019  15.055  20.247  0.00  0.00     0.182 A 
ATOM      5  N   UNL d   1     -39.017  15.722  20.742  0.00  0.00    -0.222 NA
ATOM      6  C   UNL d   1     -38.959  15.470  21.532  0.00  0.00     0.089 A 
ATOM      7  C   UNL d   1     -38.934  15.881  22.229  0.00  0.00     0.020 A 
ATOM      8  C   UNL d   1     -38.925  14.644  21.522  0.00  0.00     0.050 A 
ATOM      9  C   UNL d   1     -38.875  15.479  22.928  0.00  0.00     0.002 A 
ATOM     10  C   UNL d   1     -38.849  15.899  23.644  0.00  0.00     0.000 C 
ATOM     11  C   UNL d   1     -38.841  14.657  22.929  0.00  0.00     0.001 A 
ATOM     12  C   UNL d   1     -38.866  14.238  22.228  0.00  0.00     0.007 A 
ATOM     13  C   UNL d   1     -38.833  13.418  22.217  0.00  0.00     0.001 C 
ATOM     14  S   UNL d   1     -38.962  14.389  20.737  0.00  0.00    -0.048 SA
ENDBRANCH   1   4
BRANCH   1  15
ATOM     15  C   UNL d   1     -39.616  15.540  19.043  0.00  0.00     0.086 C 
BRANCH  15  16
ATOM     16  C   UNL d   1     -40.408  15.313  19.002  0.00  0.00     0.037 A 
ATOM     17  C   UNL d   1     -40.998  15.884  18.937  0.00  0.00     0.100 A 
ATOM     18  N   UNL d   1     -41.790  15.657  18.896  0.00  0.00    -0.242 NA
ATOM     19  C   UNL d   1     -41.993  14.860  18.919  0.00  0.00     0.099 A 
ATOM     20  C   UNL d   1     -41.402  14.285  18.984  0.00  0.00     0.021 A 
ATOM     21  C   UNL d   1     -40.610  14.511  19.025  0.00  0.00     0.005 A 
ENDBRANCH  15  16
ENDBRANCH   1  15
BRANCH   2  22
ATOM     22  C   UNL d   1     -38.610  14.569  18.159  0.00  0.00     0.073 C 
BRANCH  22  23
ATOM     23  C   UNL d   1     -37.943  14.374  17.707  0.00  0.00     0.104 C 
BRANCH  23  24
ATOM     24  S   UNL d   1     -38.009  14.292  16.886  0.00  0.00     0.211 S 
ATOM     25  O   UNL d   1     -37.994  13.458  16.965  0.00  0.00    -0.217 OA
ATOM     26  O   UNL d   1     -38.025  15.121  16.806  0.00  0.00    -0.217 OA
BRANCH  24  27
ATOM     27  C   UNL d   1     -38.076  14.207  16.063  0.00  0.00     0.088 A 
ATOM     28  C   UNL d   1     -38.169  13.455  15.735  0.00  0.00     0.011 A 
ATOM     29  C   UNL d   1     -38.236  13.366  14.920  0.00  0.00     0.001 A 
ATOM     30  C   UNL d   1     -38.210  14.029  14.431  0.00  0.00     0.000 A 
ATOM     31  C   UNL d   1     -38.118  14.774  14.752  0.00  0.00     0.001 A 
ATOM     32  C   UNL d   1     -38.050  14.870  15.571  0.00  0.00     0.011 A 
ENDBRANCH  24  27
ENDBRANCH  23  24
ENDBRANCH  22  23
ENDBRANCH   2  22
TORSDOF 7
ENDMDL
MODEL 7
REMARK VINA RESULT:      -1.7      1.936      2.898
REMARK  7 active torsions:
REMARK  status: ('A' for Active; 'I' for Inactive)
REMARK    1  A    between atoms: N_3  and  C_1 
REMARK       I    between atoms: C_8  and  N_3 
REMARK    2  A    between atoms: C_12  and  N_3 
REMARK    3  A    between atoms: S_5  and  C_11 
REMARK    4  A    between atoms: C_16  and  S_5 
REMARK    5  A    between atoms: C_9  and  C_8 
REMARK    6  A    between atoms: C_11  and  C_9 
REMARK    7  A    between atoms: C_21  and  C_12 
ROOT
ATOM      1  N   UNL d   1     -47.388  12.764  22.946  0.00  0.00    -0.253 N 
ATOM      2  C   UNL d   1     -47.056  12.015  22.773  0.00  0.00     0.267 C 
ATOM      3  O   UNL d   1     -47.504  11.458  22.368  0.00  0.00    -0.267 OA
ENDROOT
BRANCH   1   4
ATOM      4  C   UNL d   1     -48.159  12.934  22.707  0.00  0.00     0.182 A 
ATOM      5  N   UNL d   1     -48.391  13.229  21.967  0.00  0.00    -0.222 NA
ATOM      6  C   UNL d   1     -49.218  13.319  21.961  0.00  0.00     0.089 A 
ATOM      7  C   UNL d   1     -49.728  13.582  21.390  0.00  0.00     0.020 A 
ATOM      8  C   UNL d   1     -49.493  13.078  22.702  0.00  0.00     0.050 A 
ATOM      9  C   UNL d   1     -50.520  13.610  21.545  0.00  0.00     0.002 A 
ATOM     10  C   UNL d   1     -51.046  13.880  20.961  0.00  0.00     0.000 C 
ATOM     11  C   UNL d   1     -50.806  13.372  22.279  0.00  0.00     0.001 A 
ATOM     12  C   UNL d   1     -50.295  13.106  22.858  0.00  0.00     0.007 A 
ATOM     13  C   UNL d   1     -50.567  12.866  23.594  0.00  0.00     0.001 C 
ATOM     14  S   UNL d   1     -48.848  12.842  23.159  0.00  0.00    -0.048 SA
ENDBRANCH   1   4
BRANCH   1  15
ATOM     15  C   UNL d   1     -46.946  13.328  23.351  0.00  0.00     0.086 C 
BRANCH  15  16
ATOM     16  C   UNL d   1     -46.578  13.940  22.938  0.00  0.00     0.037 A 
ATOM     17  C   UNL d   1     -46.864  14.710  22.999  0.00  0.00     0.100 A 
ATOM     18  N   UNL d   1     -46.497  15.322  22.586  0.00  0.00    -0.242 NA
ATOM     19  C   UNL d   1     -45.844  15.165  22.111  0.00  0.00     0.099 A 
ATOM     20  C   UNL d   1     -45.554  14.393  22.048  0.00  0.00     0.021 A 
ATOM     21  C   UNL d   1     -45.921  13.780  22.461  0.00  0.00     0.005 A 
ENDBRANCH  15  16
ENDBRANCH   1  15
BRANCH   2  22
ATOM     22  C   UNL d   1     -46.289  11.848  23.011  0.00  0.00     0.073 C 
BRANCH  22  23
ATOM     23  C   UNL d   1     -46.160  11.304  23.623  0.00  0.00     0.104 C 
BRANCH  23  24
ATOM     24  S   UNL d   1     -45.482  10.830  23.618  0.00  0.00     0.211 S 
ATOM     25  O   UNL d   1     -45.959  10.145  23.541  0.00  0.00    -0.217 OA
ATOM     26  O   UNL d   1     -45.008  11.510  23.695  0.00  0.00    -0.217 OA
BRANCH  24  27
ATOM     27  C   UNL d   1     -44.803  10.352  23.613  0.00  0.00     0.088 A 
ATOM     28  C   UNL d   1     -44.879   9.533  23.676  0.00  0.00     0.011 A 
ATOM     29  C   UNL d   1     -44.209   9.055  23.672  0.00  0.00     0.001 A 
ATOM     30  C   UNL d   1     -43.463   9.396  23.603  0.00  0.00     0.000 A 
ATOM     31  C   UNL d   1     -43.384  10.206  23.540  0.00  0.00     0.001 A 
ATOM     32  C   UNL d   1     -44.054  10.692  23.544  0.00  0.00     0.011 A 
ENDBRANCH  24  27
ENDBRANCH  23  24
ENDBRANCH  22  23
ENDBRANCH   2  22
TORSDOF 7
ENDMDL
