MODEL 1
REMARK VINA RESULT:      -6.6      0.000      0.000
REMARK  1 active torsions:
REMARK  status: ('A' for Active; 'I' for Inactive)
REMARK    1  A    between atoms: C_2  and  C_1 
ROOT
ATOM      1  C   UNL d   1      57.236  -0.127  31.263  0.00  0.00     0.089 A 
ATOM      2  C   UNL d   1      57.063  -0.928  31.312  0.00  0.00     0.302 A 
ATOM      3  C   UNL d   1      56.923   0.405  31.821  0.00  0.00     0.009 A 
ATOM      4  O   UNL d   1      56.575  -1.206  31.918  0.00  0.00    -0.273 OA
ATOM      5  C   UNL d   1      56.435   0.116  32.425  0.00  0.00     0.023 A 
ATOM      6  C   UNL d   1      56.262  -0.685  32.473  0.00  0.00     0.103 A 
ATOM      7  O   UNL d   1      57.385  -1.441  30.747  0.00  0.00    -0.259 OA
ATOM      8  C   UNL d   1      56.122   0.648  32.981  0.00  0.00     0.002 A 
ATOM      9  C   UNL d   1      55.775  -0.963  33.078  0.00  0.00     0.025 A 
ATOM     10  C   UNL d   1      55.635   0.359  33.584  0.00  0.00     0.000 A 
ATOM     11  C   UNL d   1      55.462  -0.442  33.633  0.00  0.00     0.002 A 
ENDROOT
BRANCH   1  12
ATOM     12  C   UNL d   1      57.728   0.150  30.651  0.00  0.00     0.140 A 
ATOM     13  S   UNL d   1      58.544   0.200  30.565  0.00  0.00    -0.024 SA
ATOM     14  C   UNL d   1      58.697   0.525  29.833  0.00  0.00     0.236 A 
ATOM     15  N   UNL d   1      59.448   0.682  29.501  0.00  0.00    -0.118 N 
ATOM     16  N   UNL d   1      57.999   0.680  29.458  0.00  0.00    -0.119 NA
ATOM     17  N   UNL d   1      57.386   0.452  29.956  0.00  0.00    -0.139 NA
ENDBRANCH   1  12
TORSDOF 1
ENDMDL
MODEL 2
REMARK VINA RESULT:      -6.2      2.397      3.644
REMARK  1 active torsions:
REMARK  status: ('A' for Active; 'I' for Inactive)
REMARK    1  A    between atoms: C_2  and  C_1 
ROOT
ATOM      1  C   UNL d   1      56.201  -0.164  32.673  0.00  0.00     0.089 A 
ATOM      2  C   UNL d   1      56.231  -0.971  32.522  0.00  0.00     0.302 A 
ATOM      3  C   UNL d   1      56.623   0.369  32.194  0.00  0.00     0.009 A 
ATOM      4  O   UNL d   1      56.685  -1.253  31.891  0.00  0.00    -0.273 OA
ATOM      5  C   UNL d   1      57.075   0.076  31.564  0.00  0.00     0.023 A 
ATOM      6  C   UNL d   1      57.105  -0.731  31.414  0.00  0.00     0.103 A 
ATOM      7  O   UNL d   1      55.804  -1.485  33.010  0.00  0.00    -0.259 OA
ATOM      8  C   UNL d   1      57.496   0.609  31.087  0.00  0.00     0.002 A 
ATOM      9  C   UNL d   1      57.557  -1.013  30.784  0.00  0.00     0.025 A 
ATOM     10  C   UNL d   1      57.947   0.315  30.458  0.00  0.00     0.000 A 
ATOM     11  C   UNL d   1      57.977  -0.491  30.307  0.00  0.00     0.002 A 
ENDROOT
BRANCH   1  12
ATOM     12  C   UNL d   1      55.743   0.117  33.310  0.00  0.00     0.140 A 
ATOM     13  S   UNL d   1      55.887   0.190  34.115  0.00  0.00    -0.024 SA
ATOM     14  C   UNL d   1      55.219   0.507  34.459  0.00  0.00     0.236 A 
ATOM     15  N   UNL d   1      55.105   0.682  35.269  0.00  0.00    -0.118 N 
ATOM     16  N   UNL d   1      54.660   0.634  33.890  0.00  0.00    -0.119 NA
ATOM     17  N   UNL d   1      54.973   0.396  33.168  0.00  0.00    -0.139 NA
ENDBRANCH   1  12
TORSDOF 1
ENDMDL
MODEL 3
REMARK VINA RESULT:      -5.5      1.229      1.634
REMARK  1 active torsions:
REMARK  status: ('A' for Active; 'I' for Inactive)
REMARK    1  A    between atoms: C_2  and  C_1 
ROOT
ATOM      1  C   UNL d   1      57.012   0.292  32.232  0.00  0.00     0.089 A 
ATOM      2  C   UNL d   1      57.504   0.551  32.836  0.00  0.00     0.302 A 
ATOM      3  C   UNL d   1      56.203   0.159  32.376  0.00  0.00     0.009 A 
ATOM      4  O   UNL d   1      57.192   0.681  33.591  0.00  0.00    -0.273 OA
ATOM      5  C   UNL d   1      55.901   0.292  33.136  0.00  0.00     0.023 A 
ATOM      6  C   UNL d   1      56.393   0.552  33.740  0.00  0.00     0.103 A 
ATOM      7  O   UNL d   1      58.305   0.677  32.672  0.00  0.00    -0.259 OA
ATOM      8  C   UNL d   1      55.094   0.160  33.279  0.00  0.00     0.002 A 
ATOM      9  C   UNL d   1      56.084   0.682  34.494  0.00  0.00     0.025 A 
ATOM     10  C   UNL d   1      54.793   0.293  34.038  0.00  0.00     0.000 A 
ATOM     11  C   UNL d   1      55.285   0.553  34.642  0.00  0.00     0.002 A 
ENDROOT
BRANCH   1  12
ATOM     12  C   UNL d   1      57.328   0.162  31.473  0.00  0.00     0.140 A 
ATOM     13  S   UNL d   1      57.639   0.663  30.901  0.00  0.00    -0.024 SA
ATOM     14  C   UNL d   1      57.862   0.205  30.264  0.00  0.00     0.236 A 
ATOM     15  N   UNL d   1      58.206   0.471  29.550  0.00  0.00    -0.118 N 
ATOM     16  N   UNL d   1      57.700  -0.570  30.422  0.00  0.00    -0.119 NA
ATOM     17  N   UNL d   1      57.367  -0.612  31.172  0.00  0.00    -0.139 NA
ENDBRANCH   1  12
TORSDOF 1
ENDMDL
MODEL 4
REMARK VINA RESULT:      -5.0      1.179      1.363
REMARK  1 active torsions:
REMARK  status: ('A' for Active; 'I' for Inactive)
REMARK    1  A    between atoms: C_2  and  C_1 
ROOT
ATOM      1  C   UNL d   1      57.623  -0.132  31.220  0.00  0.00     0.089 A 
ATOM      2  C   UNL d   1      58.051   0.349  31.730  0.00  0.00     0.302 A 
ATOM      3  C   UNL d   1      56.908  -0.476  31.468  0.00  0.00     0.009 A 
ATOM      4  O   UNL d   1      57.768   0.490  32.494  0.00  0.00    -0.273 OA
ATOM      5  C   UNL d   1      56.633  -0.328  32.235  0.00  0.00     0.023 A 
ATOM      6  C   UNL d   1      57.060   0.153  32.745  0.00  0.00     0.103 A 
ATOM      7  O   UNL d   1      58.761   0.682  31.464  0.00  0.00    -0.259 OA
ATOM      8  C   UNL d   1      55.919  -0.672  32.482  0.00  0.00     0.002 A 
ATOM      9  C   UNL d   1      56.779   0.295  33.507  0.00  0.00     0.025 A 
ATOM     10  C   UNL d   1      55.644  -0.523  33.248  0.00  0.00     0.000 A 
ATOM     11  C   UNL d   1      56.072  -0.043  33.758  0.00  0.00     0.002 A 
ENDROOT
BRANCH   1  12
ATOM     12  C   UNL d   1      57.911  -0.273  30.451  0.00  0.00     0.140 A 
ATOM     13  S   UNL d   1      58.384  -0.862  30.128  0.00  0.00    -0.024 SA
ATOM     14  C   UNL d   1      58.477  -0.698  29.335  0.00  0.00     0.236 A 
ATOM     15  N   UNL d   1      58.913  -1.144  28.778  0.00  0.00    -0.118 N 
ATOM     16  N   UNL d   1      58.074  -0.023  29.152  0.00  0.00    -0.119 NA
ATOM     17  N   UNL d   1      57.717   0.254  29.838  0.00  0.00    -0.139 NA
ENDBRANCH   1  12
TORSDOF 1
ENDMDL
