MODEL 1
REMARK VINA RESULT:      35.7      0.000      0.000
REMARK  3 active torsions:
REMARK  status: ('A' for Active; 'I' for Inactive)
REMARK    1  A    between atoms: C_4  and  C_1 
REMARK       I    between atoms: C_5  and  N_6 
REMARK    2  A    between atoms: C_8  and  C_5 
REMARK    3  A    between atoms: N_6  and  C_7 
ROOT
ATOM      1  C   UNL d   1      14.177  12.514  -1.626  0.00  0.00     0.042 A 
ATOM      2  C   UNL d   1      14.575  13.163  -1.305  0.00  0.00     0.087 A 
ATOM      3  C   UNL d   1      14.095  11.826  -1.178  0.00  0.00     0.004 A 
ATOM      4  C   UNL d   1      14.889  13.128  -0.543  0.00  0.00     0.019 A 
ATOM      5  C   UNL d   1      14.404  11.781  -0.418  0.00  0.00     0.000 A 
ATOM      6  C   UNL d   1      14.804  12.438  -0.099  0.00  0.00     0.002 A 
ENDROOT
BRANCH   1   7
ATOM      7  C   UNL d   1      13.865  12.552  -2.389  0.00  0.00     0.112 A 
ATOM      8  N   UNL d   1      13.370  13.099  -2.741  0.00  0.00    -0.238 NA
ATOM      9  C   UNL d   1      13.239  12.856  -3.517  0.00  0.00     0.088 A 
ATOM     10  C   UNL d   1      12.796  13.177  -4.127  0.00  0.00     0.020 A 
ATOM     11  C   UNL d   1      13.654  12.160  -3.636  0.00  0.00     0.049 A 
ATOM     12  C   UNL d   1      12.769  12.800  -4.862  0.00  0.00     0.002 A 
ATOM     13  C   UNL d   1      13.185  12.104  -4.980  0.00  0.00     0.001 A 
ATOM     14  C   UNL d   1      13.628  11.783  -4.370  0.00  0.00     0.008 A 
ATOM     15  S   UNL d   1      14.044  11.974  -2.930  0.00  0.00    -0.066 SA
ENDBRANCH   1   7
BRANCH   2  16
ATOM     16  N   UNL d   1      14.658  13.851  -1.752  0.00  0.00    -0.206 NA
ATOM     17  C   UNL d   1      14.720  14.590  -1.371  0.00  0.00     0.302 C 
ATOM     18  O   UNL d   1      14.698  14.629  -0.549  0.00  0.00    -0.263 OA
BRANCH  17  19
ATOM     19  C   UNL d   1      14.803  15.280  -1.815  0.00  0.00     0.158 A 
ATOM     20  O   UNL d   1      14.685  15.440  -2.620  0.00  0.00    -0.300 OA
ATOM     21  C   UNL d   1      14.855  16.229  -2.742  0.00  0.00     0.123 A 
ATOM     22  C   UNL d   1      15.079  16.572  -2.026  0.00  0.00     0.029 A 
ATOM     23  C   UNL d   1      15.045  15.979  -1.452  0.00  0.00     0.032 A 
ENDBRANCH  17  19
ENDBRANCH   2  16
TORSDOF 3
ENDMDL
