MODEL 1
REMARK VINA RESULT:      43.9      0.000      0.000
REMARK  4 active torsions:
REMARK  status: ('A' for Active; 'I' for Inactive)
REMARK    1  A    between atoms: C_6  and  C_1 
REMARK       I    between atoms: N_9  and  C_6 
REMARK       I    between atoms: C_8  and  N_10 
REMARK    2  A    between atoms: C_11  and  C_8 
REMARK    3  A    between atoms: N_10  and  N_9 
REMARK    4  A    between atoms: O_22  and  C_13 
ROOT
ATOM      1  C   UNL d   1      46.220 -18.572  41.302  0.00  0.00     0.123 A 
ATOM      2  C   UNL d   1      46.454 -19.343  41.479  0.00  0.00     0.305 A 
ATOM      3  O   UNL d   1      46.519 -19.579  42.249  0.00  0.00    -0.271 OA
ATOM      4  C   UNL d   1      46.058 -18.057  41.900  0.00  0.00     0.012 A 
ATOM      5  C   UNL d   1      46.352 -19.052  42.885  0.00  0.00     0.125 A 
ATOM      6  C   UNL d   1      46.119 -18.280  42.709  0.00  0.00     0.025 A 
ATOM      7  O   UNL d   1      46.618 -19.862  40.882  0.00  0.00    -0.259 OA
ATOM      8  C   UNL d   1      46.416 -19.283  43.677  0.00  0.00     0.117 A 
ATOM      9  C   UNL d   1      45.955 -17.761  43.328  0.00  0.00     0.002 A 
ATOM     10  C   UNL d   1      46.016 -17.987  44.123  0.00  0.00     0.002 A 
ATOM     11  C   UNL d   1      46.250 -18.759  44.300  0.00  0.00     0.026 A 
ENDROOT
BRANCH   1  12
ATOM     12  C   UNL d   1      46.148 -18.311  40.527  0.00  0.00     0.302 C 
ATOM     13  N   UNL d   1      45.573 -17.738  40.364  0.00  0.00    -0.102 NA
ATOM     14  O   UNL d   1      46.646 -18.619  39.915  0.00  0.00    -0.263 OA
BRANCH  13  15
ATOM     15  N   UNL d   1      45.482 -17.465  39.606  0.00  0.00    -0.102 NA
ATOM     16  C   UNL d   1      44.828 -16.989  39.420  0.00  0.00     0.297 C 
ATOM     17  O   UNL d   1      44.280 -16.795  39.986  0.00  0.00    -0.264 OA
BRANCH  16  18
ATOM     18  C   UNL d   1      44.730 -16.710  38.658  0.00  0.00     0.059 A 
ATOM     19  C   UNL d   1      44.017 -16.785  38.271  0.00  0.00     0.005 A 
ATOM     20  C   UNL d   1      43.913 -16.508  37.508  0.00  0.00     0.007 A 
ATOM     21  C   UNL d   1      44.526 -16.144  37.110  0.00  0.00     0.035 A 
ATOM     22  C   UNL d   1      45.263 -16.063  37.503  0.00  0.00     0.007 A 
ATOM     23 BR   UNL d   1      44.416 -15.868  36.345  0.00  0.00    -0.049 Br
ATOM     24  C   UNL d   1      45.367 -16.341  38.266  0.00  0.00     0.005 A 
ENDBRANCH  16  18
ENDBRANCH  13  15
ENDBRANCH   1  12
BRANCH   8  25
ATOM     25  O   UNL d   1      46.647 -20.046  43.852  0.00  0.00    -0.326 OA
ATOM     26  C   UNL d   1      46.580 -20.330  44.607  0.00  0.00     0.181 C 
ENDBRANCH   8  25
TORSDOF 4
ENDMDL
