MODEL 1
REMARK VINA RESULT:      -8.5      0.000      0.000
REMARK  3 active torsions:
REMARK  status: ('A' for Active; 'I' for Inactive)
REMARK    1  A    between atoms: S_15  and  C_3 
REMARK    2  A    between atoms: C_5  and  C_14 
REMARK    3  A    between atoms: C_14  and  S_15 
ROOT
ATOM      1  N   UNL d   1     -47.245  13.489  23.012  0.00  0.00    -0.263 N 
ATOM      2  C   UNL d   1     -46.443  13.684  22.873  0.00  0.00     0.202 A 
ATOM      3  C   UNL d   1     -47.681  14.172  22.849  0.00  0.00     0.202 A 
ATOM      4  N   UNL d   1     -46.438  14.485  22.631  0.00  0.00    -0.121 NA
ATOM      5  S   UNL d   1     -45.965  13.014  23.028  0.00  0.00    -0.047 SA
ATOM      6  N   UNL d   1     -47.156  14.780  22.613  0.00  0.00    -0.121 NA
ATOM      7  C   UNL d   1     -47.251  12.704  23.250  0.00  0.00     0.074 A 
ATOM      8  C   UNL d   1     -46.472  12.415  23.260  0.00  0.00     0.049 A 
ATOM      9  C   UNL d   1     -47.873  12.204  23.463  0.00  0.00     0.018 A 
ATOM     10  C   UNL d   1     -46.332  11.632  23.483  0.00  0.00     0.008 A 
ATOM     11  C   UNL d   1     -47.736  11.415  23.688  0.00  0.00     0.002 A 
ATOM     12  C   UNL d   1     -46.956  11.125  23.698  0.00  0.00     0.001 A 
ENDROOT
BRANCH   3  13
ATOM     13  S   UNL d   1     -48.560  14.260  22.909  0.00  0.00    -0.048 SA
BRANCH  13  14
ATOM     14  C   UNL d   1     -48.932  14.890  22.547  0.00  0.00     0.042 C 
BRANCH  14  15
ATOM     15  C   UNL d   1     -49.746  14.910  22.534  0.00  0.00     0.051 A 
ATOM     16  C   UNL d   1     -50.317  14.522  22.081  0.00  0.00     0.127 A 
ATOM     17  O   UNL d   1     -51.053  14.763  22.317  0.00  0.00    -0.211 OA
ATOM     18  C   UNL d   1     -50.149  13.943  21.447  0.00  0.00     0.029 C 
ATOM     19  N   UNL d   1     -50.964  15.283  22.896  0.00  0.00    -0.126 NA
ATOM     20  C   UNL d   1     -50.159  15.393  23.052  0.00  0.00     0.111 A 
ATOM     21  C   UNL d   1     -49.820  15.888  23.615  0.00  0.00     0.023 C 
ENDBRANCH  14  15
ENDBRANCH  13  14
ENDBRANCH   3  13
TORSDOF 3
ENDMDL
MODEL 2
REMARK VINA RESULT:      -8.3      1.139      2.065
REMARK  3 active torsions:
REMARK  status: ('A' for Active; 'I' for Inactive)
REMARK    1  A    between atoms: S_15  and  C_3 
REMARK    2  A    between atoms: C_5  and  C_14 
REMARK    3  A    between atoms: C_14  and  S_15 
ROOT
ATOM      1  N   UNL d   1     -48.055  12.731  23.222  0.00  0.00    -0.263 N 
ATOM      2  C   UNL d   1     -47.950  11.940  23.473  0.00  0.00     0.202 A 
ATOM      3  C   UNL d   1     -48.861  12.894  23.302  0.00  0.00     0.202 A 
ATOM      4  N   UNL d   1     -48.708  11.664  23.694  0.00  0.00    -0.121 NA
ATOM      5  S   UNL d   1     -47.141  11.735  23.408  0.00  0.00    -0.047 SA
ATOM      6  N   UNL d   1     -49.249  12.213  23.598  0.00  0.00    -0.121 NA
ATOM      7  C   UNL d   1     -47.312  13.003  23.005  0.00  0.00     0.074 A 
ATOM      8  C   UNL d   1     -46.755  12.396  23.118  0.00  0.00     0.049 A 
ATOM      9  C   UNL d   1     -47.063  13.734  22.715  0.00  0.00     0.018 A 
ATOM     10  C   UNL d   1     -45.961  12.535  22.938  0.00  0.00     0.008 A 
ATOM     11  C   UNL d   1     -46.264  13.877  22.532  0.00  0.00     0.002 A 
ATOM     12  C   UNL d   1     -45.706  13.270  22.645  0.00  0.00     0.001 A 
ENDROOT
BRANCH   3  13
ATOM     13  S   UNL d   1     -49.264  13.658  23.110  0.00  0.00    -0.048 SA
BRANCH  13  14
ATOM     14  C   UNL d   1     -50.062  13.667  22.939  0.00  0.00     0.042 C 
BRANCH  14  15
ATOM     15  C   UNL d   1     -50.396  14.355  22.659  0.00  0.00     0.051 A 
ATOM     16  C   UNL d   1     -50.431  15.128  22.946  0.00  0.00     0.127 A 
ATOM     17  O   UNL d   1     -50.842  15.589  22.423  0.00  0.00    -0.211 OA
ATOM     18  C   UNL d   1     -50.077  15.402  23.698  0.00  0.00     0.029 C 
ATOM     19  N   UNL d   1     -51.064  15.136  21.824  0.00  0.00    -0.126 NA
ATOM     20  C   UNL d   1     -50.799  14.361  21.945  0.00  0.00     0.111 A 
ATOM     21  C   UNL d   1     -50.910  13.710  21.454  0.00  0.00     0.023 C 
ENDBRANCH  14  15
ENDBRANCH  13  14
ENDBRANCH   3  13
TORSDOF 3
ENDMDL
MODEL 3
REMARK VINA RESULT:      -7.8      2.154      4.458
REMARK  3 active torsions:
REMARK  status: ('A' for Active; 'I' for Inactive)
REMARK    1  A    between atoms: S_15  and  C_3 
REMARK    2  A    between atoms: C_5  and  C_14 
REMARK    3  A    between atoms: C_14  and  S_15 
ROOT
ATOM      1  N   UNL d   1     -49.526  12.482  22.990  0.00  0.00    -0.263 N 
ATOM      2  C   UNL d   1     -50.198  12.055  23.247  0.00  0.00     0.202 A 
ATOM      3  C   UNL d   1     -48.868  12.066  23.265  0.00  0.00     0.202 A 
ATOM      4  N   UNL d   1     -49.905  11.395  23.670  0.00  0.00    -0.121 NA
ATOM      5  S   UNL d   1     -50.891  12.447  22.986  0.00  0.00    -0.047 SA
ATOM      6  N   UNL d   1     -49.128  11.392  23.687  0.00  0.00    -0.121 NA
ATOM      7  C   UNL d   1     -49.812  13.130  22.575  0.00  0.00     0.074 A 
ATOM      8  C   UNL d   1     -50.644  13.108  22.573  0.00  0.00     0.049 A 
ATOM      9  C   UNL d   1     -49.421  13.748  22.191  0.00  0.00     0.018 A 
ATOM     10  C   UNL d   1     -51.064  13.705  22.187  0.00  0.00     0.008 A 
ATOM     11  C   UNL d   1     -49.842  14.350  21.802  0.00  0.00     0.002 A 
ATOM     12  C   UNL d   1     -50.673  14.329  21.800  0.00  0.00     0.001 A 
ENDROOT
BRANCH   3  13
ATOM     13  S   UNL d   1     -48.019  12.286  23.142  0.00  0.00    -0.048 SA
BRANCH  13  14
ATOM     14  C   UNL d   1     -47.459  12.077  23.698  0.00  0.00     0.042 C 
BRANCH  14  15
ATOM     15  C   UNL d   1     -46.671  12.187  23.522  0.00  0.00     0.051 A 
ATOM     16  C   UNL d   1     -46.221  12.848  23.319  0.00  0.00     0.127 A 
ATOM     17  O   UNL d   1     -45.452  12.623  23.203  0.00  0.00    -0.211 OA
ATOM     18  C   UNL d   1     -46.531  13.663  23.242  0.00  0.00     0.029 C 
ATOM     19  N   UNL d   1     -45.406  11.851  23.325  0.00  0.00    -0.126 NA
ATOM     20  C   UNL d   1     -46.151  11.553  23.525  0.00  0.00     0.111 A 
ATOM     21  C   UNL d   1     -46.351  10.773  23.698  0.00  0.00     0.023 C 
ENDBRANCH  14  15
ENDBRANCH  13  14
ENDBRANCH   3  13
TORSDOF 3
ENDMDL
MODEL 4
REMARK VINA RESULT:      -5.9      8.708     10.115
REMARK  3 active torsions:
REMARK  status: ('A' for Active; 'I' for Inactive)
REMARK    1  A    between atoms: S_15  and  C_3 
REMARK    2  A    between atoms: C_5  and  C_14 
REMARK    3  A    between atoms: C_14  and  S_15 
ROOT
ATOM      1  N   UNL d   1     -39.802  14.739  18.213  0.00  0.00    -0.263 N 
ATOM      2  C   UNL d   1     -40.359  14.460  17.655  0.00  0.00     0.202 A 
ATOM      3  C   UNL d   1     -40.066  14.483  18.953  0.00  0.00     0.202 A 
ATOM      4  N   UNL d   1     -40.938  14.044  18.095  0.00  0.00    -0.121 NA
ATOM      5  S   UNL d   1     -40.127  14.700  16.888  0.00  0.00    -0.047 SA
ATOM      6  N   UNL d   1     -40.776  14.051  18.854  0.00  0.00    -0.121 NA
ATOM      7  C   UNL d   1     -39.234  15.147  17.784  0.00  0.00     0.074 A 
ATOM      8  C   UNL d   1     -39.432  15.123  16.976  0.00  0.00     0.049 A 
ATOM      9  C   UNL d   1     -38.550  15.544  18.022  0.00  0.00     0.018 A 
ATOM     10  C   UNL d   1     -38.942  15.497  16.426  0.00  0.00     0.008 A 
ATOM     11  C   UNL d   1     -38.055  15.922  17.472  0.00  0.00     0.002 A 
ATOM     12  C   UNL d   1     -38.253  15.898  16.664  0.00  0.00     0.001 A 
ENDROOT
BRANCH   3  13
ATOM     13  S   UNL d   1     -39.671  14.633  19.731  0.00  0.00    -0.048 SA
BRANCH  13  14
ATOM     14  C   UNL d   1     -40.090  14.536  20.425  0.00  0.00     0.042 C 
BRANCH  14  15
ATOM     15  C   UNL d   1     -39.732  14.735  21.130  0.00  0.00     0.051 A 
ATOM     16  C   UNL d   1     -39.127  14.395  21.575  0.00  0.00     0.127 A 
ATOM     17  O   UNL d   1     -39.000  14.841  22.239  0.00  0.00    -0.211 OA
ATOM     18  C   UNL d   1     -38.691  13.667  21.360  0.00  0.00     0.029 C 
ATOM     19  N   UNL d   1     -39.502  15.443  22.225  0.00  0.00    -0.126 NA
ATOM     20  C   UNL d   1     -39.970  15.401  21.544  0.00  0.00     0.111 A 
ATOM     21  C   UNL d   1     -40.566  15.920  21.311  0.00  0.00     0.023 C 
ENDBRANCH  14  15
ENDBRANCH  13  14
ENDBRANCH   3  13
TORSDOF 3
ENDMDL
MODEL 5
REMARK VINA RESULT:      -5.7      8.687     10.360
REMARK  3 active torsions:
REMARK  status: ('A' for Active; 'I' for Inactive)
REMARK    1  A    between atoms: S_15  and  C_3 
REMARK    2  A    between atoms: C_5  and  C_14 
REMARK    3  A    between atoms: C_14  and  S_15 
ROOT
ATOM      1  N   UNL d   1     -40.124  14.671  19.473  0.00  0.00    -0.263 N 
ATOM      2  C   UNL d   1     -40.836  14.388  19.809  0.00  0.00     0.202 A 
ATOM      3  C   UNL d   1     -40.111  14.398  18.693  0.00  0.00     0.202 A 
ATOM      4  N   UNL d   1     -41.219  13.953  19.205  0.00  0.00    -0.121 NA
ATOM      5  S   UNL d   1     -40.888  14.644  20.604  0.00  0.00    -0.047 SA
ATOM      6  N   UNL d   1     -40.804  13.952  18.549  0.00  0.00    -0.121 NA
ATOM      7  C   UNL d   1     -39.747  15.098  20.063  0.00  0.00     0.074 A 
ATOM      8  C   UNL d   1     -40.212  15.082  20.753  0.00  0.00     0.049 A 
ATOM      9  C   UNL d   1     -39.030  15.507  20.067  0.00  0.00     0.018 A 
ATOM     10  C   UNL d   1     -39.949  15.475  21.429  0.00  0.00     0.008 A 
ATOM     11  C   UNL d   1     -38.762  15.904  20.747  0.00  0.00     0.002 A 
ATOM     12  C   UNL d   1     -39.227  15.888  21.437  0.00  0.00     0.001 A 
ENDROOT
BRANCH   3  13
ATOM     13  S   UNL d   1     -39.473  14.545  18.096  0.00  0.00    -0.048 SA
BRANCH  13  14
ATOM     14  C   UNL d   1     -39.622  14.422  17.303  0.00  0.00     0.042 C 
BRANCH  14  15
ATOM     15  C   UNL d   1     -39.010  14.509  16.772  0.00  0.00     0.051 A 
ATOM     16  C   UNL d   1     -38.382  14.025  16.545  0.00  0.00     0.127 A 
ATOM     17  O   UNL d   1     -37.940  14.406  15.984  0.00  0.00    -0.211 OA
ATOM     18  C   UNL d   1     -38.221  13.226  16.864  0.00  0.00     0.029 C 
ATOM     19  N   UNL d   1     -38.267  15.105  15.852  0.00  0.00    -0.126 NA
ATOM     20  C   UNL d   1     -38.937  15.196  16.331  0.00  0.00     0.111 A 
ATOM     21  C   UNL d   1     -39.443  15.844  16.369  0.00  0.00     0.023 C 
ENDBRANCH  14  15
ENDBRANCH  13  14
ENDBRANCH   3  13
TORSDOF 3
ENDMDL
