MODEL 1
REMARK VINA RESULT:      79.4      0.000      0.000
REMARK  6 active torsions:
REMARK  status: ('A' for Active; 'I' for Inactive)
REMARK    1  A    between atoms: C_19  and  N_1 
REMARK    2  A    between atoms: S_12  and  C_2 
REMARK       I    between atoms: N_7  and  C_10 
REMARK    3  A    between atoms: C_10  and  C_23 
REMARK    4  A    between atoms: C_23  and  S_12 
REMARK    5  A    between atoms: O_26  and  C_17 
REMARK    6  A    between atoms: O_27  and  C_18 
ROOT
ATOM      1  S   UNL d   1      14.454  14.845  -2.890  0.00  0.00    -0.044 SA
ENDROOT
BRANCH   1   2
ATOM      2  C   UNL d   1      14.184  14.071  -2.943  0.00  0.00     0.183 A 
ATOM      3  N   UNL d   1      14.272  13.555  -2.301  0.00  0.00    -0.254 N 
ATOM      4  C   UNL d   1      14.001  12.777  -2.352  0.00  0.00     0.271 A 
ATOM      5  C   UNL d   1      13.641  12.511  -3.047  0.00  0.00     0.115 A 
ATOM      6  O   UNL d   1      14.092  12.264  -1.703  0.00  0.00    -0.266 OA
ATOM      7  C   UNL d   1      13.554  13.030  -3.691  0.00  0.00     0.192 A 
ATOM      8  C   UNL d   1      13.320  11.780  -3.264  0.00  0.00     0.130 A 
ATOM      9  N   UNL d   1      13.180  12.613  -4.297  0.00  0.00    -0.128 NA
ATOM     10  N   UNL d   1      13.824  13.804  -3.638  0.00  0.00    -0.201 NA
ATOM     11  N   UNL d   1      13.039  11.854  -4.036  0.00  0.00    -0.145 NA
BRANCH   3  12
ATOM     12  C   UNL d   1      14.630  13.820  -1.609  0.00  0.00     0.069 A 
ATOM     13  C   UNL d   1      14.375  14.520  -1.256  0.00  0.00     0.018 A 
ATOM     14  C   UNL d   1      14.737  14.788  -0.557  0.00  0.00     0.002 A 
ATOM     15  C   UNL d   1      15.350  14.353  -0.219  0.00  0.00     0.000 A 
ATOM     16  C   UNL d   1      15.603  13.656  -0.571  0.00  0.00     0.002 A 
ATOM     17  C   UNL d   1      15.241  13.388  -1.271  0.00  0.00     0.018 A 
ENDBRANCH   3  12
ENDBRANCH   1   2
BRANCH   1  18
ATOM     18  C   UNL d   1      14.396  15.348  -3.542  0.00  0.00     0.099 C 
BRANCH  18  19
ATOM     19  C   UNL d   1      14.717  16.103  -3.507  0.00  0.00     0.271 C 
ATOM     20  N   UNL d   1      14.529  16.662  -4.090  0.00  0.00    -0.272 N 
ATOM     21  C   UNL d   1      14.850  17.421  -4.057  0.00  0.00     0.083 A 
ATOM     22  C   UNL d   1      14.020  16.457  -4.704  0.00  0.00     0.083 A 
ATOM     23  C   UNL d   1      14.662  17.972  -4.637  0.00  0.00     0.020 A 
ATOM     24  C   UNL d   1      14.982  18.727  -4.602  0.00  0.00     0.028 A 
ATOM     25  C   UNL d   1      14.153  17.767  -5.250  0.00  0.00     0.005 A 
ATOM     26  C   UNL d   1      14.794  19.286  -5.185  0.00  0.00     0.116 A 
ATOM     27  C   UNL d   1      14.285  19.081  -5.799  0.00  0.00     0.116 A 
ATOM     28  C   UNL d   1      13.964  18.318  -5.829  0.00  0.00     0.026 A 
ATOM     29  C   UNL d   1      13.832  17.012  -5.284  0.00  0.00     0.019 A 
ATOM     30  O   UNL d   1      15.226  16.303  -2.892  0.00  0.00    -0.266 OA
BRANCH  26  31
ATOM     31  O   UNL d   1      15.116  20.045  -5.152  0.00  0.00    -0.326 OA
ATOM     32  C   UNL d   1      15.890  20.182  -5.394  0.00  0.00     0.181 C 
ENDBRANCH  26  31
BRANCH  27  33
ATOM     33  O   UNL d   1      14.090  19.633  -6.389  0.00  0.00    -0.326 OA
ATOM     34  C   UNL d   1      13.478  20.170  -6.269  0.00  0.00     0.181 C 
ENDBRANCH  27  33
ENDBRANCH  18  19
ENDBRANCH   1  18
TORSDOF 6
ENDMDL
