MODEL 1
REMARK VINA RESULT:      -8.9      0.000      0.000
REMARK  3 active torsions:
REMARK  status: ('A' for Active; 'I' for Inactive)
REMARK    1  A    between atoms: C_8  and  C_1 
REMARK    2  A    between atoms: C_9  and  C_4 
REMARK    3  A    between atoms: O_20  and  C_8 
ROOT
ATOM      1  C   UNL d   1     -47.178  13.666  22.895  0.00  0.00     0.107 A 
ATOM      2  C   UNL d   1     -47.071  14.491  22.838  0.00  0.00     0.208 A 
ATOM      3  C   UNL d   1     -48.607  13.854  22.944  0.00  0.00     0.062 A 
ATOM      4  C   UNL d   1     -47.961  13.357  22.948  0.00  0.00     0.020 A 
ATOM      5  C   UNL d   1     -48.500  14.679  22.888  0.00  0.00     0.101 A 
ATOM      6  O   UNL d   1     -47.748  15.006  22.835  0.00  0.00    -0.288 OA
ATOM      7  C   UNL d   1     -49.360  13.541  22.996  0.00  0.00     0.194 A 
ATOM      8  C   UNL d   1     -49.148  15.190  22.883  0.00  0.00     0.002 A 
ATOM      9  C   UNL d   1     -49.906  14.864  22.936  0.00  0.00     0.042 A 
ATOM     10  C   UNL d   1     -50.013  14.039  22.992  0.00  0.00     0.019 A 
ATOM     11  O   UNL d   1     -49.467  12.712  23.052  0.00  0.00    -0.287 OA
ATOM     12  N   UNL d   1     -46.291  14.814  22.785  0.00  0.00    -0.121 N 
ATOM     13  C   UNL d   1     -50.697  15.048  22.958  0.00  0.00     0.009 C 
ATOM     14  C   UNL d   1     -49.977  15.686  22.887  0.00  0.00     0.009 C 
ENDROOT
BRANCH   4  15
ATOM     15  C   UNL d   1     -48.075  12.554  23.003  0.00  0.00     0.030 A 
ATOM     16  S   UNL d   1     -48.182  11.854  22.371  0.00  0.00    -0.086 SA
ATOM     17  C   UNL d   1     -48.273  11.158  23.089  0.00  0.00     0.035 A 
ATOM     18  C   UNL d   1     -48.211  11.544  23.684  0.00  0.00     0.007 A 
ATOM     19  C   UNL d   1     -48.111  12.248  23.637  0.00  0.00     0.007 A 
ENDBRANCH   4  15
BRANCH   1  20
ATOM     20  C   UNL d   1     -46.504  13.166  22.898  0.00  0.00     0.299 C 
ATOM     21  O   UNL d   1     -46.171  12.893  23.617  0.00  0.00    -0.259 OA
BRANCH  20  22
ATOM     22  O   UNL d   1     -46.149  12.928  22.194  0.00  0.00    -0.296 OA
ATOM     23  C   UNL d   1     -45.314  12.804  22.144  0.00  0.00     0.185 C 
ENDBRANCH  20  22
ENDBRANCH   1  20
TORSDOF 3
ENDMDL
MODEL 2
REMARK VINA RESULT:      -8.9      1.454      3.558
REMARK  3 active torsions:
REMARK  status: ('A' for Active; 'I' for Inactive)
REMARK    1  A    between atoms: C_8  and  C_1 
REMARK    2  A    between atoms: C_9  and  C_4 
REMARK    3  A    between atoms: O_20  and  C_8 
ROOT
ATOM      1  C   UNL d   1     -49.114  12.769  22.855  0.00  0.00     0.107 A 
ATOM      2  C   UNL d   1     -48.642  12.082  22.866  0.00  0.00     0.208 A 
ATOM      3  C   UNL d   1     -47.928  13.583  22.752  0.00  0.00     0.062 A 
ATOM      4  C   UNL d   1     -48.739  13.523  22.797  0.00  0.00     0.020 A 
ATOM      5  C   UNL d   1     -47.456  12.895  22.763  0.00  0.00     0.101 A 
ATOM      6  O   UNL d   1     -47.795  12.150  22.818  0.00  0.00    -0.288 OA
ATOM      7  C   UNL d   1     -47.577  14.319  22.696  0.00  0.00     0.194 A 
ATOM      8  C   UNL d   1     -46.634  12.946  22.717  0.00  0.00     0.002 A 
ATOM      9  C   UNL d   1     -46.288  13.696  22.661  0.00  0.00     0.042 A 
ATOM     10  C   UNL d   1     -46.761  14.383  22.650  0.00  0.00     0.019 A 
ATOM     11  O   UNL d   1     -48.052  15.010  22.685  0.00  0.00    -0.287 OA
ATOM     12  N   UNL d   1     -49.006  11.320  22.924  0.00  0.00    -0.121 N 
ATOM     13  C   UNL d   1     -45.578  14.085  22.604  0.00  0.00     0.009 C 
ATOM     14  C   UNL d   1     -45.686  13.129  22.658  0.00  0.00     0.009 C 
ENDROOT
BRANCH   4  15
ATOM     15  C   UNL d   1     -49.191  14.198  22.786  0.00  0.00     0.030 A 
ATOM     16  S   UNL d   1     -49.704  14.643  22.123  0.00  0.00    -0.086 SA
ATOM     17  C   UNL d   1     -49.979  15.371  22.757  0.00  0.00     0.035 A 
ATOM     18  C   UNL d   1     -49.653  15.178  23.360  0.00  0.00     0.007 A 
ATOM     19  C   UNL d   1     -49.256  14.586  23.372  0.00  0.00     0.007 A 
ENDBRANCH   4  15
BRANCH   1  20
ATOM     20  C   UNL d   1     -49.949  12.693  22.903  0.00  0.00     0.299 C 
ATOM     21  O   UNL d   1     -50.426  12.732  22.215  0.00  0.00    -0.259 OA
BRANCH  20  22
ATOM     22  O   UNL d   1     -50.324  12.578  23.626  0.00  0.00    -0.296 OA
ATOM     23  C   UNL d   1     -51.064  12.173  23.677  0.00  0.00     0.185 C 
ENDBRANCH  20  22
ENDBRANCH   1  20
TORSDOF 3
ENDMDL
MODEL 3
REMARK VINA RESULT:      -8.7      1.386      2.447
REMARK  3 active torsions:
REMARK  status: ('A' for Active; 'I' for Inactive)
REMARK    1  A    between atoms: C_8  and  C_1 
REMARK    2  A    between atoms: C_9  and  C_4 
REMARK    3  A    between atoms: O_20  and  C_8 
ROOT
ATOM      1  C   UNL d   1     -47.354  12.802  23.121  0.00  0.00     0.107 A 
ATOM      2  C   UNL d   1     -47.382  12.032  23.440  0.00  0.00     0.208 A 
ATOM      3  C   UNL d   1     -48.795  12.844  23.095  0.00  0.00     0.062 A 
ATOM      4  C   UNL d   1     -48.078  13.201  22.951  0.00  0.00     0.020 A 
ATOM      5  C   UNL d   1     -48.823  12.074  23.415  0.00  0.00     0.101 A 
ATOM      6  O   UNL d   1     -48.134  11.663  23.589  0.00  0.00    -0.288 OA
ATOM      7  C   UNL d   1     -49.489  13.242  22.927  0.00  0.00     0.194 A 
ATOM      8  C   UNL d   1     -49.545  11.704  23.565  0.00  0.00     0.002 A 
ATOM      9  C   UNL d   1     -50.242  12.115  23.390  0.00  0.00     0.042 A 
ATOM     10  C   UNL d   1     -50.214  12.885  23.071  0.00  0.00     0.019 A 
ATOM     11  O   UNL d   1     -49.461  14.016  22.606  0.00  0.00    -0.287 OA
ATOM     12  N   UNL d   1     -46.664  11.620  23.615  0.00  0.00    -0.121 N 
ATOM     13  C   UNL d   1     -51.052  12.065  23.407  0.00  0.00     0.009 C 
ATOM     14  C   UNL d   1     -50.445  11.375  23.697  0.00  0.00     0.009 C 
ENDROOT
BRANCH   4  15
ATOM     15  C   UNL d   1     -48.061  13.952  22.640  0.00  0.00     0.030 A 
ATOM     16  S   UNL d   1     -47.987  14.305  21.762  0.00  0.00    -0.086 SA
ATOM     17  C   UNL d   1     -48.030  15.253  22.089  0.00  0.00     0.035 A 
ATOM     18  C   UNL d   1     -48.092  15.168  22.793  0.00  0.00     0.007 A 
ATOM     19  C   UNL d   1     -48.107  14.510  23.068  0.00  0.00     0.007 A 
ENDBRANCH   4  15
BRANCH   1  20
ATOM     20  C   UNL d   1     -46.608  13.158  22.977  0.00  0.00     0.299 C 
ATOM     21  O   UNL d   1     -46.247  13.652  23.550  0.00  0.00    -0.259 OA
BRANCH  20  22
ATOM     22  O   UNL d   1     -46.208  13.034  22.268  0.00  0.00    -0.296 OA
ATOM     23  C   UNL d   1     -45.377  13.174  22.203  0.00  0.00     0.185 C 
ENDBRANCH  20  22
ENDBRANCH   1  20
TORSDOF 3
ENDMDL
MODEL 4
REMARK VINA RESULT:      -8.5      1.381      2.293
REMARK  3 active torsions:
REMARK  status: ('A' for Active; 'I' for Inactive)
REMARK    1  A    between atoms: C_8  and  C_1 
REMARK    2  A    between atoms: C_9  and  C_4 
REMARK    3  A    between atoms: O_20  and  C_8 
ROOT
ATOM      1  C   UNL d   1     -48.642  12.473  23.197  0.00  0.00     0.107 A 
ATOM      2  C   UNL d   1     -49.412  12.334  23.487  0.00  0.00     0.208 A 
ATOM      3  C   UNL d   1     -48.919  13.888  23.141  0.00  0.00     0.062 A 
ATOM      4  C   UNL d   1     -48.406  13.265  23.027  0.00  0.00     0.020 A 
ATOM      5  C   UNL d   1     -49.688  13.748  23.431  0.00  0.00     0.101 A 
ATOM      6  O   UNL d   1     -49.944  12.988  23.605  0.00  0.00    -0.288 OA
ATOM      7  C   UNL d   1     -48.677  14.650  22.971  0.00  0.00     0.194 A 
ATOM      8  C   UNL d   1     -50.215  14.372  23.550  0.00  0.00     0.002 A 
ATOM      9  C   UNL d   1     -49.961  15.140  23.375  0.00  0.00     0.042 A 
ATOM     10  C   UNL d   1     -49.191  15.279  23.086  0.00  0.00     0.019 A 
ATOM     11  O   UNL d   1     -47.904  14.790  22.680  0.00  0.00    -0.287 OA
ATOM     12  N   UNL d   1     -49.661  11.545  23.663  0.00  0.00    -0.121 N 
ATOM     13  C   UNL d   1     -50.189  15.919  23.371  0.00  0.00     0.009 C 
ATOM     14  C   UNL d   1     -50.740  15.178  23.649  0.00  0.00     0.009 C 
ENDROOT
BRANCH   4  15
ATOM     15  C   UNL d   1     -47.658  13.411  22.744  0.00  0.00     0.030 A 
ATOM     16  S   UNL d   1     -47.243  13.334  21.894  0.00  0.00    -0.086 SA
ATOM     17  C   UNL d   1     -46.360  13.660  22.243  0.00  0.00     0.035 A 
ATOM     18  C   UNL d   1     -46.503  13.777  22.931  0.00  0.00     0.007 A 
ATOM     19  C   UNL d   1     -47.158  13.650  23.181  0.00  0.00     0.007 A 
ENDBRANCH   4  15
BRANCH   1  20
ATOM     20  C   UNL d   1     -48.124  11.823  23.084  0.00  0.00     0.299 C 
ATOM     21  O   UNL d   1     -48.072  11.436  22.342  0.00  0.00    -0.259 OA
BRANCH  20  22
ATOM     22  O   UNL d   1     -47.652  11.545  23.698  0.00  0.00    -0.296 OA
ATOM     23  C   UNL d   1     -47.353  10.754  23.698  0.00  0.00     0.185 C 
ENDBRANCH  20  22
ENDBRANCH   1  20
TORSDOF 3
ENDMDL
MODEL 5
REMARK VINA RESULT:      -8.4      1.625      3.776
REMARK  3 active torsions:
REMARK  status: ('A' for Active; 'I' for Inactive)
REMARK    1  A    between atoms: C_8  and  C_1 
REMARK    2  A    between atoms: C_9  and  C_4 
REMARK    3  A    between atoms: O_20  and  C_8 
ROOT
ATOM      1  C   UNL d   1     -49.419  12.856  22.695  0.00  0.00     0.107 A 
ATOM      2  C   UNL d   1     -49.548  12.049  22.864  0.00  0.00     0.208 A 
ATOM      3  C   UNL d   1     -48.022  12.699  23.014  0.00  0.00     0.062 A 
ATOM      4  C   UNL d   1     -48.641  13.171  22.776  0.00  0.00     0.020 A 
ATOM      5  C   UNL d   1     -48.151  11.892  23.182  0.00  0.00     0.101 A 
ATOM      6  O   UNL d   1     -48.899  11.560  23.112  0.00  0.00    -0.288 OA
ATOM      7  C   UNL d   1     -47.272  13.017  23.088  0.00  0.00     0.194 A 
ATOM      8  C   UNL d   1     -47.530  11.406  23.424  0.00  0.00     0.002 A 
ATOM      9  C   UNL d   1     -46.776  11.737  23.496  0.00  0.00     0.042 A 
ATOM     10  C   UNL d   1     -46.646  12.544  23.327  0.00  0.00     0.019 A 
ATOM     11  O   UNL d   1     -47.142  13.827  22.918  0.00  0.00    -0.287 OA
ATOM     12  N   UNL d   1     -50.324  11.720  22.787  0.00  0.00    -0.121 N 
ATOM     13  C   UNL d   1     -46.005  11.572  23.691  0.00  0.00     0.009 C 
ATOM     14  C   UNL d   1     -46.730  10.937  23.698  0.00  0.00     0.009 C 
ENDROOT
BRANCH   4  15
ATOM     15  C   UNL d   1     -48.505  13.956  22.614  0.00  0.00     0.030 A 
ATOM     16  S   UNL d   1     -48.348  14.453  21.820  0.00  0.00    -0.086 SA
ATOM     17  C   UNL d   1     -48.268  15.318  22.322  0.00  0.00     0.035 A 
ATOM     18  C   UNL d   1     -48.369  15.113  22.996  0.00  0.00     0.007 A 
ATOM     19  C   UNL d   1     -48.488  14.425  23.140  0.00  0.00     0.007 A 
ENDBRANCH   4  15
BRANCH   1  20
ATOM     20  C   UNL d   1     -50.066  13.331  22.451  0.00  0.00     0.299 C 
ATOM     21  O   UNL d   1     -50.513  13.772  23.007  0.00  0.00    -0.259 OA
BRANCH  20  22
ATOM     22  O   UNL d   1     -50.281  13.380  21.658  0.00  0.00    -0.296 OA
ATOM     23  C   UNL d   1     -51.064  13.602  21.428  0.00  0.00     0.185 C 
ENDBRANCH  20  22
ENDBRANCH   1  20
TORSDOF 3
ENDMDL
MODEL 6
REMARK VINA RESULT:      -6.3      8.768     10.073
REMARK  3 active torsions:
REMARK  status: ('A' for Active; 'I' for Inactive)
REMARK    1  A    between atoms: C_8  and  C_1 
REMARK    2  A    between atoms: C_9  and  C_4 
REMARK    3  A    between atoms: O_20  and  C_8 
ROOT
ATOM      1  C   UNL d   1     -40.143  14.599  18.730  0.00  0.00     0.107 A 
ATOM      2  C   UNL d   1     -40.547  14.865  19.410  0.00  0.00     0.208 A 
ATOM      3  C   UNL d   1     -39.104  14.047  19.564  0.00  0.00     0.062 A 
ATOM      4  C   UNL d   1     -39.414  14.186  18.823  0.00  0.00     0.020 A 
ATOM      5  C   UNL d   1     -39.507  14.313  20.243  0.00  0.00     0.101 A 
ATOM      6  O   UNL d   1     -40.219  14.718  20.181  0.00  0.00    -0.288 OA
ATOM      7  C   UNL d   1     -38.396  13.645  19.639  0.00  0.00     0.194 A 
ATOM      8  C   UNL d   1     -39.202  14.178  20.997  0.00  0.00     0.002 A 
ATOM      9  C   UNL d   1     -38.485  13.770  21.063  0.00  0.00     0.042 A 
ATOM     10  C   UNL d   1     -38.081  13.504  20.384  0.00  0.00     0.019 A 
ATOM     11  O   UNL d   1     -37.991  13.378  18.957  0.00  0.00    -0.287 OA
ATOM     12  N   UNL d   1     -41.280  15.281  19.331  0.00  0.00    -0.121 N 
ATOM     13  C   UNL d   1     -37.941  13.487  21.595  0.00  0.00     0.009 C 
ATOM     14  C   UNL d   1     -38.749  13.961  21.823  0.00  0.00     0.009 C 
ENDROOT
BRANCH   4  15
ATOM     15  C   UNL d   1     -39.013  13.922  18.167  0.00  0.00     0.030 A 
ATOM     16  S   UNL d   1     -38.393  14.315  17.566  0.00  0.00    -0.086 SA
ATOM     17  C   UNL d   1     -38.313  13.474  17.024  0.00  0.00     0.035 A 
ATOM     18  C   UNL d   1     -38.753  13.031  17.366  0.00  0.00     0.007 A 
ATOM     19  C   UNL d   1     -39.105  13.260  17.942  0.00  0.00     0.007 A 
ENDBRANCH   4  15
BRANCH   1  20
ATOM     20  C   UNL d   1     -40.474  14.749  17.973  0.00  0.00     0.299 C 
ATOM     21  O   UNL d   1     -40.952  14.177  17.590  0.00  0.00    -0.259 OA
BRANCH  20  22
ATOM     22  O   UNL d   1     -40.338  15.461  17.585  0.00  0.00    -0.296 OA
ATOM     23  C   UNL d   1     -40.891  15.767  17.023  0.00  0.00     0.185 C 
ENDBRANCH  20  22
ENDBRANCH   1  20
TORSDOF 3
ENDMDL
MODEL 7
REMARK VINA RESULT:      -6.3      7.832      9.431
REMARK  3 active torsions:
REMARK  status: ('A' for Active; 'I' for Inactive)
REMARK    1  A    between atoms: C_8  and  C_1 
REMARK    2  A    between atoms: C_9  and  C_4 
REMARK    3  A    between atoms: O_20  and  C_8 
ROOT
ATOM      1  C   UNL d   1     -39.120  14.195  20.483  0.00  0.00     0.107 A 
ATOM      2  C   UNL d   1     -38.549  13.736  20.085  0.00  0.00     0.208 A 
ATOM      3  C   UNL d   1     -39.748  14.507  19.223  0.00  0.00     0.062 A 
ATOM      4  C   UNL d   1     -39.722  14.580  20.034  0.00  0.00     0.020 A 
ATOM      5  C   UNL d   1     -39.177  14.048  18.825  0.00  0.00     0.101 A 
ATOM      6  O   UNL d   1     -38.581  13.663  19.238  0.00  0.00    -0.288 OA
ATOM      7  C   UNL d   1     -40.336  14.885  18.800  0.00  0.00     0.194 A 
ATOM      8  C   UNL d   1     -39.195  13.968  18.004  0.00  0.00     0.002 A 
ATOM      9  C   UNL d   1     -39.795  14.355  17.585  0.00  0.00     0.042 A 
ATOM     10  C   UNL d   1     -40.366  14.814  17.983  0.00  0.00     0.019 A 
ATOM     11  O   UNL d   1     -40.910  15.347  19.200  0.00  0.00    -0.287 OA
ATOM     12  N   UNL d   1     -37.940  13.345  20.524  0.00  0.00    -0.121 N 
ATOM     13  C   UNL d   1     -40.092  14.486  16.841  0.00  0.00     0.009 C 
ATOM     14  C   UNL d   1     -39.318  13.948  17.045  0.00  0.00     0.009 C 
ENDROOT
BRANCH   4  15
ATOM     15  C   UNL d   1     -40.283  15.029  20.413  0.00  0.00     0.030 A 
ATOM     16  S   UNL d   1     -40.307  15.917  20.748  0.00  0.00    -0.086 SA
ATOM     17  C   UNL d   1     -41.252  15.819  21.073  0.00  0.00     0.035 A 
ATOM     18  C   UNL d   1     -41.407  15.150  20.887  0.00  0.00     0.007 A 
ATOM     19  C   UNL d   1     -40.916  14.754  20.554  0.00  0.00     0.007 A 
ENDBRANCH   4  15
BRANCH   1  20
ATOM     20  C   UNL d   1     -39.081  14.262  21.319  0.00  0.00     0.299 C 
ATOM     21  O   UNL d   1     -38.737  14.934  21.683  0.00  0.00    -0.259 OA
BRANCH  20  22
ATOM     22  O   UNL d   1     -39.380  13.669  21.806  0.00  0.00    -0.296 OA
ATOM     23  C   UNL d   1     -39.070  13.542  22.583  0.00  0.00     0.185 C 
ENDBRANCH  20  22
ENDBRANCH   1  20
TORSDOF 3
ENDMDL
