MODEL 1
REMARK VINA RESULT:      -3.2      0.000      0.000
REMARK  0 active torsions:
REMARK  status: ('A' for Active; 'I' for Inactive)
ROOT
ATOM      1  C   UNL d   1      30.826  16.753 -24.005  0.00  0.00     0.138 A 
ATOM      2  C   UNL d   1      30.395  17.363 -24.355  0.00  0.00     0.102 A 
ATOM      3  N   UNL d   1      30.431  16.124 -23.642  0.00  0.00    -0.239 NA
ATOM      4  C   UNL d   1      31.645  16.766 -24.015  0.00  0.00     0.214 A 
ATOM      5  N   UNL d   1      29.570  17.345 -24.342  0.00  0.00    -0.242 NA
ATOM      6  C   UNL d   1      31.609  18.005 -24.728  0.00  0.00     0.022 A 
ATOM      7  C   UNL d   1      32.040  17.395 -24.378  0.00  0.00     0.042 A 
ATOM      8  C   UNL d   1      29.599  16.104 -23.628  0.00  0.00     0.099 A 
ATOM      9  C   UNL d   1      29.169  16.715 -23.978  0.00  0.00     0.099 A 
ATOM     10  O   UNL d   1      32.075  16.156 -23.665  0.00  0.00    -0.285 OA
ATOM     11  C   UNL d   1      31.998  18.629 -25.088  0.00  0.00     0.002 A 
ATOM     12  C   UNL d   1      32.858  17.408 -24.388  0.00  0.00     0.003 A 
ATOM     13  C   UNL d   1      28.364  16.692 -23.963  0.00  0.00     0.021 A 
ATOM     14  C   UNL d   1      29.219  15.478 -23.267  0.00  0.00     0.021 A 
ATOM     15  C   UNL d   1      32.811  18.641 -25.097  0.00  0.00     0.000 A 
ATOM     16  C   UNL d   1      33.241  18.030 -24.747  0.00  0.00     0.000 A 
ATOM     17  C   UNL d   1      27.937  16.063 -23.600  0.00  0.00     0.002 A 
ATOM     18  C   UNL d   1      28.367  15.453 -23.250  0.00  0.00     0.002 A 
ENDROOT
TORSDOF 0
ENDMDL
MODEL 2
REMARK VINA RESULT:      -3.2      4.861      6.010
REMARK  0 active torsions:
REMARK  status: ('A' for Active; 'I' for Inactive)
ROOT
ATOM      1  C   UNL d   1      33.237  21.275 -22.041  0.00  0.00     0.138 A 
ATOM      2  C   UNL d   1      33.237  20.839 -21.340  0.00  0.00     0.102 A 
ATOM      3  N   UNL d   1      33.237  20.885 -22.770  0.00  0.00    -0.239 NA
ATOM      4  C   UNL d   1      33.235  22.093 -22.018  0.00  0.00     0.214 A 
ATOM      5  N   UNL d   1      33.238  20.014 -21.369  0.00  0.00    -0.242 NA
ATOM      6  C   UNL d   1      33.236  22.047 -20.589  0.00  0.00     0.022 A 
ATOM      7  C   UNL d   1      33.235  22.483 -21.289  0.00  0.00     0.042 A 
ATOM      8  C   UNL d   1      33.238  20.054 -22.800  0.00  0.00     0.099 A 
ATOM      9  C   UNL d   1      33.239  19.618 -22.100  0.00  0.00     0.099 A 
ATOM     10  O   UNL d   1      33.235  22.529 -22.718  0.00  0.00    -0.285 OA
ATOM     11  C   UNL d   1      33.235  22.430 -19.865  0.00  0.00     0.002 A 
ATOM     12  C   UNL d   1      33.234  23.302 -21.266  0.00  0.00     0.003 A 
ATOM     13  C   UNL d   1      33.240  18.813 -22.133  0.00  0.00     0.021 A 
ATOM     14  C   UNL d   1      33.238  19.680 -23.526  0.00  0.00     0.021 A 
ATOM     15  C   UNL d   1      33.234  23.243 -19.845  0.00  0.00     0.000 A 
ATOM     16  C   UNL d   1      33.234  23.679 -20.545  0.00  0.00     0.000 A 
ATOM     17  C   UNL d   1      33.240  18.392 -22.863  0.00  0.00     0.002 A 
ATOM     18  C   UNL d   1      33.240  18.828 -23.563  0.00  0.00     0.002 A 
ENDROOT
TORSDOF 0
ENDMDL
MODEL 3
REMARK VINA RESULT:      -3.2      4.305      5.388
REMARK  0 active torsions:
REMARK  status: ('A' for Active; 'I' for Inactive)
ROOT
ATOM      1  C   UNL d   1      33.227  20.339 -21.734  0.00  0.00     0.138 A 
ATOM      2  C   UNL d   1      33.227  20.764 -22.441  0.00  0.00     0.102 A 
ATOM      3  N   UNL d   1      33.231  19.513 -21.750  0.00  0.00    -0.239 NA
ATOM      4  C   UNL d   1      33.224  20.732 -21.016  0.00  0.00     0.214 A 
ATOM      5  N   UNL d   1      33.230  20.363 -23.164  0.00  0.00    -0.242 NA
ATOM      6  C   UNL d   1      33.220  21.984 -21.708  0.00  0.00     0.022 A 
ATOM      7  C   UNL d   1      33.220  21.558 -21.001  0.00  0.00     0.042 A 
ATOM      8  C   UNL d   1      33.234  19.107 -22.476  0.00  0.00     0.099 A 
ATOM      9  C   UNL d   1      33.234  19.532 -23.183  0.00  0.00     0.099 A 
ATOM     10  O   UNL d   1      33.224  20.307 -20.309  0.00  0.00    -0.285 OA
ATOM     11  C   UNL d   1      33.217  22.802 -21.697  0.00  0.00     0.002 A 
ATOM     12  C   UNL d   1      33.217  21.951 -20.283  0.00  0.00     0.003 A 
ATOM     13  C   UNL d   1      33.237  19.136 -23.884  0.00  0.00     0.021 A 
ATOM     14  C   UNL d   1      33.238  18.291 -22.479  0.00  0.00     0.021 A 
ATOM     15  C   UNL d   1      33.213  23.190 -20.982  0.00  0.00     0.000 A 
ATOM     16  C   UNL d   1      33.214  22.765 -20.275  0.00  0.00     0.000 A 
ATOM     17  C   UNL d   1      33.241  18.295 -23.927  0.00  0.00     0.002 A 
ATOM     18  C   UNL d   1      33.241  17.869 -23.220  0.00  0.00     0.002 A 
ENDROOT
TORSDOF 0
ENDMDL
MODEL 4
REMARK VINA RESULT:      -3.1      4.587      5.934
REMARK  0 active torsions:
REMARK  status: ('A' for Active; 'I' for Inactive)
ROOT
ATOM      1  C   UNL d   1      33.159  20.771 -21.701  0.00  0.00     0.138 A 
ATOM      2  C   UNL d   1      33.132  21.201 -22.404  0.00  0.00     0.102 A 
ATOM      3  N   UNL d   1      33.153  21.165 -20.975  0.00  0.00    -0.239 NA
ATOM      4  C   UNL d   1      33.193  19.953 -21.719  0.00  0.00     0.214 A 
ATOM      5  N   UNL d   1      33.098  22.026 -22.381  0.00  0.00    -0.242 NA
ATOM      6  C   UNL d   1      33.172  19.989 -23.148  0.00  0.00     0.022 A 
ATOM      7  C   UNL d   1      33.200  19.558 -22.445  0.00  0.00     0.042 A 
ATOM      8  C   UNL d   1      33.119  21.996 -20.949  0.00  0.00     0.099 A 
ATOM      9  C   UNL d   1      33.091  22.426 -21.652  0.00  0.00     0.099 A 
ATOM     10  O   UNL d   1      33.221  19.522 -21.016  0.00  0.00    -0.285 OA
ATOM     11  C   UNL d   1      33.178  19.602 -23.869  0.00  0.00     0.002 A 
ATOM     12  C   UNL d   1      33.234  18.740 -22.463  0.00  0.00     0.003 A 
ATOM     13  C   UNL d   1      33.058  23.231 -21.624  0.00  0.00     0.021 A 
ATOM     14  C   UNL d   1      33.113  22.375 -20.226  0.00  0.00     0.021 A 
ATOM     15  C   UNL d   1      33.212  18.789 -23.884  0.00  0.00     0.000 A 
ATOM     16  C   UNL d   1      33.240  18.359 -23.181  0.00  0.00     0.000 A 
ATOM     17  C   UNL d   1      33.050  23.657 -20.897  0.00  0.00     0.002 A 
ATOM     18  C   UNL d   1      33.078  23.226 -20.194  0.00  0.00     0.002 A 
ENDROOT
TORSDOF 0
ENDMDL
MODEL 5
REMARK VINA RESULT:      -3.1      4.174      5.624
REMARK  0 active torsions:
REMARK  status: ('A' for Active; 'I' for Inactive)
ROOT
ATOM      1  C   UNL d   1      33.229  20.464 -22.421  0.00  0.00     0.138 A 
ATOM      2  C   UNL d   1      33.229  20.027 -21.722  0.00  0.00     0.102 A 
ATOM      3  N   UNL d   1      33.226  21.290 -22.393  0.00  0.00    -0.239 NA
ATOM      4  C   UNL d   1      33.232  20.082 -23.146  0.00  0.00     0.214 A 
ATOM      5  N   UNL d   1      33.226  20.416 -20.993  0.00  0.00    -0.242 NA
ATOM      6  C   UNL d   1      33.235  18.820 -22.475  0.00  0.00     0.022 A 
ATOM      7  C   UNL d   1      33.235  19.256 -23.175  0.00  0.00     0.042 A 
ATOM      8  C   UNL d   1      33.223  21.684 -21.660  0.00  0.00     0.099 A 
ATOM      9  C   UNL d   1      33.223  21.247 -20.960  0.00  0.00     0.099 A 
ATOM     10  O   UNL d   1      33.233  20.519 -23.846  0.00  0.00    -0.285 OA
ATOM     11  C   UNL d   1      33.238  18.002 -22.500  0.00  0.00     0.002 A 
ATOM     12  C   UNL d   1      33.238  18.875 -23.899  0.00  0.00     0.003 A 
ATOM     13  C   UNL d   1      33.220  21.631 -20.252  0.00  0.00     0.021 A 
ATOM     14  C   UNL d   1      33.220  22.500 -21.644  0.00  0.00     0.021 A 
ATOM     15  C   UNL d   1      33.241  17.625 -23.220  0.00  0.00     0.000 A 
ATOM     16  C   UNL d   1      33.241  18.062 -23.920  0.00  0.00     0.000 A 
ATOM     17  C   UNL d   1      33.217  22.472 -20.196  0.00  0.00     0.002 A 
ATOM     18  C   UNL d   1      33.217  22.909 -20.896  0.00  0.00     0.002 A 
ENDROOT
TORSDOF 0
ENDMDL
MODEL 6
REMARK VINA RESULT:      -3.0      7.518      8.221
REMARK  0 active torsions:
REMARK  status: ('A' for Active; 'I' for Inactive)
ROOT
ATOM      1  C   UNL d   1      32.928  22.471 -19.278  0.00  0.00     0.138 A 
ATOM      2  C   UNL d   1      32.694  23.263 -19.278  0.00  0.00     0.102 A 
ATOM      3  N   UNL d   1      33.109  22.094 -18.566  0.00  0.00    -0.239 NA
ATOM      4  C   UNL d   1      32.980  22.057 -19.982  0.00  0.00     0.214 A 
ATOM      5  N   UNL d   1      32.643  23.677 -18.565  0.00  0.00    -0.242 NA
ATOM      6  C   UNL d   1      32.565  23.225 -20.695  0.00  0.00     0.022 A 
ATOM      7  C   UNL d   1      32.799  22.434 -20.695  0.00  0.00     0.042 A 
ATOM      8  C   UNL d   1      33.058  22.509 -17.847  0.00  0.00     0.099 A 
ATOM      9  C   UNL d   1      32.824  23.301 -17.847  0.00  0.00     0.099 A 
ATOM     10  O   UNL d   1      33.214  21.265 -19.983  0.00  0.00    -0.285 OA
ATOM     11  C   UNL d   1      32.385  23.602 -21.399  0.00  0.00     0.002 A 
ATOM     12  C   UNL d   1      32.852  22.019 -21.399  0.00  0.00     0.003 A 
ATOM     13  C   UNL d   1      32.776  23.700 -17.149  0.00  0.00     0.021 A 
ATOM     14  C   UNL d   1      33.239  22.127 -17.149  0.00  0.00     0.021 A 
ATOM     15  C   UNL d   1      32.438  23.188 -22.097  0.00  0.00     0.000 A 
ATOM     16  C   UNL d   1      32.671  22.397 -22.097  0.00  0.00     0.000 A 
ATOM     17  C   UNL d   1      32.955  23.339 -16.409  0.00  0.00     0.002 A 
ATOM     18  C   UNL d   1      33.188  22.547 -16.409  0.00  0.00     0.002 A 
ENDROOT
TORSDOF 0
ENDMDL
MODEL 7
REMARK VINA RESULT:      -2.9      3.380      4.607
REMARK  0 active torsions:
REMARK  status: ('A' for Active; 'I' for Inactive)
ROOT
ATOM      1  C   UNL d   1      33.236  19.514 -23.000  0.00  0.00     0.138 A 
ATOM      2  C   UNL d   1      33.239  19.003 -22.352  0.00  0.00     0.102 A 
ATOM      3  N   UNL d   1      33.235  19.207 -23.768  0.00  0.00    -0.239 NA
ATOM      4  C   UNL d   1      33.235  20.325 -22.887  0.00  0.00     0.214 A 
ATOM      5  N   UNL d   1      33.240  18.186 -22.472  0.00  0.00    -0.242 NA
ATOM      6  C   UNL d   1      33.239  20.121 -21.472  0.00  0.00     0.022 A 
ATOM      7  C   UNL d   1      33.237  20.631 -22.120  0.00  0.00     0.042 A 
ATOM      8  C   UNL d   1      33.235  18.384 -23.890  0.00  0.00     0.099 A 
ATOM      9  C   UNL d   1      33.238  17.874 -23.242  0.00  0.00     0.099 A 
ATOM     10  O   UNL d   1      33.233  20.835 -23.535  0.00  0.00    -0.285 OA
ATOM     11  C   UNL d   1      33.241  20.421 -20.711  0.00  0.00     0.002 A 
ATOM     12  C   UNL d   1      33.236  21.442 -22.007  0.00  0.00     0.003 A 
ATOM     13  C   UNL d   1      33.239  17.077 -23.364  0.00  0.00     0.021 A 
ATOM     14  C   UNL d   1      33.234  18.092 -24.653  0.00  0.00     0.021 A 
ATOM     15  C   UNL d   1      33.240  21.227 -20.600  0.00  0.00     0.000 A 
ATOM     16  C   UNL d   1      33.237  21.737 -21.248  0.00  0.00     0.000 A 
ATOM     17  C   UNL d   1      33.237  16.739 -24.136  0.00  0.00     0.002 A 
ATOM     18  C   UNL d   1      33.235  17.250 -24.784  0.00  0.00     0.002 A 
ENDROOT
TORSDOF 0
ENDMDL
MODEL 8
REMARK VINA RESULT:      -2.7      5.541      6.625
REMARK  0 active torsions:
REMARK  status: ('A' for Active; 'I' for Inactive)
ROOT
ATOM      1  C   UNL d   1      33.231  21.160 -20.764  0.00  0.00     0.138 A 
ATOM      2  C   UNL d   1      33.227  21.776 -21.313  0.00  0.00     0.102 A 
ATOM      3  N   UNL d   1      33.233  21.328 -19.955  0.00  0.00    -0.239 NA
ATOM      4  C   UNL d   1      33.233  20.382 -21.018  0.00  0.00     0.214 A 
ATOM      5  N   UNL d   1      33.225  22.560 -21.052  0.00  0.00    -0.242 NA
ATOM      6  C   UNL d   1      33.227  20.830 -22.376  0.00  0.00     0.022 A 
ATOM      7  C   UNL d   1      33.231  20.214 -21.827  0.00  0.00     0.042 A 
ATOM      8  C   UNL d   1      33.231  22.116 -19.690  0.00  0.00     0.099 A 
ATOM      9  C   UNL d   1      33.227  22.732 -20.238  0.00  0.00     0.099 A 
ATOM     10  O   UNL d   1      33.237  19.765 -20.469  0.00  0.00    -0.285 OA
ATOM     11  C   UNL d   1      33.225  20.668 -23.178  0.00  0.00     0.002 A 
ATOM     12  C   UNL d   1      33.233  19.436 -22.081  0.00  0.00     0.003 A 
ATOM     13  C   UNL d   1      33.226  23.495 -19.979  0.00  0.00     0.021 A 
ATOM     14  C   UNL d   1      33.233  22.270 -18.888  0.00  0.00     0.021 A 
ATOM     15  C   UNL d   1      33.227  19.894 -23.428  0.00  0.00     0.000 A 
ATOM     16  C   UNL d   1      33.231  19.278 -22.879  0.00  0.00     0.000 A 
ATOM     17  C   UNL d   1      33.228  23.692 -19.160  0.00  0.00     0.002 A 
ATOM     18  C   UNL d   1      33.232  23.076 -18.611  0.00  0.00     0.002 A 
ENDROOT
TORSDOF 0
ENDMDL
MODEL 9
REMARK VINA RESULT:      -2.0      5.932      6.789
REMARK  0 active torsions:
REMARK  status: ('A' for Active; 'I' for Inactive)
ROOT
ATOM      1  C   UNL d   1      32.999  22.345 -22.146  0.00  0.00     0.138 A 
ATOM      2  C   UNL d   1      32.874  23.161 -22.149  0.00  0.00     0.102 A 
ATOM      3  N   UNL d   1      33.007  21.931 -21.431  0.00  0.00    -0.239 NA
ATOM      4  C   UNL d   1      33.116  21.943 -22.850  0.00  0.00     0.214 A 
ATOM      5  N   UNL d   1      32.757  23.562 -21.436  0.00  0.00    -0.242 NA
ATOM      6  C   UNL d   1      32.983  23.173 -23.567  0.00  0.00     0.022 A 
ATOM      7  C   UNL d   1      33.108  22.357 -23.565  0.00  0.00     0.042 A 
ATOM      8  C   UNL d   1      32.889  22.333 -20.712  0.00  0.00     0.099 A 
ATOM      9  C   UNL d   1      32.764  23.149 -20.715  0.00  0.00     0.099 A 
ATOM     10  O   UNL d   1      33.241  21.128 -22.847  0.00  0.00    -0.285 OA
ATOM     11  C   UNL d   1      32.975  23.586 -24.274  0.00  0.00     0.002 A 
ATOM     12  C   UNL d   1      33.225  21.955 -24.268  0.00  0.00     0.003 A 
ATOM     13  C   UNL d   1      32.650  23.535 -20.017  0.00  0.00     0.021 A 
ATOM     14  C   UNL d   1      32.899  21.914 -20.012  0.00  0.00     0.021 A 
ATOM     15  C   UNL d   1      33.091  23.185 -24.971  0.00  0.00     0.000 A 
ATOM     16  C   UNL d   1      33.216  22.369 -24.969  0.00  0.00     0.000 A 
ATOM     17  C   UNL d   1      32.654  23.136 -19.275  0.00  0.00     0.002 A 
ATOM     18  C   UNL d   1      32.779  22.321 -19.273  0.00  0.00     0.002 A 
ENDROOT
TORSDOF 0
ENDMDL
