MODEL 1
REMARK VINA RESULT:       3.3      0.000      0.000
REMARK  5 active torsions:
REMARK  status: ('A' for Active; 'I' for Inactive)
REMARK    1  A    between atoms: S_9  and  C_2 
REMARK    2  A    between atoms: C_19  and  S_9 
REMARK    3  A    between atoms: C_11  and  C_19 
REMARK       I    between atoms: N_16  and  C_11 
REMARK    4  A    between atoms: C_22  and  N_16 
REMARK    5  A    between atoms: C_21  and  C_22 
ROOT
ATOM      1  C   UNL d   1     -42.198-121.832 -53.521  0.00  0.00     0.092 A 
ATOM      2  C   UNL d   1     -41.833-122.437 -53.082  0.00  0.00     0.120 A 
ATOM      3  N   UNL d   1     -41.479-123.063 -53.473  0.00  0.00    -0.238 NA
ATOM      4  C   UNL d   1     -42.208-121.855 -54.349  0.00  0.00     0.013 A 
ATOM      5  C   UNL d   1     -41.845-122.498 -54.733  0.00  0.00     0.018 A 
ATOM      6  C   UNL d   1     -41.483-123.097 -54.298  0.00  0.00     0.082 A 
ATOM      7  C   UNL d   1     -42.558-121.195 -53.124  0.00  0.00     0.103 C 
ATOM      8  N   UNL d   1     -42.917-120.559 -52.739  0.00  0.00    -0.191 NA
ATOM      9  C   UNL d   1     -42.570-121.256 -54.784  0.00  0.00     0.001 A 
ATOM     10  C   UNL d   1     -41.849-122.532 -55.564  0.00  0.00     0.002 A 
ATOM     11  C   UNL d   1     -41.126-123.729 -54.686  0.00  0.00     0.021 C 
ATOM     12  C   UNL d   1     -42.575-121.288 -55.606  0.00  0.00     0.000 A 
ATOM     13  C   UNL d   1     -42.215-121.926 -56.003  0.00  0.00     0.000 A 
ENDROOT
BRANCH   2  14
ATOM     14  S   UNL d   1     -41.830-122.401 -52.254  0.00  0.00    -0.062 SA
BRANCH  14  15
ATOM     15  C   UNL d   1     -41.395-122.955 -51.821  0.00  0.00     0.099 C 
BRANCH  15  16
ATOM     16  C   UNL d   1     -41.762-123.385 -51.223  0.00  0.00     0.286 C 
ATOM     17  N   UNL d   1     -41.437-123.388 -50.462  0.00  0.00    -0.206 NA
ATOM     18  O   UNL d   1     -42.453-123.813 -51.379  0.00  0.00    -0.265 OA
BRANCH  17  19
ATOM     19  C   UNL d   1     -41.797-123.817 -49.853  0.00  0.00     0.102 C 
BRANCH  19  20
ATOM     20  C   UNL d   1     -41.845-123.497 -49.093  0.00  0.00     0.021 A 
ATOM     21  C   UNL d   1     -42.577-123.402 -48.736  0.00  0.00     0.028 A 
ATOM     22  C   UNL d   1     -42.624-123.083 -47.977  0.00  0.00     0.119 A 
ATOM     23  O   UNL d   1     -43.269-122.926 -47.489  0.00  0.00    -0.300 OA
ATOM     24  C   UNL d   1     -41.946-122.862 -47.583  0.00  0.00     0.119 A 
ATOM     25  C   UNL d   1     -42.980-122.604 -46.786  0.00  0.00     0.304 A 
ATOM     26  O   UNL d   1     -42.160-122.564 -46.845  0.00  0.00    -0.300 OA
ATOM     27  C   UNL d   1     -41.198-122.959 -47.949  0.00  0.00     0.026 A 
ATOM     28  C   UNL d   1     -41.162-123.279 -48.706  0.00  0.00     0.004 A 
ENDBRANCH  19  20
ENDBRANCH  17  19
ENDBRANCH  15  16
ENDBRANCH  14  15
ENDBRANCH   2  14
TORSDOF 5
ENDMDL
