MODEL 1
REMARK VINA RESULT:      42.9      0.000      0.000
REMARK  4 active torsions:
REMARK  status: ('A' for Active; 'I' for Inactive)
REMARK    1  A    between atoms: S_9  and  C_2 
REMARK    2  A    between atoms: C_11  and  C_3 
REMARK    3  A    between atoms: C_7  and  C_10 
REMARK       I    between atoms: N_8  and  C_7 
REMARK    4  A    between atoms: C_10  and  S_9 
ROOT
ATOM      1  N   UNL d   1      45.620 -14.944  44.540  0.00  0.00    -0.220 NA
ATOM      2  C   UNL d   1      45.246 -15.660  44.665  0.00  0.00     0.114 A 
ATOM      3  C   UNL d   1      45.182 -14.248  44.485  0.00  0.00     0.163 A 
ATOM      4  N   UNL d   1      44.359 -14.274  44.558  0.00  0.00    -0.227 NA
ATOM      5  C   UNL d   1      44.424 -15.686  44.738  0.00  0.00     0.042 A 
ATOM      6  C   UNL d   1      43.975 -14.996  44.685  0.00  0.00     0.085 A 
ATOM      7  C   UNL d   1      44.045 -16.407  44.865  0.00  0.00     0.004 A 
ATOM      8  C   UNL d   1      43.170 -15.011  44.755  0.00  0.00     0.019 A 
ATOM      9  C   UNL d   1      43.222 -16.422  44.936  0.00  0.00     0.000 A 
ATOM     10  C   UNL d   1      42.784 -15.721  44.881  0.00  0.00     0.002 A 
ENDROOT
BRANCH   2  11
ATOM     11  S   UNL d   1      45.684 -16.361  44.721  0.00  0.00    -0.062 SA
BRANCH  11  12
ATOM     12  C   UNL d   1      45.703 -16.895  44.092  0.00  0.00     0.098 C 
BRANCH  12  13
ATOM     13  C   UNL d   1      46.097 -17.607  44.170  0.00  0.00     0.272 C 
ATOM     14  N   UNL d   1      46.162 -18.120  43.517  0.00  0.00    -0.267 N 
ATOM     15  C   UNL d   1      46.562 -18.842  43.602  0.00  0.00     0.110 A 
ATOM     16  C   UNL d   1      45.832 -17.908  42.803  0.00  0.00     0.110 A 
ATOM     17  C   UNL d   1      46.626 -19.346  42.959  0.00  0.00     0.142 A 
ATOM     18  O   UNL d   1      46.293 -19.135  42.232  0.00  0.00    -0.300 OA
ATOM     19  C   UNL d   1      45.896 -18.412  42.159  0.00  0.00     0.142 A 
ATOM     20  O   UNL d   1      46.430 -17.818  44.897  0.00  0.00    -0.266 OA
ENDBRANCH  12  13
ENDBRANCH  11  12
ENDBRANCH   2  11
BRANCH   3  21
ATOM     21  C   UNL d   1      45.562 -13.520  44.358  0.00  0.00     0.036 A 
ATOM     22  C   UNL d   1      45.274 -13.007  43.780  0.00  0.00     0.003 A 
ATOM     23  C   UNL d   1      45.652 -12.285  43.654  0.00  0.00     0.000 A 
ATOM     24  C   UNL d   1      46.314 -12.082  44.107  0.00  0.00     0.000 A 
ATOM     25  C   UNL d   1      46.596 -12.603  44.684  0.00  0.00     0.000 A 
ATOM     26  C   UNL d   1      46.213 -13.321  44.803  0.00  0.00     0.003 A 
ENDBRANCH   3  21
TORSDOF 4
ENDMDL
