MODEL 1
REMARK VINA RESULT:       7.9      0.000      0.000
REMARK  7 active torsions:
REMARK  status: ('A' for Active; 'I' for Inactive)
REMARK    1  A    between atoms: C_3  and  C_1 
REMARK    2  A    between atoms: N_2  and  C_9 
REMARK    3  A    between atoms: C_14  and  N_2 
REMARK    4  A    between atoms: O_6  and  C_8 
REMARK    5  A    between atoms: C_10  and  O_6 
REMARK    6  A    between atoms: C_7  and  C_10 
REMARK    7  A    between atoms: C_9  and  C_7 
ROOT
ATOM      1  C   UNL d   1      46.179 -18.211  43.675  0.00  0.00     0.000 A 
ATOM      2  C   UNL d   1      46.018 -18.252  44.484  0.00  0.00     0.002 A 
ATOM      3  C   UNL d   1      46.183 -17.475  43.293  0.00  0.00     0.002 A 
ATOM      4  C   UNL d   1      45.868 -16.836  44.530  0.00  0.00     0.100 A 
ATOM      5  C   UNL d   1      46.028 -16.787  43.717  0.00  0.00     0.025 A 
ATOM      6  C   UNL d   1      45.864 -17.569  44.909  0.00  0.00     0.025 A 
ENDROOT
BRANCH   4   7
ATOM      7  O   UNL d   1      45.712 -16.149  44.955  0.00  0.00    -0.302 OA
BRANCH   7   8
ATOM      8  C   UNL d   1      45.779 -15.407  44.596  0.00  0.00     0.166 C 
BRANCH   8   9
ATOM      9  C   UNL d   1      45.265 -14.796  44.796  0.00  0.00     0.239 C 
ATOM     10  O   UNL d   1      44.471 -14.965  44.943  0.00  0.00    -0.283 OA
BRANCH   9  11
ATOM     11  C   UNL d   1      45.542 -14.021  44.850  0.00  0.00     0.143 C 
BRANCH  11  12
ATOM     12  N   UNL d   1      45.681 -13.585  44.160  0.00  0.00    -0.241 NA
BRANCH  12  13
ATOM     13  C   UNL d   1      45.714 -12.760  44.209  0.00  0.00     0.082 C 
ATOM     14  C   UNL d   1      45.516 -12.309  43.549  0.00  0.00     0.021 C 
ATOM     15  C   UNL d   1      45.942 -12.390  44.910  0.00  0.00     0.021 C 
ENDBRANCH  12  13
ENDBRANCH  11  12
ENDBRANCH   9  11
ENDBRANCH   8   9
ENDBRANCH   7   8
ENDBRANCH   4   7
BRANCH   1  16
ATOM     16  C   UNL d   1      46.333 -18.891  43.251  0.00  0.00     0.000 A 
ATOM     17  C   UNL d   1      46.345 -19.626  43.637  0.00  0.00     0.000 A 
ATOM     18  C   UNL d   1      46.502 -20.314  43.203  0.00  0.00     0.000 A 
ATOM     19  C   UNL d   1      46.646 -20.275  42.393  0.00  0.00     0.000 A 
ATOM     20  C   UNL d   1      46.636 -19.547  42.006  0.00  0.00     0.000 A 
ATOM     21  C   UNL d   1      46.479 -18.851  42.432  0.00  0.00     0.000 A 
ENDBRANCH   1  16
TORSDOF 7
ENDMDL
MODEL 2
REMARK VINA RESULT:       8.4      1.549      5.349
REMARK  7 active torsions:
REMARK  status: ('A' for Active; 'I' for Inactive)
REMARK    1  A    between atoms: C_3  and  C_1 
REMARK    2  A    between atoms: N_2  and  C_9 
REMARK    3  A    between atoms: C_14  and  N_2 
REMARK    4  A    between atoms: O_6  and  C_8 
REMARK    5  A    between atoms: C_10  and  O_6 
REMARK    6  A    between atoms: C_7  and  C_10 
REMARK    7  A    between atoms: C_9  and  C_7 
ROOT
ATOM      1  C   UNL d   1      45.612 -14.520  44.453  0.00  0.00     0.000 A 
ATOM      2  C   UNL d   1      46.281 -14.826  44.827  0.00  0.00     0.002 A 
ATOM      3  C   UNL d   1      45.009 -15.032  44.205  0.00  0.00     0.002 A 
ATOM      4  C   UNL d   1      45.751 -16.144  44.708  0.00  0.00     0.100 A 
ATOM      5  C   UNL d   1      45.075 -15.843  44.331  0.00  0.00     0.025 A 
ATOM      6  C   UNL d   1      46.350 -15.633  44.954  0.00  0.00     0.025 A 
ENDROOT
BRANCH   4   7
ATOM      7  O   UNL d   1      45.818 -16.954  44.835  0.00  0.00    -0.302 OA
BRANCH   7   8
ATOM      8  C   UNL d   1      46.376 -17.401  44.420  0.00  0.00     0.166 C 
BRANCH   8   9
ATOM      9  C   UNL d   1      46.282 -18.214  44.333  0.00  0.00     0.239 C 
ATOM     10  O   UNL d   1      45.952 -18.652  44.949  0.00  0.00    -0.283 OA
BRANCH   9  11
ATOM     11  C   UNL d   1      46.517 -18.588  43.637  0.00  0.00     0.143 C 
BRANCH  11  12
ATOM     12  N   UNL d   1      46.336 -19.387  43.518  0.00  0.00    -0.241 NA
BRANCH  12  13
ATOM     13  C   UNL d   1      46.066 -19.628  42.774  0.00  0.00     0.082 C 
ATOM     14  C   UNL d   1      45.602 -20.306  42.713  0.00  0.00     0.021 C 
ATOM     15  C   UNL d   1      46.257 -19.197  42.098  0.00  0.00     0.021 C 
ENDBRANCH  12  13
ENDBRANCH  11  12
ENDBRANCH   9  11
ENDBRANCH   8   9
ENDBRANCH   7   8
ENDBRANCH   4   7
BRANCH   1  16
ATOM     16  C   UNL d   1      45.542 -13.718  44.326  0.00  0.00     0.000 A 
ATOM     17  C   UNL d   1      45.286 -13.436  43.588  0.00  0.00     0.000 A 
ATOM     18  C   UNL d   1      45.216 -12.621  43.462  0.00  0.00     0.000 A 
ATOM     19  C   UNL d   1      45.399 -12.087  44.063  0.00  0.00     0.000 A 
ATOM     20  C   UNL d   1      45.654 -12.362  44.796  0.00  0.00     0.000 A 
ATOM     21  C   UNL d   1      45.727 -13.178  44.933  0.00  0.00     0.000 A 
ENDBRANCH   1  16
TORSDOF 7
ENDMDL
