MODEL 1
REMARK VINA RESULT:      -6.1      0.000      0.000
REMARK  5 active torsions:
REMARK  status: ('A' for Active; 'I' for Inactive)
REMARK    1  A    between atoms: N_2  and  S_1 
REMARK    2  A    between atoms: C_3  and  S_1 
REMARK    3  A    between atoms: C_10  and  C_3 
REMARK    4  A    between atoms: C_9  and  N_4 
REMARK    5  A    between atoms: C_16  and  C_10 
ROOT
ATOM      1  N   UNL d   1     -41.455-122.773 -51.509  0.00  0.00    -0.226 N 
ATOM      2  N   UNL d   1     -41.657-123.073 -49.916  0.00  0.00    -0.301 N 
ATOM      3  C   UNL d   1     -41.167-123.469 -51.193  0.00  0.00     0.111 A 
ATOM      4  C   UNL d   1     -41.847-122.218 -51.038  0.00  0.00     0.111 A 
ATOM      5  C   UNL d   1     -41.266-123.626 -50.390  0.00  0.00     0.100 A 
ATOM      6  C   UNL d   1     -41.950-122.367 -50.234  0.00  0.00     0.100 A 
ENDROOT
BRANCH   1   7
ATOM      7  S   UNL d   1     -41.350-122.621 -52.331  0.00  0.00     0.272 S 
ATOM      8  O   UNL d   1     -41.497-123.419 -52.494  0.00  0.00    -0.200 OA
ATOM      9  O   UNL d   1     -41.201-121.813 -52.159  0.00  0.00    -0.200 OA
BRANCH   7  10
ATOM     10  C   UNL d   1     -41.243-122.459 -53.144  0.00  0.00     0.116 C 
BRANCH  10  11
ATOM     11  C   UNL d   1     -41.745-122.817 -53.695  0.00  0.00     0.014 C 
BRANCH  11  12
ATOM     12  C   UNL d   1     -41.813-122.489 -54.448  0.00  0.00     0.001 A 
ATOM     13  C   UNL d   1     -41.143-122.460 -54.968  0.00  0.00     0.000 A 
ATOM     14  C   UNL d   1     -41.221-122.128 -55.723  0.00  0.00     0.000 A 
ATOM     15  C   UNL d   1     -41.971-121.823 -55.964  0.00  0.00     0.000 A 
ATOM     16  C   UNL d   1     -42.614-121.852 -55.463  0.00  0.00     0.000 A 
ATOM     17  C   UNL d   1     -42.527-122.188 -54.702  0.00  0.00     0.000 A 
ENDBRANCH  11  12
ENDBRANCH  10  11
ENDBRANCH   7  10
ENDBRANCH   1   7
BRANCH   2  18
ATOM     18  C   UNL d   1     -41.757-123.233 -49.102  0.00  0.00     0.064 A 
ATOM     19  C   UNL d   1     -41.123-123.509 -48.657  0.00  0.00     0.020 A 
ATOM     20  C   UNL d   1     -41.229-123.665 -47.855  0.00  0.00     0.031 A 
ATOM     21  C   UNL d   1     -41.963-123.545 -47.507  0.00  0.00     0.140 A 
ATOM     22  C   UNL d   1     -42.608-123.266 -47.953  0.00  0.00     0.031 A 
ATOM     23  F   UNL d   1     -42.075-123.705 -46.680  0.00  0.00    -0.204 F 
ATOM     24  C   UNL d   1     -42.499-123.111 -48.756  0.00  0.00     0.020 A 
ENDBRANCH   2  18
TORSDOF 5
ENDMDL
MODEL 2
REMARK VINA RESULT:      -3.3      0.632      1.142
REMARK  5 active torsions:
REMARK  status: ('A' for Active; 'I' for Inactive)
REMARK    1  A    between atoms: N_2  and  S_1 
REMARK    2  A    between atoms: C_3  and  S_1 
REMARK    3  A    between atoms: C_10  and  C_3 
REMARK    4  A    between atoms: C_9  and  N_4 
REMARK    5  A    between atoms: C_16  and  C_10 
ROOT
ATOM      1  N   UNL d   1     -41.832-122.595 -51.441  0.00  0.00    -0.226 N 
ATOM      2  N   UNL d   1     -42.112-122.955 -49.872  0.00  0.00    -0.301 N 
ATOM      3  C   UNL d   1     -42.587-122.803 -51.206  0.00  0.00     0.111 A 
ATOM      4  C   UNL d   1     -41.208-122.564 -50.900  0.00  0.00     0.111 A 
ATOM      5  C   UNL d   1     -42.734-122.985 -50.416  0.00  0.00     0.100 A 
ATOM      6  C   UNL d   1     -41.346-122.745 -50.108  0.00  0.00     0.100 A 
ENDROOT
BRANCH   1   7
ATOM      7  S   UNL d   1     -41.691-122.410 -52.250  0.00  0.00     0.272 S 
ATOM      8  O   UNL d   1     -42.098-121.695 -52.155  0.00  0.00    -0.200 OA
ATOM      9  O   UNL d   1     -41.278-123.135 -52.341  0.00  0.00    -0.200 OA
BRANCH   7  10
ATOM     10  C   UNL d   1     -41.545-122.235 -53.055  0.00  0.00     0.116 C 
BRANCH  10  11
ATOM     11  C   UNL d   1     -42.142-121.880 -53.504  0.00  0.00     0.014 C 
BRANCH  11  12
ATOM     12  C   UNL d   1     -42.139-121.978 -54.322  0.00  0.00     0.001 A 
ATOM     13  C   UNL d   1     -42.854-122.175 -54.736  0.00  0.00     0.000 A 
ATOM     14  C   UNL d   1     -42.841-122.271 -55.559  0.00  0.00     0.000 A 
ATOM     15  C   UNL d   1     -42.114-122.171 -55.975  0.00  0.00     0.000 A 
ATOM     16  C   UNL d   1     -41.427-121.982 -55.576  0.00  0.00     0.000 A 
ATOM     17  C   UNL d   1     -41.448-121.887 -54.745  0.00  0.00     0.000 A 
ENDBRANCH  11  12
ENDBRANCH  10  11
ENDBRANCH   7  10
ENDBRANCH   1   7
BRANCH   2  18
ATOM     18  C   UNL d   1     -42.263-123.141 -49.072  0.00  0.00     0.064 A 
ATOM     19  C   UNL d   1     -42.945-123.553 -48.867  0.00  0.00     0.020 A 
ATOM     20  C   UNL d   1     -43.087-123.733 -48.075  0.00  0.00     0.031 A 
ATOM     21  C   UNL d   1     -42.549-123.500 -47.500  0.00  0.00     0.140 A 
ATOM     22  C   UNL d   1     -41.859-123.082 -47.701  0.00  0.00     0.031 A 
ATOM     23  F   UNL d   1     -42.693-123.684 -46.682  0.00  0.00    -0.204 F 
ATOM     24  C   UNL d   1     -41.719-122.904 -48.495  0.00  0.00     0.020 A 
ENDBRANCH   2  18
TORSDOF 5
ENDMDL
