MODEL 1
REMARK VINA RESULT:      27.1      0.000      0.000
REMARK  6 active torsions:
REMARK  status: ('A' for Active; 'I' for Inactive)
REMARK    1  A    between atoms: C_2  and  N_1 
REMARK    2  A    between atoms: C_6  and  C_2 
REMARK    3  A    between atoms: O_5  and  C_12 
REMARK    4  A    between atoms: C_11  and  O_5 
REMARK    5  A    between atoms: C_12  and  C_9 
REMARK    6  A    between atoms: C_10  and  C_11 
ROOT
ATOM      1  N   UNL d   1      14.608  13.381  -0.484  0.00  0.00    -0.302 N 
ATOM      2  C   UNL d   1      14.320  13.623  -1.220  0.00  0.00     0.080 A 
ATOM      3  C   UNL d   1      14.460  12.612  -0.214  0.00  0.00     0.080 A 
ATOM      4  C   UNL d   1      13.888  13.107  -1.684  0.00  0.00     0.021 A 
ATOM      5  C   UNL d   1      14.024  12.088  -0.679  0.00  0.00     0.021 A 
ATOM      6  C   UNL d   1      13.734  12.336  -1.422  0.00  0.00     0.028 A 
ENDROOT
BRANCH   6   7
ATOM      7  C   UNL d   1      13.299  11.812  -1.888  0.00  0.00     0.123 C 
BRANCH   7   8
ATOM      8  O   UNL d   1      12.993  12.061  -2.619  0.00  0.00    -0.303 OA
BRANCH   8   9
ATOM      9  C   UNL d   1      13.343  11.820  -3.318  0.00  0.00     0.123 C 
BRANCH   9  10
ATOM     10  C   UNL d   1      13.189  12.220  -4.019  0.00  0.00     0.025 A 
ATOM     11  C   UNL d   1      13.193  13.041  -4.027  0.00  0.00     0.002 A 
ATOM     12  C   UNL d   1      13.039  13.441  -4.730  0.00  0.00     0.000 A 
ATOM     13  C   UNL d   1      12.881  13.019  -5.424  0.00  0.00     0.000 A 
ATOM     14  C   UNL d   1      12.879  12.193  -5.405  0.00  0.00     0.000 A 
ATOM     15  C   UNL d   1      13.033  11.793  -4.703  0.00  0.00     0.002 A 
ENDBRANCH   9  10
ENDBRANCH   8   9
ENDBRANCH   7   8
ENDBRANCH   6   7
BRANCH   1  16
ATOM     16  C   UNL d   1      15.039  13.903  -0.026  0.00  0.00     0.080 C 
BRANCH  16  17
ATOM     17  C   UNL d   1      15.215  14.657  -0.310  0.00  0.00     0.018 A 
ATOM     18  C   UNL d   1      15.951  15.005  -0.140  0.00  0.00     0.002 A 
ATOM     19  C   UNL d   1      16.126  15.762  -0.427  0.00  0.00     0.000 A 
ATOM     20  C   UNL d   1      15.570  16.171  -0.879  0.00  0.00     0.000 A 
ATOM     21  C   UNL d   1      14.839  15.825  -1.048  0.00  0.00     0.000 A 
ATOM     22  C   UNL d   1      14.659  15.069  -0.765  0.00  0.00     0.002 A 
ENDBRANCH  16  17
ENDBRANCH   1  16
TORSDOF 6
ENDMDL
MODEL 2
REMARK VINA RESULT:      28.6      2.155      3.990
REMARK  6 active torsions:
REMARK  status: ('A' for Active; 'I' for Inactive)
REMARK    1  A    between atoms: C_2  and  N_1 
REMARK    2  A    between atoms: C_6  and  C_2 
REMARK    3  A    between atoms: O_5  and  C_12 
REMARK    4  A    between atoms: C_11  and  O_5 
REMARK    5  A    between atoms: C_12  and  C_9 
REMARK    6  A    between atoms: C_10  and  C_11 
ROOT
ATOM      1  N   UNL d   1      13.021  14.250  -4.534  0.00  0.00    -0.302 N 
ATOM      2  C   UNL d   1      13.219  13.568  -4.958  0.00  0.00     0.080 A 
ATOM      3  C   UNL d   1      12.821  14.195  -3.733  0.00  0.00     0.080 A 
ATOM      4  C   UNL d   1      13.218  12.838  -4.590  0.00  0.00     0.021 A 
ATOM      5  C   UNL d   1      12.818  13.461  -3.357  0.00  0.00     0.021 A 
ATOM      6  C   UNL d   1      13.018  12.774  -3.788  0.00  0.00     0.028 A 
ENDROOT
BRANCH   6   7
ATOM      7  C   UNL d   1      13.016  12.040  -3.412  0.00  0.00     0.123 C 
BRANCH   7   8
ATOM      8  O   UNL d   1      13.566  11.878  -2.810  0.00  0.00    -0.303 OA
BRANCH   8   9
ATOM      9  C   UNL d   1      13.317  11.780  -2.038  0.00  0.00     0.123 C 
BRANCH   9  10
ATOM     10  C   UNL d   1      13.860  11.787  -1.421  0.00  0.00     0.025 A 
ATOM     11  C   UNL d   1      14.664  11.798  -1.590  0.00  0.00     0.002 A 
ATOM     12  C   UNL d   1      15.208  11.805  -0.973  0.00  0.00     0.000 A 
ATOM     13  C   UNL d   1      14.948  11.802  -0.188  0.00  0.00     0.000 A 
ATOM     14  C   UNL d   1      14.137  11.791  -0.028  0.00  0.00     0.000 A 
ATOM     15  C   UNL d   1      13.593  11.784  -0.645  0.00  0.00     0.002 A 
ENDBRANCH   9  10
ENDBRANCH   8   9
ENDBRANCH   7   8
ENDBRANCH   6   7
BRANCH   1  16
ATOM     16  C   UNL d   1      13.025  14.976  -4.911  0.00  0.00     0.080 C 
BRANCH  16  17
ATOM     17  C   UNL d   1      13.690  15.463  -4.867  0.00  0.00     0.018 A 
ATOM     18  C   UNL d   1      13.954  15.741  -4.130  0.00  0.00     0.002 A 
ATOM     19  C   UNL d   1      14.621  16.230  -4.087  0.00  0.00     0.000 A 
ATOM     20  C   UNL d   1      15.022  16.441  -4.777  0.00  0.00     0.000 A 
ATOM     21  C   UNL d   1      14.760  16.165  -5.510  0.00  0.00     0.000 A 
ATOM     22  C   UNL d   1      14.094  15.676  -5.558  0.00  0.00     0.002 A 
ENDBRANCH  16  17
ENDBRANCH   1  16
TORSDOF 6
ENDMDL
