MODEL 1
REMARK VINA RESULT:      18.9      0.000      0.000
REMARK  2 active torsions:
REMARK  status: ('A' for Active; 'I' for Inactive)
REMARK    1  A    between atoms: C_2  and  C_1 
REMARK       I    between atoms: N_3  and  C_2 
REMARK    2  A    between atoms: C_6  and  N_3 
ROOT
ATOM      1  C   UNL d   1      58.204  49.642  50.727  0.00  0.00     0.303 C 
ATOM      2  N   UNL d   1      58.880  49.653  50.246  0.00  0.00    -0.206 NA
ATOM      3  O   UNL d   1      58.284  49.649  51.546  0.00  0.00    -0.263 OA
ENDROOT
BRANCH   2   4
ATOM      4  C   UNL d   1      59.630  49.671  50.594  0.00  0.00     0.086 A 
ATOM      5  C   UNL d   1      59.702  49.671  51.421  0.00  0.00     0.031 A 
ATOM      6  C   UNL d   1      60.453  49.689  51.754  0.00  0.00     0.059 A 
ATOM      7 CL   UNL d   1      60.519  49.689  52.576  0.00  0.00    -0.082 Cl
ATOM      8  C   UNL d   1      61.115  49.706  51.277  0.00  0.00     0.011 A 
ATOM      9  C   UNL d   1      61.053  49.706  50.464  0.00  0.00     0.002 A 
ATOM     10  C   UNL d   1      60.304  49.688  50.115  0.00  0.00     0.018 A 
ATOM     11  C   UNL d   1      60.233  49.688  49.306  0.00  0.00     0.002 C 
ENDBRANCH   2   4
BRANCH   1  12
ATOM     12  C   UNL d   1      57.455  49.624  50.380  0.00  0.00     0.176 A 
ATOM     13  C   UNL d   1      56.735  49.564  50.786  0.00  0.00     0.110 A 
ATOM     14  N   UNL d   1      56.126  49.565  50.229  0.00  0.00    -0.233 NA
ATOM     15  C   UNL d   1      56.646  49.512  51.599  0.00  0.00     0.023 C 
ATOM     16  C   UNL d   1      56.473  49.627  49.473  0.00  0.00     0.259 A 
ATOM     17  O   UNL d   1      57.293  49.663  49.575  0.00  0.00    -0.296 OA
ENDBRANCH   1  12
TORSDOF 2
ENDMDL
