MODEL 1
REMARK VINA RESULT:      -2.3      0.000      0.000
REMARK  6 active torsions:
REMARK  status: ('A' for Active; 'I' for Inactive)
REMARK    1  A    between atoms: C_3  and  C_1 
REMARK    2  A    between atoms: C_2  and  C_3 
REMARK    3  A    between atoms: C_4  and  C_2 
REMARK    4  A    between atoms: C_7  and  C_4 
REMARK    5  A    between atoms: O_17  and  C_5 
REMARK    6  A    between atoms: O_20  and  C_13 
ROOT
ATOM      1  C   UNL d   1      32.254  18.329 -23.747  0.00  0.00     0.042 C 
ENDROOT
BRANCH   1   2
ATOM      2  C   UNL d   1      32.180  17.777 -24.355  0.00  0.00     0.199 C 
ATOM      3  O   UNL d   1      32.826  17.591 -24.830  0.00  0.00    -0.286 OA
BRANCH   2   4
ATOM      4  C   UNL d   1      31.451  17.408 -24.487  0.00  0.00     0.079 A 
ATOM      5  C   UNL d   1      31.401  16.581 -24.495  0.00  0.00     0.199 A 
ATOM      6  C   UNL d   1      30.670  16.212 -24.627  0.00  0.00     0.043 A 
ATOM      7  O   UNL d   1      32.076  16.118 -24.372  0.00  0.00    -0.286 OA
ATOM      8  C   UNL d   1      29.995  16.667 -24.750  0.00  0.00     0.015 A 
ATOM      9  C   UNL d   1      30.044  17.494 -24.742  0.00  0.00     0.058 A 
ATOM     10  C   UNL d   1      30.768  17.863 -24.611  0.00  0.00     0.018 A 
ATOM     11 CL   UNL d   1      29.369  17.949 -24.866  0.00  0.00    -0.082 Cl
ENDBRANCH   2   4
ENDBRANCH   1   2
BRANCH   1  12
ATOM     12  C   UNL d   1      32.833  18.911 -23.796  0.00  0.00     0.005 C 
BRANCH  12  13
ATOM     13  C   UNL d   1      32.935  19.442 -23.175  0.00  0.00     0.022 A 
ATOM     14  C   UNL d   1      33.139  20.231 -23.331  0.00  0.00     0.096 A 
ATOM     15  C   UNL d   1      33.241  20.762 -22.710  0.00  0.00     0.048 A 
ATOM     16  C   UNL d   1      33.139  20.511 -21.931  0.00  0.00     0.096 A 
ATOM     17  C   UNL d   1      32.934  19.721 -21.776  0.00  0.00     0.024 A 
ATOM     18  C   UNL d   1      32.833  19.192 -22.401  0.00  0.00     0.004 A 
BRANCH  14  19
ATOM     19  O   UNL d   1      33.240  20.479 -24.102  0.00  0.00    -0.328 OA
ATOM     20  C   UNL d   1      33.172  21.278 -24.290  0.00  0.00     0.181 C 
ENDBRANCH  14  19
BRANCH  16  21
ATOM     21  O   UNL d   1      33.238  21.031 -21.305  0.00  0.00    -0.328 OA
ATOM     22  C   UNL d   1      32.674  21.083 -20.705  0.00  0.00     0.181 C 
ENDBRANCH  16  21
ENDBRANCH  12  13
ENDBRANCH   1  12
TORSDOF 6
ENDMDL
MODEL 2
REMARK VINA RESULT:      -2.2      2.813      5.285
REMARK  6 active torsions:
REMARK  status: ('A' for Active; 'I' for Inactive)
REMARK    1  A    between atoms: C_3  and  C_1 
REMARK    2  A    between atoms: C_2  and  C_3 
REMARK    3  A    between atoms: C_4  and  C_2 
REMARK    4  A    between atoms: C_7  and  C_4 
REMARK    5  A    between atoms: O_17  and  C_5 
REMARK    6  A    between atoms: O_20  and  C_13 
ROOT
ATOM      1  C   UNL d   1      32.904  21.759 -22.059  0.00  0.00     0.042 C 
ENDROOT
BRANCH   1   2
ATOM      2  C   UNL d   1      32.881  22.582 -22.000  0.00  0.00     0.199 C 
ATOM      3  O   UNL d   1      33.128  23.052 -22.630  0.00  0.00    -0.286 OA
BRANCH   2   4
ATOM      4  C   UNL d   1      32.609  22.935 -21.302  0.00  0.00     0.079 A 
ATOM      5  C   UNL d   1      31.891  23.347 -21.301  0.00  0.00     0.199 A 
ATOM      6  C   UNL d   1      31.619  23.701 -20.601  0.00  0.00     0.043 A 
ATOM      7  O   UNL d   1      31.440  23.409 -21.991  0.00  0.00    -0.286 OA
ATOM      8  C   UNL d   1      32.063  23.642 -19.910  0.00  0.00     0.015 A 
ATOM      9  C   UNL d   1      32.782  23.231 -19.912  0.00  0.00     0.058 A 
ATOM     10  C   UNL d   1      33.054  22.879 -20.604  0.00  0.00     0.018 A 
ATOM     11 CL   UNL d   1      33.226  23.173 -19.220  0.00  0.00    -0.082 Cl
ENDBRANCH   2   4
ENDBRANCH   1   2
BRANCH   1  12
ATOM     12  C   UNL d   1      33.241  21.409 -22.723  0.00  0.00     0.005 C 
BRANCH  12  13
ATOM     13  C   UNL d   1      33.240  20.590 -22.799  0.00  0.00     0.022 A 
ATOM     14  C   UNL d   1      33.240  20.242 -23.552  0.00  0.00     0.096 A 
ATOM     15  C   UNL d   1      33.240  19.422 -23.629  0.00  0.00     0.048 A 
ATOM     16  C   UNL d   1      33.239  18.945 -22.957  0.00  0.00     0.096 A 
ATOM     17  C   UNL d   1      33.239  19.293 -22.203  0.00  0.00     0.024 A 
ATOM     18  C   UNL d   1      33.240  20.115 -22.130  0.00  0.00     0.004 A 
BRANCH  14  19
ATOM     19  O   UNL d   1      33.241  20.715 -24.218  0.00  0.00    -0.328 OA
ATOM     20  C   UNL d   1      33.040  20.395 -24.950  0.00  0.00     0.181 C 
ENDBRANCH  14  19
BRANCH  16  21
ATOM     21  O   UNL d   1      33.239  18.128 -23.020  0.00  0.00    -0.328 OA
ATOM     22  C   UNL d   1      33.182  17.650 -22.350  0.00  0.00     0.181 C 
ENDBRANCH  16  21
ENDBRANCH  12  13
ENDBRANCH   1  12
TORSDOF 6
ENDMDL
MODEL 3
REMARK VINA RESULT:      -2.2      1.427      2.465
REMARK  6 active torsions:
REMARK  status: ('A' for Active; 'I' for Inactive)
REMARK    1  A    between atoms: C_3  and  C_1 
REMARK    2  A    between atoms: C_2  and  C_3 
REMARK    3  A    between atoms: C_4  and  C_2 
REMARK    4  A    between atoms: C_7  and  C_4 
REMARK    5  A    between atoms: O_17  and  C_5 
REMARK    6  A    between atoms: O_20  and  C_13 
ROOT
ATOM      1  C   UNL d   1      31.168  17.129 -24.015  0.00  0.00     0.042 C 
ENDROOT
BRANCH   1   2
ATOM      2  C   UNL d   1      30.849  16.433 -23.708  0.00  0.00     0.199 C 
ATOM      3  O   UNL d   1      31.324  15.905 -23.291  0.00  0.00    -0.286 OA
BRANCH   2   4
ATOM      4  C   UNL d   1      30.046  16.265 -23.821  0.00  0.00     0.079 A 
ATOM      5  C   UNL d   1      29.810  15.777 -24.446  0.00  0.00     0.199 A 
ATOM      6  C   UNL d   1      29.004  15.610 -24.558  0.00  0.00     0.043 A 
ATOM      7  O   UNL d   1      30.369  15.453 -24.962  0.00  0.00    -0.286 OA
ATOM      8  C   UNL d   1      28.443  15.929 -24.049  0.00  0.00     0.015 A 
ATOM      9  C   UNL d   1      28.679  16.418 -23.423  0.00  0.00     0.058 A 
ATOM     10  C   UNL d   1      29.477  16.586 -23.309  0.00  0.00     0.018 A 
ATOM     11 CL   UNL d   1      28.116  16.738 -22.913  0.00  0.00    -0.082 Cl
ENDBRANCH   2   4
ENDBRANCH   1   2
BRANCH   1  12
ATOM     12  C   UNL d   1      31.771  17.513 -23.608  0.00  0.00     0.005 C 
BRANCH  12  13
ATOM     13  C   UNL d   1      32.139  18.168 -23.943  0.00  0.00     0.022 A 
ATOM     14  C   UNL d   1      32.594  18.677 -23.471  0.00  0.00     0.096 A 
ATOM     15  C   UNL d   1      32.963  19.333 -23.806  0.00  0.00     0.048 A 
ATOM     16  C   UNL d   1      32.879  19.487 -24.611  0.00  0.00     0.096 A 
ATOM     17  C   UNL d   1      32.423  18.978 -25.084  0.00  0.00     0.024 A 
ATOM     18  C   UNL d   1      32.055  18.321 -24.744  0.00  0.00     0.004 A 
BRANCH  14  19
ATOM     19  O   UNL d   1      32.677  18.524 -22.673  0.00  0.00    -0.328 OA
ATOM     20  C   UNL d   1      33.118  19.034 -22.200  0.00  0.00     0.181 C 
ENDBRANCH  14  19
BRANCH  16  21
ATOM     21  O   UNL d   1      33.241  20.136 -24.956  0.00  0.00    -0.328 OA
ATOM     22  C   UNL d   1      32.956  20.899 -24.824  0.00  0.00     0.181 C 
ENDBRANCH  16  21
ENDBRANCH  12  13
ENDBRANCH   1  12
TORSDOF 6
ENDMDL
MODEL 4
REMARK VINA RESULT:      -1.7      1.581      4.567
REMARK  6 active torsions:
REMARK  status: ('A' for Active; 'I' for Inactive)
REMARK    1  A    between atoms: C_3  and  C_1 
REMARK    2  A    between atoms: C_2  and  C_3 
REMARK    3  A    between atoms: C_4  and  C_2 
REMARK    4  A    between atoms: C_7  and  C_4 
REMARK    5  A    between atoms: O_17  and  C_5 
REMARK    6  A    between atoms: O_20  and  C_13 
ROOT
ATOM      1  C   UNL d   1      31.870  18.135 -24.074  0.00  0.00     0.042 C 
ENDROOT
BRANCH   1   2
ATOM      2  C   UNL d   1      32.634  18.441 -24.134  0.00  0.00     0.199 C 
ATOM      3  O   UNL d   1      33.196  18.070 -24.609  0.00  0.00    -0.286 OA
BRANCH   2   4
ATOM      4  C   UNL d   1      32.836  19.125 -23.713  0.00  0.00     0.079 A 
ATOM      5  C   UNL d   1      33.033  19.818 -24.121  0.00  0.00     0.199 A 
ATOM      6  C   UNL d   1      33.236  20.502 -23.698  0.00  0.00     0.043 A 
ATOM      7  O   UNL d   1      33.030  19.835 -24.948  0.00  0.00    -0.286 OA
ATOM      8  C   UNL d   1      33.241  20.492 -22.874  0.00  0.00     0.015 A 
ATOM      9  C   UNL d   1      33.044  19.799 -22.467  0.00  0.00     0.058 A 
ATOM     10  C   UNL d   1      32.842  19.118 -22.883  0.00  0.00     0.018 A 
ATOM     11 CL   UNL d   1      33.048  19.789 -21.643  0.00  0.00    -0.082 Cl
ENDBRANCH   2   4
ENDBRANCH   1   2
BRANCH   1  12
ATOM     12  C   UNL d   1      31.642  17.515 -24.563  0.00  0.00     0.005 C 
BRANCH  12  13
ATOM     13  C   UNL d   1      30.879  17.212 -24.513  0.00  0.00     0.022 A 
ATOM     14  C   UNL d   1      30.740  16.491 -24.127  0.00  0.00     0.096 A 
ATOM     15  C   UNL d   1      29.976  16.189 -24.076  0.00  0.00     0.048 A 
ATOM     16  C   UNL d   1      29.346  16.602 -24.409  0.00  0.00     0.096 A 
ATOM     17  C   UNL d   1      29.484  17.324 -24.796  0.00  0.00     0.024 A 
ATOM     18  C   UNL d   1      30.251  17.624 -24.844  0.00  0.00     0.004 A 
BRANCH  14  19
ATOM     19  O   UNL d   1      31.365  16.082 -23.796  0.00  0.00    -0.328 OA
ATOM     20  C   UNL d   1      31.221  15.454 -23.283  0.00  0.00     0.181 C 
ENDBRANCH  14  19
BRANCH  16  21
ATOM     21  O   UNL d   1      28.581  16.311 -24.365  0.00  0.00    -0.328 OA
ATOM     22  C   UNL d   1      28.188  16.259 -23.642  0.00  0.00     0.181 C 
ENDBRANCH  16  21
ENDBRANCH  12  13
ENDBRANCH   1  12
TORSDOF 6
ENDMDL
MODEL 5
REMARK VINA RESULT:      -1.7      1.736      4.530
REMARK  6 active torsions:
REMARK  status: ('A' for Active; 'I' for Inactive)
REMARK    1  A    between atoms: C_3  and  C_1 
REMARK    2  A    between atoms: C_2  and  C_3 
REMARK    3  A    between atoms: C_4  and  C_2 
REMARK    4  A    between atoms: C_7  and  C_4 
REMARK    5  A    between atoms: O_17  and  C_5 
REMARK    6  A    between atoms: O_20  and  C_13 
ROOT
ATOM      1  C   UNL d   1      31.578  17.894 -23.951  0.00  0.00     0.042 C 
ENDROOT
BRANCH   1   2
ATOM      2  C   UNL d   1      32.339  18.173 -24.105  0.00  0.00     0.199 C 
ATOM      3  O   UNL d   1      32.800  17.823 -24.692  0.00  0.00    -0.286 OA
BRANCH   2   4
ATOM      4  C   UNL d   1      32.640  18.807 -23.667  0.00  0.00     0.079 A 
ATOM      5  C   UNL d   1      32.856  19.508 -24.050  0.00  0.00     0.199 A 
ATOM      6  C   UNL d   1      33.157  20.144 -23.609  0.00  0.00     0.043 A 
ATOM      7  O   UNL d   1      32.775  19.583 -24.870  0.00  0.00    -0.286 OA
ATOM      8  C   UNL d   1      33.241  20.077 -22.793  0.00  0.00     0.015 A 
ATOM      9  C   UNL d   1      33.024  19.375 -22.410  0.00  0.00     0.058 A 
ATOM     10  C   UNL d   1      32.725  18.743 -22.844  0.00  0.00     0.018 A 
ATOM     11 CL   UNL d   1      33.108  19.308 -21.593  0.00  0.00    -0.082 Cl
ENDBRANCH   2   4
ENDBRANCH   1   2
BRANCH   1  12
ATOM     12  C   UNL d   1      31.114  17.617 -24.571  0.00  0.00     0.005 C 
BRANCH  12  13
ATOM     13  C   UNL d   1      30.490  17.103 -24.418  0.00  0.00     0.022 A 
ATOM     14  C   UNL d   1      29.725  17.285 -24.683  0.00  0.00     0.096 A 
ATOM     15  C   UNL d   1      29.100  16.771 -24.530  0.00  0.00     0.048 A 
ATOM     16  C   UNL d   1      29.233  16.073 -24.113  0.00  0.00     0.096 A 
ATOM     17  C   UNL d   1      29.999  15.890 -23.848  0.00  0.00     0.024 A 
ATOM     18  C   UNL d   1      30.622  16.408 -24.003  0.00  0.00     0.004 A 
BRANCH  14  19
ATOM     19  O   UNL d   1      29.593  17.977 -25.097  0.00  0.00    -0.328 OA
ATOM     20  C   UNL d   1      28.891  18.393 -24.990  0.00  0.00     0.181 C 
ENDBRANCH  14  19
BRANCH  16  21
ATOM     21  O   UNL d   1      28.620  15.553 -23.955  0.00  0.00    -0.328 OA
ATOM     22  C   UNL d   1      28.337  15.453 -23.187  0.00  0.00     0.181 C 
ENDBRANCH  16  21
ENDBRANCH  12  13
ENDBRANCH   1  12
TORSDOF 6
ENDMDL
MODEL 6
REMARK VINA RESULT:      -0.4      2.035      3.709
REMARK  6 active torsions:
REMARK  status: ('A' for Active; 'I' for Inactive)
REMARK    1  A    between atoms: C_3  and  C_1 
REMARK    2  A    between atoms: C_2  and  C_3 
REMARK    3  A    between atoms: C_4  and  C_2 
REMARK    4  A    between atoms: C_7  and  C_4 
REMARK    5  A    between atoms: O_17  and  C_5 
REMARK    6  A    between atoms: O_20  and  C_13 
ROOT
ATOM      1  C   UNL d   1      30.117  16.488 -24.357  0.00  0.00     0.042 C 
ENDROOT
BRANCH   1   2
ATOM      2  C   UNL d   1      29.519  15.923 -24.423  0.00  0.00     0.199 C 
ATOM      3  O   UNL d   1      29.463  15.453 -25.097  0.00  0.00    -0.286 OA
BRANCH   2   4
ATOM      4  C   UNL d   1      28.974  15.830 -23.807  0.00  0.00     0.079 A 
ATOM      5  C   UNL d   1      28.162  15.878 -23.963  0.00  0.00     0.199 A 
ATOM      6  C   UNL d   1      27.617  15.784 -23.345  0.00  0.00     0.043 A 
ATOM      7  O   UNL d   1      27.889  16.020 -24.731  0.00  0.00    -0.286 OA
ATOM      8  C   UNL d   1      27.882  15.643 -22.579  0.00  0.00     0.015 A 
ATOM      9  C   UNL d   1      28.694  15.594 -22.423  0.00  0.00     0.058 A 
ATOM     10  C   UNL d   1      29.238  15.687 -23.033  0.00  0.00     0.018 A 
ATOM     11 CL   UNL d   1      28.960  15.453 -21.656  0.00  0.00    -0.082 Cl
ENDBRANCH   2   4
ENDBRANCH   1   2
BRANCH   1  12
ATOM     12  C   UNL d   1      30.690  16.544 -24.944  0.00  0.00     0.005 C 
BRANCH  12  13
ATOM     13  C   UNL d   1      31.284  17.110 -24.886  0.00  0.00     0.022 A 
ATOM     14  C   UNL d   1      32.081  16.880 -24.901  0.00  0.00     0.096 A 
ATOM     15  C   UNL d   1      32.676  17.447 -24.843  0.00  0.00     0.048 A 
ATOM     16  C   UNL d   1      32.481  18.244 -24.768  0.00  0.00     0.096 A 
ATOM     17  C   UNL d   1      31.683  18.473 -24.752  0.00  0.00     0.024 A 
ATOM     18  C   UNL d   1      31.090  17.903 -24.811  0.00  0.00     0.004 A 
BRANCH  14  19
ATOM     19  O   UNL d   1      32.275  16.090 -24.976  0.00  0.00    -0.328 OA
ATOM     20  C   UNL d   1      33.061  15.866 -25.074  0.00  0.00     0.181 C 
ENDBRANCH  14  19
BRANCH  16  21
ATOM     21  O   UNL d   1      33.064  18.816 -24.708  0.00  0.00    -0.328 OA
ATOM     22  C   UNL d   1      33.067  19.355 -24.084  0.00  0.00     0.181 C 
ENDBRANCH  16  21
ENDBRANCH  12  13
ENDBRANCH   1  12
TORSDOF 6
ENDMDL
