MODEL 1
REMARK VINA RESULT:      -3.0      0.000      0.000
REMARK  1 active torsions:
REMARK  status: ('A' for Active; 'I' for Inactive)
REMARK       I    between atoms: C_4  and  N_1 
REMARK    1  A    between atoms: C_7  and  C_4 
ROOT
ATOM      1  N   UNL d   1      30.061  16.780 -23.955  0.00  0.00    -0.175 N 
ATOM      2  N   UNL d   1      29.790  17.340 -24.505  0.00  0.00    -0.057 NA
ATOM      3  N   UNL d   1      28.978  17.275 -24.555  0.00  0.00    -0.129 NA
ATOM      4  C   UNL d   1      30.854  16.656 -23.736  0.00  0.00     0.282 C 
ATOM      5  C   UNL d   1      29.409  16.368 -23.666  0.00  0.00     0.107 A 
ATOM      6  C   UNL d   1      28.737  16.673 -24.035  0.00  0.00     0.122 A 
ATOM      7  O   UNL d   1      31.034  16.078 -23.182  0.00  0.00    -0.265 OA
ATOM      8  C   UNL d   1      29.334  15.759 -23.118  0.00  0.00     0.021 A 
ATOM      9  C   UNL d   1      27.983  16.363 -23.853  0.00  0.00     0.022 A 
ATOM     10  C   UNL d   1      28.589  15.453 -22.938  0.00  0.00     0.002 A 
ATOM     11  C   UNL d   1      27.912  15.753 -23.303  0.00  0.00     0.002 A 
ENDROOT
BRANCH   4  12
ATOM     12  C   UNL d   1      31.447  17.114 -24.076  0.00  0.00     0.058 A 
ATOM     13  C   UNL d   1      31.656  17.838 -23.739  0.00  0.00     0.005 A 
ATOM     14  C   UNL d   1      32.249  18.296 -24.079  0.00  0.00     0.000 A 
ATOM     15  C   UNL d   1      32.640  18.039 -24.756  0.00  0.00     0.000 A 
ATOM     16  C   UNL d   1      32.433  17.316 -25.095  0.00  0.00     0.000 A 
ATOM     17  C   UNL d   1      33.241  18.512 -25.095  0.00  0.00     0.000 C 
ATOM     18  C   UNL d   1      31.839  16.855 -24.757  0.00  0.00     0.005 A 
ENDBRANCH   4  12
TORSDOF 1
ENDMDL
MODEL 2
REMARK VINA RESULT:      -1.9      1.466      2.233
REMARK  1 active torsions:
REMARK  status: ('A' for Active; 'I' for Inactive)
REMARK       I    between atoms: C_4  and  N_1 
REMARK    1  A    between atoms: C_7  and  C_4 
ROOT
ATOM      1  N   UNL d   1      31.453  17.465 -24.241  0.00  0.00    -0.175 N 
ATOM      2  N   UNL d   1      30.827  17.975 -24.051  0.00  0.00    -0.057 NA
ATOM      3  N   UNL d   1      30.126  17.597 -24.234  0.00  0.00    -0.129 NA
ATOM      4  C   UNL d   1      32.263  17.629 -24.144  0.00  0.00     0.282 C 
ATOM      5  C   UNL d   1      31.134  16.768 -24.544  0.00  0.00     0.107 A 
ATOM      6  C   UNL d   1      30.312  16.847 -24.541  0.00  0.00     0.122 A 
ATOM      7  O   UNL d   1      32.819  17.066 -24.360  0.00  0.00    -0.265 OA
ATOM      8  C   UNL d   1      31.477  16.074 -24.822  0.00  0.00     0.021 A 
ATOM      9  C   UNL d   1      29.831  16.224 -24.818  0.00  0.00     0.022 A 
ATOM     10  C   UNL d   1      31.002  15.458 -25.097  0.00  0.00     0.002 A 
ATOM     11  C   UNL d   1      30.179  15.529 -25.096  0.00  0.00     0.002 A 
ENDROOT
BRANCH   4  12
ATOM     12  C   UNL d   1      32.496  18.354 -23.832  0.00  0.00     0.058 A 
ATOM     13  C   UNL d   1      32.643  18.993 -24.334  0.00  0.00     0.005 A 
ATOM     14  C   UNL d   1      32.877  19.718 -24.022  0.00  0.00     0.000 A 
ATOM     15  C   UNL d   1      32.966  19.815 -23.210  0.00  0.00     0.000 A 
ATOM     16  C   UNL d   1      32.820  19.178 -22.707  0.00  0.00     0.000 A 
ATOM     17  C   UNL d   1      33.204  20.555 -22.902  0.00  0.00     0.000 C 
ATOM     18  C   UNL d   1      32.586  18.451 -23.015  0.00  0.00     0.005 A 
ENDBRANCH   4  12
TORSDOF 1
ENDMDL
MODEL 3
REMARK VINA RESULT:      -1.8      3.193      4.957
REMARK  1 active torsions:
REMARK  status: ('A' for Active; 'I' for Inactive)
REMARK       I    between atoms: C_4  and  N_1 
REMARK    1  A    between atoms: C_7  and  C_4 
ROOT
ATOM      1  N   UNL d   1      32.823  19.906 -22.626  0.00  0.00    -0.175 N 
ATOM      2  N   UNL d   1      32.634  19.541 -21.905  0.00  0.00    -0.057 NA
ATOM      3  N   UNL d   1      32.640  20.111 -21.321  0.00  0.00    -0.129 NA
ATOM      4  C   UNL d   1      32.878  19.528 -23.365  0.00  0.00     0.282 C 
ATOM      5  C   UNL d   1      32.945  20.708 -22.484  0.00  0.00     0.107 A 
ATOM      6  C   UNL d   1      32.832  20.838 -21.676  0.00  0.00     0.122 A 
ATOM      7  O   UNL d   1      33.070  19.966 -24.031  0.00  0.00    -0.265 OA
ATOM      8  C   UNL d   1      33.142  21.337 -22.976  0.00  0.00     0.021 A 
ATOM      9  C   UNL d   1      32.919  21.607 -21.361  0.00  0.00     0.022 A 
ATOM     10  C   UNL d   1      33.228  22.096 -22.664  0.00  0.00     0.002 A 
ATOM     11  C   UNL d   1      33.117  22.235 -21.857  0.00  0.00     0.002 A 
ENDROOT
BRANCH   4  12
ATOM     12  C   UNL d   1      32.740  18.718 -23.419  0.00  0.00     0.058 A 
ATOM     13  C   UNL d   1      33.240  18.185 -23.036  0.00  0.00     0.005 A 
ATOM     14  C   UNL d   1      33.102  17.376 -23.090  0.00  0.00     0.000 A 
ATOM     15  C   UNL d   1      32.465  17.088 -23.524  0.00  0.00     0.000 A 
ATOM     16  C   UNL d   1      31.963  17.618 -23.908  0.00  0.00     0.000 A 
ATOM     17  C   UNL d   1      32.332  16.264 -23.574  0.00  0.00     0.000 C 
ATOM     18  C   UNL d   1      32.099  18.429 -23.856  0.00  0.00     0.005 A 
ENDBRANCH   4  12
TORSDOF 1
ENDMDL
MODEL 4
REMARK VINA RESULT:      -1.7      3.559      4.822
REMARK  1 active torsions:
REMARK  status: ('A' for Active; 'I' for Inactive)
REMARK       I    between atoms: C_4  and  N_1 
REMARK    1  A    between atoms: C_7  and  C_4 
ROOT
ATOM      1  N   UNL d   1      32.923  19.601 -22.861  0.00  0.00    -0.175 N 
ATOM      2  N   UNL d   1      32.822  20.140 -23.485  0.00  0.00    -0.057 NA
ATOM      3  N   UNL d   1      32.865  19.727 -24.187  0.00  0.00    -0.129 NA
ATOM      4  C   UNL d   1      32.918  19.786 -22.051  0.00  0.00     0.282 C 
ATOM      5  C   UNL d   1      33.027  18.850 -23.185  0.00  0.00     0.107 A 
ATOM      6  C   UNL d   1      32.992  18.925 -24.007  0.00  0.00     0.122 A 
ATOM      7  O   UNL d   1      33.025  19.189 -21.498  0.00  0.00    -0.265 OA
ATOM      8  C   UNL d   1      33.150  18.111 -22.847  0.00  0.00     0.021 A 
ATOM      9  C   UNL d   1      33.080  18.252 -24.492  0.00  0.00     0.022 A 
ATOM     10  C   UNL d   1      33.237  17.445 -23.327  0.00  0.00     0.002 A 
ATOM     11  C   UNL d   1      33.203  17.512 -24.150  0.00  0.00     0.002 A 
ENDROOT
BRANCH   4  12
ATOM     12  C   UNL d   1      32.807  20.566 -21.812  0.00  0.00     0.058 A 
ATOM     13  C   UNL d   1      32.259  20.744 -21.221  0.00  0.00     0.005 A 
ATOM     14  C   UNL d   1      32.147  21.524 -20.982  0.00  0.00     0.000 A 
ATOM     15  C   UNL d   1      32.578  22.133 -21.328  0.00  0.00     0.000 A 
ATOM     16  C   UNL d   1      33.127  21.958 -21.919  0.00  0.00     0.000 A 
ATOM     17  C   UNL d   1      32.458  22.922 -21.080  0.00  0.00     0.000 C 
ATOM     18  C   UNL d   1      33.241  21.178 -22.160  0.00  0.00     0.005 A 
ENDBRANCH   4  12
TORSDOF 1
ENDMDL
MODEL 5
REMARK VINA RESULT:      -1.3      5.001      6.329
REMARK  1 active torsions:
REMARK  status: ('A' for Active; 'I' for Inactive)
REMARK       I    between atoms: C_4  and  N_1 
REMARK    1  A    between atoms: C_7  and  C_4 
ROOT
ATOM      1  N   UNL d   1      32.770  21.711 -21.085  0.00  0.00    -0.175 N 
ATOM      2  N   UNL d   1      32.527  22.118 -21.766  0.00  0.00    -0.057 NA
ATOM      3  N   UNL d   1      32.334  22.882 -21.551  0.00  0.00    -0.129 NA
ATOM      4  C   UNL d   1      33.016  20.917 -21.053  0.00  0.00     0.282 C 
ATOM      5  C   UNL d   1      32.726  22.229 -20.446  0.00  0.00     0.107 A 
ATOM      6  C   UNL d   1      32.457  22.955 -20.732  0.00  0.00     0.122 A 
ATOM      7  O   UNL d   1      33.241  20.591 -20.335  0.00  0.00    -0.265 OA
ATOM      8  C   UNL d   1      32.895  22.141 -19.646  0.00  0.00     0.021 A 
ATOM      9  C   UNL d   1      32.355  23.598 -20.209  0.00  0.00     0.022 A 
ATOM     10  C   UNL d   1      32.794  22.776 -19.129  0.00  0.00     0.002 A 
ATOM     11  C   UNL d   1      32.525  23.506 -19.407  0.00  0.00     0.002 A 
ENDROOT
BRANCH   4  12
ATOM     12  C   UNL d   1      33.029  20.467 -21.743  0.00  0.00     0.058 A 
ATOM     13  C   UNL d   1      32.845  19.663 -21.717  0.00  0.00     0.005 A 
ATOM     14  C   UNL d   1      32.859  19.214 -22.407  0.00  0.00     0.000 A 
ATOM     15  C   UNL d   1      33.056  19.559 -23.127  0.00  0.00     0.000 A 
ATOM     16  C   UNL d   1      33.241  20.362 -23.156  0.00  0.00     0.000 A 
ATOM     17  C   UNL d   1      33.067  19.094 -23.822  0.00  0.00     0.000 C 
ATOM     18  C   UNL d   1      33.228  20.815 -22.467  0.00  0.00     0.005 A 
ENDBRANCH   4  12
TORSDOF 1
ENDMDL
MODEL 6
REMARK VINA RESULT:      -1.2      7.170      8.360
REMARK  1 active torsions:
REMARK  status: ('A' for Active; 'I' for Inactive)
REMARK       I    between atoms: C_4  and  N_1 
REMARK    1  A    between atoms: C_7  and  C_4 
ROOT
ATOM      1  N   UNL d   1      32.619  22.479 -19.572  0.00  0.00    -0.175 N 
ATOM      2  N   UNL d   1      33.070  21.851 -19.272  0.00  0.00    -0.057 NA
ATOM      3  N   UNL d   1      33.241  21.343 -19.888  0.00  0.00    -0.129 NA
ATOM      4  C   UNL d   1      32.325  23.122 -19.135  0.00  0.00     0.282 C 
ATOM      5  C   UNL d   1      32.511  22.355 -20.380  0.00  0.00     0.107 A 
ATOM      6  C   UNL d   1      32.896  21.652 -20.578  0.00  0.00     0.122 A 
ATOM      7  O   UNL d   1      31.885  23.702 -19.512  0.00  0.00    -0.265 OA
ATOM      8  C   UNL d   1      32.118  22.784 -20.961  0.00  0.00     0.021 A 
ATOM      9  C   UNL d   1      32.885  21.378 -21.367  0.00  0.00     0.022 A 
ATOM     10  C   UNL d   1      32.107  22.513 -21.740  0.00  0.00     0.002 A 
ATOM     11  C   UNL d   1      32.490  21.810 -21.947  0.00  0.00     0.002 A 
ENDROOT
BRANCH   4  12
ATOM     12  C   UNL d   1      32.479  23.169 -18.327  0.00  0.00     0.058 A 
ATOM     13  C   UNL d   1      32.026  22.734 -17.793  0.00  0.00     0.005 A 
ATOM     14  C   UNL d   1      32.180  22.780 -16.985  0.00  0.00     0.000 A 
ATOM     15  C   UNL d   1      32.786  23.259 -16.702  0.00  0.00     0.000 A 
ATOM     16  C   UNL d   1      33.241  23.695 -17.234  0.00  0.00     0.000 A 
ATOM     17  C   UNL d   1      32.935  23.300 -15.881  0.00  0.00     0.000 C 
ATOM     18  C   UNL d   1      33.089  23.651 -18.043  0.00  0.00     0.005 A 
ENDBRANCH   4  12
TORSDOF 1
ENDMDL
MODEL 7
REMARK VINA RESULT:      -1.2      4.075      5.611
REMARK  1 active torsions:
REMARK  status: ('A' for Active; 'I' for Inactive)
REMARK       I    between atoms: C_4  and  N_1 
REMARK    1  A    between atoms: C_7  and  C_4 
ROOT
ATOM      1  N   UNL d   1      32.662  20.953 -21.959  0.00  0.00    -0.175 N 
ATOM      2  N   UNL d   1      32.351  20.536 -21.312  0.00  0.00    -0.057 NA
ATOM      3  N   UNL d   1      32.136  21.077 -20.740  0.00  0.00    -0.129 NA
ATOM      4  C   UNL d   1      32.950  20.617 -22.663  0.00  0.00     0.282 C 
ATOM      5  C   UNL d   1      32.637  21.757 -21.782  0.00  0.00     0.107 A 
ATOM      6  C   UNL d   1      32.312  21.837 -21.027  0.00  0.00     0.122 A 
ATOM      7  O   UNL d   1      33.241  21.105 -23.255  0.00  0.00    -0.265 OA
ATOM      8  C   UNL d   1      32.865  22.426 -22.202  0.00  0.00     0.021 A 
ATOM      9  C   UNL d   1      32.214  22.596 -20.692  0.00  0.00     0.022 A 
ATOM     10  C   UNL d   1      32.769  23.176 -21.871  0.00  0.00     0.002 A 
ATOM     11  C   UNL d   1      32.444  23.265 -21.116  0.00  0.00     0.002 A 
ENDROOT
BRANCH   4  12
ATOM     12  C   UNL d   1      32.938  19.799 -22.759  0.00  0.00     0.058 A 
ATOM     13  C   UNL d   1      33.241  19.309 -22.168  0.00  0.00     0.005 A 
ATOM     14  C   UNL d   1      33.229  18.491 -22.264  0.00  0.00     0.000 A 
ATOM     15  C   UNL d   1      32.917  18.154 -22.946  0.00  0.00     0.000 A 
ATOM     16  C   UNL d   1      32.613  18.642 -23.538  0.00  0.00     0.000 A 
ATOM     17  C   UNL d   1      32.909  17.323 -23.034  0.00  0.00     0.000 C 
ATOM     18  C   UNL d   1      32.623  19.461 -23.445  0.00  0.00     0.005 A 
ENDBRANCH   4  12
TORSDOF 1
ENDMDL
MODEL 8
REMARK VINA RESULT:      -1.1      3.868      5.326
REMARK  1 active torsions:
REMARK  status: ('A' for Active; 'I' for Inactive)
REMARK       I    between atoms: C_4  and  N_1 
REMARK    1  A    between atoms: C_7  and  C_4 
ROOT
ATOM      1  N   UNL d   1      32.935  20.565 -21.904  0.00  0.00    -0.175 N 
ATOM      2  N   UNL d   1      32.733  21.106 -22.501  0.00  0.00    -0.057 NA
ATOM      3  N   UNL d   1      32.687  21.848 -22.166  0.00  0.00    -0.129 NA
ATOM      4  C   UNL d   1      33.040  19.746 -22.003  0.00  0.00     0.282 C 
ATOM      5  C   UNL d   1      33.014  20.980 -21.197  0.00  0.00     0.107 A 
ATOM      6  C   UNL d   1      32.860  21.776 -21.356  0.00  0.00     0.122 A 
ATOM      7  O   UNL d   1      33.241  19.282 -21.357  0.00  0.00    -0.265 OA
ATOM      8  C   UNL d   1      33.203  20.745 -20.432  0.00  0.00     0.021 A 
ATOM      9  C   UNL d   1      32.898  22.339 -20.741  0.00  0.00     0.022 A 
ATOM     10  C   UNL d   1      33.240  21.302 -19.824  0.00  0.00     0.002 A 
ATOM     11  C   UNL d   1      33.088  22.100 -19.975  0.00  0.00     0.002 A 
ENDROOT
BRANCH   4  12
ATOM     12  C   UNL d   1      32.942  19.410 -22.749  0.00  0.00     0.058 A 
ATOM     13  C   UNL d   1      33.239  19.791 -23.417  0.00  0.00     0.005 A 
ATOM     14  C   UNL d   1      33.141  19.456 -24.163  0.00  0.00     0.000 A 
ATOM     15  C   UNL d   1      32.747  18.739 -24.250  0.00  0.00     0.000 A 
ATOM     16  C   UNL d   1      32.448  18.356 -23.583  0.00  0.00     0.000 A 
ATOM     17  C   UNL d   1      32.651  18.406 -25.011  0.00  0.00     0.000 C 
ATOM     18  C   UNL d   1      32.545  18.689 -22.836  0.00  0.00     0.005 A 
ENDBRANCH   4  12
TORSDOF 1
ENDMDL
MODEL 9
REMARK VINA RESULT:      -1.0      5.255      6.789
REMARK  1 active torsions:
REMARK  status: ('A' for Active; 'I' for Inactive)
REMARK       I    between atoms: C_4  and  N_1 
REMARK    1  A    between atoms: C_7  and  C_4 
ROOT
ATOM      1  N   UNL d   1      32.870  22.062 -22.326  0.00  0.00    -0.175 N 
ATOM      2  N   UNL d   1      32.921  22.875 -22.486  0.00  0.00    -0.057 NA
ATOM      3  N   UNL d   1      33.062  22.969 -23.284  0.00  0.00    -0.129 NA
ATOM      4  C   UNL d   1      32.731  21.719 -21.581  0.00  0.00     0.282 C 
ATOM      5  C   UNL d   1      32.982  21.654 -23.033  0.00  0.00     0.107 A 
ATOM      6  C   UNL d   1      33.101  22.213 -23.628  0.00  0.00     0.122 A 
ATOM      7  O   UNL d   1      32.696  20.903 -21.512  0.00  0.00    -0.265 OA
ATOM      8  C   UNL d   1      32.992  20.853 -23.217  0.00  0.00     0.021 A 
ATOM      9  C   UNL d   1      33.232  21.965 -24.415  0.00  0.00     0.022 A 
ATOM     10  C   UNL d   1      33.121  20.607 -23.994  0.00  0.00     0.002 A 
ATOM     11  C   UNL d   1      33.241  21.160 -24.595  0.00  0.00     0.002 A 
ENDROOT
BRANCH   4  12
ATOM     12  C   UNL d   1      32.629  22.204 -20.923  0.00  0.00     0.058 A 
ATOM     13  C   UNL d   1      33.236  22.281 -20.369  0.00  0.00     0.005 A 
ATOM     14  C   UNL d   1      33.134  22.765 -19.710  0.00  0.00     0.000 A 
ATOM     15  C   UNL d   1      32.430  23.176 -19.597  0.00  0.00     0.000 A 
ATOM     16  C   UNL d   1      31.823  23.099 -20.150  0.00  0.00     0.000 A 
ATOM     17  C   UNL d   1      32.336  23.665 -18.926  0.00  0.00     0.000 C 
ATOM     18  C   UNL d   1      31.921  22.616 -20.810  0.00  0.00     0.005 A 
ENDBRANCH   4  12
TORSDOF 1
ENDMDL
