MODEL 1
REMARK VINA RESULT:      -8.8      0.000      0.000
REMARK  2 active torsions:
REMARK  status: ('A' for Active; 'I' for Inactive)
REMARK       I    between atoms: C_3  and  N_1 
REMARK    1  A    between atoms: C_6  and  C_3 
REMARK    2  A    between atoms: O_16  and  C_11 
ROOT
ATOM      1  N   UNL d   1      53.327  31.628  53.822  0.00  0.00    -0.175 N 
ATOM      2  N   UNL d   1      53.158  32.029  53.124  0.00  0.00    -0.057 NA
ATOM      3  C   UNL d   1      53.559  31.972  54.534  0.00  0.00     0.282 C 
ATOM      4  N   UNL d   1      52.949  31.481  52.551  0.00  0.00    -0.129 NA
ATOM      5  C   UNL d   1      53.218  30.816  53.669  0.00  0.00     0.107 A 
ATOM      6  C   UNL d   1      52.989  30.726  52.896  0.00  0.00     0.122 A 
ATOM      7  O   UNL d   1      53.709  31.499  55.187  0.00  0.00    -0.265 OA
ATOM      8  C   UNL d   1      53.304  30.153  54.150  0.00  0.00     0.021 A 
ATOM      9  C   UNL d   1      52.838  29.964  52.584  0.00  0.00     0.022 A 
ATOM     10  C   UNL d   1      53.160  29.396  53.860  0.00  0.00     0.002 A 
ATOM     11  C   UNL d   1      52.924  29.296  53.065  0.00  0.00     0.002 A 
ENDROOT
BRANCH   3  12
ATOM     12  C   UNL d   1      53.639  32.790  54.586  0.00  0.00     0.059 A 
ATOM     13  C   UNL d   1      54.368  33.130  54.742  0.00  0.00     0.013 A 
ATOM     14  C   UNL d   1      54.455  33.951  54.795  0.00  0.00     0.057 A 
ATOM     15 BR   UNL d   1      55.191  34.287  54.952  0.00  0.00    -0.047 Br
ATOM     16  C   UNL d   1      53.795  34.439  54.690  0.00  0.00     0.100 A 
ATOM     17  C   UNL d   1      53.059  34.102  54.534  0.00  0.00     0.025 A 
ATOM     18  C   UNL d   1      52.983  33.279  54.482  0.00  0.00     0.007 A 
BRANCH  16  19
ATOM     19  O   UNL d   1      53.858  35.269  54.740  0.00  0.00    -0.328 OA
ATOM     20  C   UNL d   1      53.201  35.750  54.580  0.00  0.00     0.181 C 
ENDBRANCH  16  19
ENDBRANCH   3  12
TORSDOF 2
ENDMDL
MODEL 2
REMARK VINA RESULT:      -8.6      3.092      3.830
REMARK  2 active torsions:
REMARK  status: ('A' for Active; 'I' for Inactive)
REMARK       I    between atoms: C_3  and  N_1 
REMARK    1  A    between atoms: C_6  and  C_3 
REMARK    2  A    between atoms: O_16  and  C_11 
ROOT
ATOM      1  N   UNL d   1      52.365  33.328  53.066  0.00  0.00    -0.175 N 
ATOM      2  N   UNL d   1      51.956  32.641  52.870  0.00  0.00    -0.057 NA
ATOM      3  C   UNL d   1      52.099  34.099  52.950  0.00  0.00     0.282 C 
ATOM      4  N   UNL d   1      52.415  31.994  53.077  0.00  0.00    -0.129 NA
ATOM      5  C   UNL d   1      53.090  33.091  53.400  0.00  0.00     0.107 A 
ATOM      6  C   UNL d   1      53.122  32.280  53.407  0.00  0.00     0.122 A 
ATOM      7  O   UNL d   1      52.572  34.732  53.175  0.00  0.00    -0.265 OA
ATOM      8  C   UNL d   1      53.723  33.527  53.696  0.00  0.00     0.021 A 
ATOM      9  C   UNL d   1      53.792  31.884  53.713  0.00  0.00     0.022 A 
ATOM     10  C   UNL d   1      54.390  33.154  54.002  0.00  0.00     0.002 A 
ATOM     11  C   UNL d   1      54.429  32.320  54.012  0.00  0.00     0.002 A 
ENDROOT
BRANCH   3  12
ATOM     12  C   UNL d   1      51.361  34.231  52.610  0.00  0.00     0.059 A 
ATOM     13  C   UNL d   1      50.729  34.484  53.066  0.00  0.00     0.013 A 
ATOM     14  C   UNL d   1      49.985  34.619  52.730  0.00  0.00     0.057 A 
ATOM     15 BR   UNL d   1      49.354  34.873  53.195  0.00  0.00    -0.047 Br
ATOM     16  C   UNL d   1      49.875  34.496  51.919  0.00  0.00     0.100 A 
ATOM     17  C   UNL d   1      50.508  34.242  51.456  0.00  0.00     0.025 A 
ATOM     18  C   UNL d   1      51.249  34.110  51.802  0.00  0.00     0.007 A 
BRANCH  16  19
ATOM     19  O   UNL d   1      49.135  34.625  51.559  0.00  0.00    -0.328 OA
ATOM     20  C   UNL d   1      49.025  34.455  50.754  0.00  0.00     0.181 C 
ENDBRANCH  16  19
ENDBRANCH   3  12
TORSDOF 2
ENDMDL
MODEL 3
REMARK VINA RESULT:      -8.4      1.942      4.256
REMARK  2 active torsions:
REMARK  status: ('A' for Active; 'I' for Inactive)
REMARK       I    between atoms: C_3  and  N_1 
REMARK    1  A    between atoms: C_6  and  C_3 
REMARK    2  A    between atoms: O_16  and  C_11 
ROOT
ATOM      1  N   UNL d   1      53.086  32.857  53.771  0.00  0.00    -0.175 N 
ATOM      2  N   UNL d   1      53.311  32.678  54.542  0.00  0.00    -0.057 NA
ATOM      3  C   UNL d   1      52.941  32.312  53.170  0.00  0.00     0.282 C 
ATOM      4  N   UNL d   1      53.398  33.379  54.960  0.00  0.00    -0.129 NA
ATOM      5  C   UNL d   1      53.035  33.687  53.720  0.00  0.00     0.107 A 
ATOM      6  C   UNL d   1      53.224  34.005  54.441  0.00  0.00     0.122 A 
ATOM      7  O   UNL d   1      52.720  32.574  52.425  0.00  0.00    -0.265 OA
ATOM      8  C   UNL d   1      52.837  34.184  53.093  0.00  0.00     0.021 A 
ATOM      9  C   UNL d   1      53.219  34.834  54.554  0.00  0.00     0.022 A 
ATOM     10  C   UNL d   1      52.827  35.002  53.186  0.00  0.00     0.002 A 
ATOM     11  C   UNL d   1      53.021  35.336  53.927  0.00  0.00     0.002 A 
ENDROOT
BRANCH   3  12
ATOM     12  C   UNL d   1      53.019  31.506  53.322  0.00  0.00     0.059 A 
ATOM     13  C   UNL d   1      52.365  31.012  53.309  0.00  0.00     0.013 A 
ATOM     14  C   UNL d   1      52.437  30.202  53.460  0.00  0.00     0.057 A 
ATOM     15 BR   UNL d   1      51.775  29.712  53.445  0.00  0.00    -0.047 Br
ATOM     16  C   UNL d   1      53.182  29.883  53.627  0.00  0.00     0.100 A 
ATOM     17  C   UNL d   1      53.843  30.375  53.641  0.00  0.00     0.025 A 
ATOM     18  C   UNL d   1      53.760  31.185  53.488  0.00  0.00     0.007 A 
BRANCH  16  19
ATOM     19  O   UNL d   1      53.279  29.069  53.782  0.00  0.00    -0.328 OA
ATOM     20  C   UNL d   1      53.622  28.816  54.494  0.00  0.00     0.181 C 
ENDBRANCH  16  19
ENDBRANCH   3  12
TORSDOF 2
ENDMDL
MODEL 4
REMARK VINA RESULT:      -7.5      2.769      3.739
REMARK  2 active torsions:
REMARK  status: ('A' for Active; 'I' for Inactive)
REMARK       I    between atoms: C_3  and  N_1 
REMARK    1  A    between atoms: C_6  and  C_3 
REMARK    2  A    between atoms: O_16  and  C_11 
ROOT
ATOM      1  N   UNL d   1      51.470  33.895  52.932  0.00  0.00    -0.175 N 
ATOM      2  N   UNL d   1      51.206  33.933  53.710  0.00  0.00    -0.057 NA
ATOM      3  C   UNL d   1      52.227  33.679  52.687  0.00  0.00     0.282 C 
ATOM      4  N   UNL d   1      50.421  34.170  53.710  0.00  0.00    -0.129 NA
ATOM      5  C   UNL d   1      50.829  34.114  52.448  0.00  0.00     0.107 A 
ATOM      6  C   UNL d   1      50.191  34.281  52.920  0.00  0.00     0.122 A 
ATOM      7  O   UNL d   1      52.409  33.667  51.887  0.00  0.00    -0.265 OA
ATOM      8  C   UNL d   1      50.759  34.178  51.629  0.00  0.00     0.021 A 
ATOM      9  C   UNL d   1      49.463  34.519  52.582  0.00  0.00     0.022 A 
ATOM     10  C   UNL d   1      50.051  34.411  51.280  0.00  0.00     0.002 A 
ATOM     11  C   UNL d   1      49.391  34.584  51.761  0.00  0.00     0.002 A 
ENDROOT
BRANCH   3  12
ATOM     12  C   UNL d   1      52.796  33.478  53.246  0.00  0.00     0.059 A 
ATOM     13  C   UNL d   1      53.000  32.694  53.373  0.00  0.00     0.013 A 
ATOM     14  C   UNL d   1      53.571  32.485  53.934  0.00  0.00     0.057 A 
ATOM     15 BR   UNL d   1      53.771  31.695  54.056  0.00  0.00    -0.047 Br
ATOM     16  C   UNL d   1      53.945  33.076  54.376  0.00  0.00     0.100 A 
ATOM     17  C   UNL d   1      53.743  33.866  54.252  0.00  0.00     0.025 A 
ATOM     18  C   UNL d   1      53.170  34.065  53.688  0.00  0.00     0.007 A 
BRANCH  16  19
ATOM     19  O   UNL d   1      54.523  32.890  54.946  0.00  0.00    -0.328 OA
ATOM     20  C   UNL d   1      54.909  33.493  55.366  0.00  0.00     0.181 C 
ENDBRANCH  16  19
ENDBRANCH   3  12
TORSDOF 2
ENDMDL
