MODEL 1
REMARK VINA RESULT:      -9.3      0.000      0.000
REMARK  4 active torsions:
REMARK  status: ('A' for Active; 'I' for Inactive)
REMARK    1  A    between atoms: N_5  and  S_1 
REMARK    2  A    between atoms: C_8  and  S_1 
REMARK    3  A    between atoms: C_18  and  N_2 
REMARK    4  A    between atoms: C_10  and  N_5 
ROOT
ATOM      1  N   UNL d   1      54.000  33.578  54.320  0.00  0.00    -0.273 N 
ATOM      2  C   UNL d   1      54.063  32.802  54.048  0.00  0.00     0.265 A 
ATOM      3  C   UNL d   1      53.293  33.920  54.030  0.00  0.00     0.067 A 
ATOM      4  C   UNL d   1      52.919  33.333  53.568  0.00  0.00     0.021 A 
ATOM      5  C   UNL d   1      53.382  32.654  53.577  0.00  0.00     0.058 A 
ATOM      6  C   UNL d   1      51.763  34.029  53.148  0.00  0.00     0.105 A 
ATOM      7  C   UNL d   1      52.231  33.350  53.159  0.00  0.00     0.014 A 
ATOM      8  C   UNL d   1      52.961  34.655  54.123  0.00  0.00     0.018 A 
ATOM      9  C   UNL d   1      51.987  34.677  53.542  0.00  0.00     0.014 A 
ATOM     10  O   UNL d   1      54.703  32.278  54.225  0.00  0.00    -0.267 OA
ATOM     11  C   UNL d   1      53.157  31.992  53.175  0.00  0.00     0.005 A 
ATOM     12  C   UNL d   1      51.979  32.674  52.736  0.00  0.00     0.001 A 
ATOM     13  C   UNL d   1      52.418  31.981  52.724  0.00  0.00     0.000 A 
ENDROOT
BRANCH   6  14
ATOM     14  S   UNL d   1      51.061  34.031  52.724  0.00  0.00     0.287 S 
ATOM     15  O   UNL d   1      50.682  33.613  53.321  0.00  0.00    -0.198 OA
ATOM     16  O   UNL d   1      51.419  34.465  52.086  0.00  0.00    -0.198 OA
BRANCH  14  17
ATOM     17  N   UNL d   1      50.345  34.034  52.292  0.00  0.00    -0.139 NA
BRANCH  17  18
ATOM     18  C   UNL d   1      49.737  34.556  52.449  0.00  0.00     0.174 A 
ATOM     19  N   UNL d   1      49.722  34.891  53.212  0.00  0.00    -0.225 NA
ATOM     20  C   UNL d   1      49.128  35.421  53.414  0.00  0.00     0.101 A 
ATOM     21  C   UNL d   1      48.545  35.618  52.850  0.00  0.00     0.021 A 
ATOM     22  C   UNL d   1      48.555  35.284  52.083  0.00  0.00     0.005 A 
ATOM     23  C   UNL d   1      49.153  34.753  51.884  0.00  0.00     0.037 A 
ATOM     24  C   UNL d   1      49.548  34.159  51.180  0.00  0.00     0.003 C 
ENDBRANCH  17  18
ENDBRANCH  14  17
ENDBRANCH   6  14
BRANCH   1  25
ATOM     25  C   UNL d   1      54.552  33.948  54.802  0.00  0.00     0.083 C 
ATOM     26  C   UNL d   1      54.754  33.592  55.513  0.00  0.00     0.021 C 
ENDBRANCH   1  25
TORSDOF 4
ENDMDL
MODEL 2
REMARK VINA RESULT:      -8.8      0.698      1.859
REMARK  4 active torsions:
REMARK  status: ('A' for Active; 'I' for Inactive)
REMARK    1  A    between atoms: N_5  and  S_1 
REMARK    2  A    between atoms: C_8  and  S_1 
REMARK    3  A    between atoms: C_18  and  N_2 
REMARK    4  A    between atoms: C_10  and  N_5 
ROOT
ATOM      1  N   UNL d   1      53.607  32.327  53.523  0.00  0.00    -0.273 N 
ATOM      2  C   UNL d   1      53.956  32.939  53.953  0.00  0.00     0.265 A 
ATOM      3  C   UNL d   1      52.855  32.572  53.249  0.00  0.00     0.067 A 
ATOM      4  C   UNL d   1      52.747  33.354  53.520  0.00  0.00     0.021 A 
ATOM      5  C   UNL d   1      53.411  33.580  53.947  0.00  0.00     0.058 A 
ATOM      6  C   UNL d   1      51.466  33.638  52.996  0.00  0.00     0.105 A 
ATOM      7  C   UNL d   1      52.134  33.861  53.423  0.00  0.00     0.014 A 
ATOM      8  C   UNL d   1      52.285  32.199  52.807  0.00  0.00     0.018 A 
ATOM      9  C   UNL d   1      51.418  32.918  52.672  0.00  0.00     0.014 A 
ATOM     10  O   UNL d   1      54.717  32.900  54.319  0.00  0.00    -0.267 OA
ATOM     11  C   UNL d   1      53.463  34.314  54.278  0.00  0.00     0.005 A 
ATOM     12  C   UNL d   1      52.168  34.626  53.758  0.00  0.00     0.001 A 
ATOM     13  C   UNL d   1      52.817  34.882  54.190  0.00  0.00     0.000 A 
ENDROOT
BRANCH   6  14
ATOM     14  S   UNL d   1      50.847  34.167  52.905  0.00  0.00     0.287 S 
ATOM     15  O   UNL d   1      51.266  34.585  52.336  0.00  0.00    -0.198 OA
ATOM     16  O   UNL d   1      50.381  33.762  53.490  0.00  0.00    -0.198 OA
BRANCH  14  17
ATOM     17  N   UNL d   1      50.215  34.707  52.813  0.00  0.00    -0.139 NA
BRANCH  17  18
ATOM     18  C   UNL d   1      49.688  34.669  52.190  0.00  0.00     0.174 A 
ATOM     19  N   UNL d   1      49.946  34.259  51.511  0.00  0.00    -0.225 NA
ATOM     20  C   UNL d   1      49.449  34.195  50.859  0.00  0.00     0.101 A 
ATOM     21  C   UNL d   1      48.690  34.543  50.887  0.00  0.00     0.021 A 
ATOM     22  C   UNL d   1      48.428  34.955  51.566  0.00  0.00     0.005 A 
ATOM     23  C   UNL d   1      48.929  35.017  52.217  0.00  0.00     0.037 A 
ATOM     24  C   UNL d   1      49.056  35.366  53.148  0.00  0.00     0.003 C 
ENDBRANCH  17  18
ENDBRANCH  14  17
ENDBRANCH   6  14
BRANCH   1  25
ATOM     25  C   UNL d   1      53.954  31.594  53.393  0.00  0.00     0.083 C 
ATOM     26  C   UNL d   1      53.713  30.959  53.851  0.00  0.00     0.021 C 
ENDBRANCH   1  25
TORSDOF 4
ENDMDL
MODEL 3
REMARK VINA RESULT:      -8.0      2.068      4.224
REMARK  4 active torsions:
REMARK  status: ('A' for Active; 'I' for Inactive)
REMARK    1  A    between atoms: N_5  and  S_1 
REMARK    2  A    between atoms: C_8  and  S_1 
REMARK    3  A    between atoms: C_18  and  N_2 
REMARK    4  A    between atoms: C_10  and  N_5 
ROOT
ATOM      1  N   UNL d   1      52.954  34.869  54.440  0.00  0.00    -0.273 N 
ATOM      2  C   UNL d   1      52.391  35.019  53.856  0.00  0.00     0.265 A 
ATOM      3  C   UNL d   1      53.194  34.068  54.397  0.00  0.00     0.067 A 
ATOM      4  C   UNL d   1      52.764  33.725  53.769  0.00  0.00     0.021 A 
ATOM      5  C   UNL d   1      52.276  34.298  53.438  0.00  0.00     0.058 A 
ATOM      6  C   UNL d   1      53.255  32.401  53.807  0.00  0.00     0.105 A 
ATOM      7  C   UNL d   1      52.768  32.979  53.478  0.00  0.00     0.014 A 
ATOM      8  C   UNL d   1      53.723  33.631  54.830  0.00  0.00     0.018 A 
ATOM      9  C   UNL d   1      53.729  32.574  54.418  0.00  0.00     0.014 A 
ATOM     10  O   UNL d   1      52.018  35.767  53.725  0.00  0.00    -0.267 OA
ATOM     11  C   UNL d   1      51.793  34.124  52.817  0.00  0.00     0.005 A 
ATOM     12  C   UNL d   1      52.274  32.778  52.834  0.00  0.00     0.001 A 
ATOM     13  C   UNL d   1      51.777  33.327  52.482  0.00  0.00     0.000 A 
ENDROOT
BRANCH   6  14
ATOM     14  S   UNL d   1      53.249  31.641  53.499  0.00  0.00     0.287 S 
ATOM     15  O   UNL d   1      52.482  31.522  53.768  0.00  0.00    -0.198 OA
ATOM     16  O   UNL d   1      54.043  31.727  53.206  0.00  0.00    -0.198 OA
BRANCH  14  17
ATOM     17  N   UNL d   1      53.243  30.867  53.185  0.00  0.00    -0.139 NA
BRANCH  17  18
ATOM     18  C   UNL d   1      53.250  30.199  53.656  0.00  0.00     0.174 A 
ATOM     19  N   UNL d   1      53.456  30.311  54.455  0.00  0.00    -0.225 NA
ATOM     20  C   UNL d   1      53.476  29.667  54.966  0.00  0.00     0.101 A 
ATOM     21  C   UNL d   1      53.288  28.907  54.675  0.00  0.00     0.021 A 
ATOM     22  C   UNL d   1      53.080  28.790  53.873  0.00  0.00     0.005 A 
ATOM     23  C   UNL d   1      53.062  29.438  53.364  0.00  0.00     0.037 A 
ATOM     24  C   UNL d   1      52.894  29.770  52.434  0.00  0.00     0.003 C 
ENDBRANCH  17  18
ENDBRANCH  14  17
ENDBRANCH   6  14
BRANCH   1  25
ATOM     25  C   UNL d   1      53.228  35.427  54.976  0.00  0.00     0.083 C 
ATOM     26  C   UNL d   1      53.586  36.106  54.686  0.00  0.00     0.021 C 
ENDBRANCH   1  25
TORSDOF 4
ENDMDL
MODEL 4
REMARK VINA RESULT:      -7.4      2.331      3.589
REMARK  4 active torsions:
REMARK  status: ('A' for Active; 'I' for Inactive)
REMARK    1  A    between atoms: N_5  and  S_1 
REMARK    2  A    between atoms: C_8  and  S_1 
REMARK    3  A    between atoms: C_18  and  N_2 
REMARK    4  A    between atoms: C_10  and  N_5 
ROOT
ATOM      1  N   UNL d   1      53.448  29.595  54.399  0.00  0.00    -0.273 N 
ATOM      2  C   UNL d   1      53.110  29.396  53.672  0.00  0.00     0.265 A 
ATOM      3  C   UNL d   1      53.519  30.426  54.455  0.00  0.00     0.067 A 
ATOM      4  C   UNL d   1      53.217  30.740  53.743  0.00  0.00     0.021 A 
ATOM      5  C   UNL d   1      52.968  30.119  53.266  0.00  0.00     0.058 A 
ATOM      6  C   UNL d   1      53.395  32.123  53.969  0.00  0.00     0.105 A 
ATOM      7  C   UNL d   1      53.147  31.498  53.493  0.00  0.00     0.014 A 
ATOM      8  C   UNL d   1      53.808  30.913  55.038  0.00  0.00     0.018 A 
ATOM      9  C   UNL d   1      53.708  31.986  54.683  0.00  0.00     0.014 A 
ATOM     10  O   UNL d   1      52.950  28.608  53.412  0.00  0.00    -0.267 OA
ATOM     11  C   UNL d   1      52.649  30.256  52.538  0.00  0.00     0.005 A 
ATOM     12  C   UNL d   1      52.818  31.662  52.742  0.00  0.00     0.001 A 
ATOM     13  C   UNL d   1      52.560  31.064  52.242  0.00  0.00     0.000 A 
ENDROOT
BRANCH   6  14
ATOM     14  S   UNL d   1      53.317  32.894  53.700  0.00  0.00     0.287 S 
ATOM     15  O   UNL d   1      52.531  32.913  53.938  0.00  0.00    -0.198 OA
ATOM     16  O   UNL d   1      54.126  32.911  53.440  0.00  0.00    -0.198 OA
BRANCH  14  17
ATOM     17  N   UNL d   1      53.237  33.679  53.426  0.00  0.00    -0.139 NA
BRANCH  17  18
ATOM     18  C   UNL d   1      53.207  34.322  53.929  0.00  0.00     0.174 A 
ATOM     19  N   UNL d   1      53.533  34.215  54.689  0.00  0.00    -0.225 NA
ATOM     20  C   UNL d   1      53.525  34.834  55.228  0.00  0.00     0.101 A 
ATOM     21  C   UNL d   1      53.188  35.565  55.007  0.00  0.00     0.021 A 
ATOM     22  C   UNL d   1      52.859  35.678  54.246  0.00  0.00     0.005 A 
ATOM     23  C   UNL d   1      52.870  35.054  53.708  0.00  0.00     0.037 A 
ATOM     24  C   UNL d   1      52.631  34.735  52.789  0.00  0.00     0.003 C 
ENDBRANCH  17  18
ENDBRANCH  14  17
ENDBRANCH   6  14
BRANCH   1  25
ATOM     25  C   UNL d   1      53.674  29.050  54.970  0.00  0.00     0.083 C 
ATOM     26  C   UNL d   1      53.093  28.703  55.433  0.00  0.00     0.021 C 
ENDBRANCH   1  25
TORSDOF 4
ENDMDL
MODEL 5
REMARK VINA RESULT:      -7.3      1.291      4.853
REMARK  4 active torsions:
REMARK  status: ('A' for Active; 'I' for Inactive)
REMARK    1  A    between atoms: N_5  and  S_1 
REMARK    2  A    between atoms: C_8  and  S_1 
REMARK    3  A    between atoms: C_18  and  N_2 
REMARK    4  A    between atoms: C_10  and  N_5 
ROOT
ATOM      1  N   UNL d   1      47.893  35.877  52.583  0.00  0.00    -0.273 N 
ATOM      2  C   UNL d   1      47.752  35.618  51.812  0.00  0.00     0.265 A 
ATOM      3  C   UNL d   1      48.604  35.540  52.865  0.00  0.00     0.067 A 
ATOM      4  C   UNL d   1      48.902  35.063  52.248  0.00  0.00     0.021 A 
ATOM      5  C   UNL d   1      48.389  35.108  51.608  0.00  0.00     0.058 A 
ATOM      6  C   UNL d   1      50.081  34.565  52.847  0.00  0.00     0.105 A 
ATOM      7  C   UNL d   1      49.563  34.612  52.207  0.00  0.00     0.014 A 
ATOM      8  C   UNL d   1      48.998  35.604  53.572  0.00  0.00     0.018 A 
ATOM      9  C   UNL d   1      49.934  34.965  53.514  0.00  0.00     0.014 A 
ATOM     10  O   UNL d   1      47.085  35.840  51.341  0.00  0.00    -0.267 OA
ATOM     11  C   UNL d   1      48.537  34.702  50.927  0.00  0.00     0.005 A 
ATOM     12  C   UNL d   1      49.735  34.183  51.511  0.00  0.00     0.001 A 
ATOM     13  C   UNL d   1      49.242  34.207  50.855  0.00  0.00     0.000 A 
ENDROOT
BRANCH   6  14
ATOM     14  S   UNL d   1      50.753  34.099  52.791  0.00  0.00     0.287 S 
ATOM     15  O   UNL d   1      51.120  34.659  52.316  0.00  0.00    -0.198 OA
ATOM     16  O   UNL d   1      50.407  33.496  53.281  0.00  0.00    -0.198 OA
BRANCH  14  17
ATOM     17  N   UNL d   1      51.439  33.624  52.735  0.00  0.00    -0.139 NA
BRANCH  17  18
ATOM     18  C   UNL d   1      52.092  33.732  53.214  0.00  0.00     0.174 A 
ATOM     19  N   UNL d   1      52.180  34.486  53.557  0.00  0.00    -0.225 NA
ATOM     20  C   UNL d   1      52.822  34.640  54.046  0.00  0.00     0.101 A 
ATOM     21  C   UNL d   1      53.379  34.036  54.193  0.00  0.00     0.021 A 
ATOM     22  C   UNL d   1      53.295  33.277  53.851  0.00  0.00     0.005 A 
ATOM     23  C   UNL d   1      52.650  33.127  53.361  0.00  0.00     0.037 A 
ATOM     24  C   UNL d   1      52.168  32.461  52.787  0.00  0.00     0.003 C 
ENDBRANCH  17  18
ENDBRANCH  14  17
ENDBRANCH   6  14
BRANCH   1  25
ATOM     25  C   UNL d   1      47.402  36.388  52.998  0.00  0.00     0.083 C 
ATOM     26  C   UNL d   1      46.698  36.095  53.301  0.00  0.00     0.021 C 
ENDBRANCH   1  25
TORSDOF 4
ENDMDL
MODEL 6
REMARK VINA RESULT:      -6.8      2.128      4.456
REMARK  4 active torsions:
REMARK  status: ('A' for Active; 'I' for Inactive)
REMARK    1  A    between atoms: N_5  and  S_1 
REMARK    2  A    between atoms: C_8  and  S_1 
REMARK    3  A    between atoms: C_18  and  N_2 
REMARK    4  A    between atoms: C_10  and  N_5 
ROOT
ATOM      1  N   UNL d   1      52.802  34.756  53.805  0.00  0.00    -0.273 N 
ATOM      2  C   UNL d   1      53.356  34.919  54.395  0.00  0.00     0.265 A 
ATOM      3  C   UNL d   1      52.801  33.935  53.642  0.00  0.00     0.067 A 
ATOM      4  C   UNL d   1      53.370  33.592  54.148  0.00  0.00     0.021 A 
ATOM      5  C   UNL d   1      53.708  34.185  54.606  0.00  0.00     0.058 A 
ATOM      6  C   UNL d   1      53.266  32.233  53.776  0.00  0.00     0.105 A 
ATOM      7  C   UNL d   1      53.603  32.830  54.233  0.00  0.00     0.014 A 
ATOM      8  C   UNL d   1      52.374  33.480  53.122  0.00  0.00     0.018 A 
ATOM      9  C   UNL d   1      52.705  32.402  53.244  0.00  0.00     0.014 A 
ATOM     10  O   UNL d   1      53.517  35.688  54.708  0.00  0.00    -0.267 OA
ATOM     11  C   UNL d   1      54.280  34.015  55.149  0.00  0.00     0.005 A 
ATOM     12  C   UNL d   1      54.194  32.633  54.791  0.00  0.00     0.001 A 
ATOM     13  C   UNL d   1      54.551  33.202  55.263  0.00  0.00     0.000 A 
ENDROOT
BRANCH   6  14
ATOM     14  S   UNL d   1      53.514  31.458  53.874  0.00  0.00     0.287 S 
ATOM     15  O   UNL d   1      52.958  31.339  54.466  0.00  0.00    -0.198 OA
ATOM     16  O   UNL d   1      54.102  31.543  53.266  0.00  0.00    -0.198 OA
BRANCH  14  17
ATOM     17  N   UNL d   1      53.767  30.667  53.974  0.00  0.00    -0.139 NA
BRANCH  17  18
ATOM     18  C   UNL d   1      53.361  30.031  53.663  0.00  0.00     0.174 A 
ATOM     19  N   UNL d   1      53.008  30.144  52.917  0.00  0.00    -0.225 NA
ATOM     20  C   UNL d   1      52.589  29.531  52.565  0.00  0.00     0.101 A 
ATOM     21  C   UNL d   1      52.523  28.800  52.963  0.00  0.00     0.021 A 
ATOM     22  C   UNL d   1      52.875  28.681  53.712  0.00  0.00     0.005 A 
ATOM     23  C   UNL d   1      53.295  29.298  54.061  0.00  0.00     0.037 A 
ATOM     24  C   UNL d   1      53.830  29.609  54.848  0.00  0.00     0.003 C 
ENDBRANCH  17  18
ENDBRANCH  14  17
ENDBRANCH   6  14
BRANCH   1  25
ATOM     25  C   UNL d   1      52.331  35.322  53.441  0.00  0.00     0.083 C 
ATOM     26  C   UNL d   1      51.522  35.301  53.571  0.00  0.00     0.021 C 
ENDBRANCH   1  25
TORSDOF 4
ENDMDL
