MODEL 1
REMARK VINA RESULT:      -5.3      0.000      0.000
REMARK  8 active torsions:
REMARK  status: ('A' for Active; 'I' for Inactive)
REMARK    1  A    between atoms: N_5  and  C_1 
REMARK    2  A    between atoms: C_2  and  N_5 
REMARK    3  A    between atoms: N_3  and  C_2 
REMARK       I    between atoms: C_6  and  N_3 
REMARK    4  A    between atoms: C_13  and  C_6 
REMARK    5  A    between atoms: C_9  and  C_7 
REMARK    6  A    between atoms: C_11  and  C_9 
REMARK    7  A    between atoms: O_21  and  C_11 
REMARK    8  A    between atoms: C_23  and  O_21 
ROOT
ATOM      1  C   UNL d   1     -47.331  12.921  23.207  0.00  0.00     0.225 C 
ATOM      2  S   UNL d   1     -47.483  12.151  23.419  0.00  0.00    -0.037 SA
ENDROOT
BRANCH   1   3
ATOM      3  N   UNL d   1     -46.583  13.241  23.344  0.00  0.00    -0.192 NA
BRANCH   3   4
ATOM      4  C   UNL d   1     -45.920  12.941  22.930  0.00  0.00     0.196 A 
ATOM      5  N   UNL d   1     -45.505  13.312  22.346  0.00  0.00    -0.220 NA
ATOM      6  C   UNL d   1     -44.918  12.813  22.115  0.00  0.00     0.095 A 
ATOM      7  C   UNL d   1     -44.978  12.127  22.568  0.00  0.00     0.058 A 
ATOM      8  S   UNL d   1     -45.598  12.218  23.066  0.00  0.00    -0.046 SA
BRANCH   6   9
ATOM      9  C   UNL d   1     -44.356  12.986  21.516  0.00  0.00     0.088 C 
BRANCH   9  10
ATOM     10  C   UNL d   1     -43.569  12.822  21.609  0.00  0.00     0.302 C 
ATOM     11  O   UNL d   1     -43.298  12.071  21.789  0.00  0.00    -0.259 OA
BRANCH  10  12
ATOM     12  O   UNL d   1     -43.004  13.436  21.518  0.00  0.00    -0.271 OA
BRANCH  12  13
ATOM     13  C   UNL d   1     -42.329  13.291  21.062  0.00  0.00     0.126 C 
ATOM     14  C   UNL d   1     -41.754  13.879  21.045  0.00  0.00     0.029 C 
ENDBRANCH  12  13
ENDBRANCH  10  12
ENDBRANCH   9  10
ENDBRANCH   6   9
ENDBRANCH   3   4
ENDBRANCH   1   3
BRANCH   1  15
ATOM     15  N   UNL d   1     -47.900  13.380  22.863  0.00  0.00    -0.179 NA
ATOM     16  C   UNL d   1     -48.690  13.303  23.111  0.00  0.00     0.281 C 
ATOM     17  O   UNL d   1     -48.885  12.766  23.696  0.00  0.00    -0.265 OA
BRANCH  16  18
ATOM     18  C   UNL d   1     -49.281  13.772  22.761  0.00  0.00     0.058 A 
ATOM     19  C   UNL d   1     -49.312  14.591  22.906  0.00  0.00     0.007 A 
ATOM     20  C   UNL d   1     -49.910  15.038  22.547  0.00  0.00     0.030 A 
ATOM     21  C   UNL d   1     -50.471  14.674  22.051  0.00  0.00     0.140 A 
ATOM     22  C   UNL d   1     -50.430  13.871  21.917  0.00  0.00     0.030 A 
ATOM     23  F   UNL d   1     -51.054  15.110  21.701  0.00  0.00    -0.204 F 
ATOM     24  C   UNL d   1     -49.844  13.414  22.265  0.00  0.00     0.007 A 
ENDBRANCH  16  18
ENDBRANCH   1  15
TORSDOF 8
ENDMDL
MODEL 2
REMARK VINA RESULT:      -4.9      2.246      5.719
REMARK  8 active torsions:
REMARK  status: ('A' for Active; 'I' for Inactive)
REMARK    1  A    between atoms: N_5  and  C_1 
REMARK    2  A    between atoms: C_2  and  N_5 
REMARK    3  A    between atoms: N_3  and  C_2 
REMARK       I    between atoms: C_6  and  N_3 
REMARK    4  A    between atoms: C_13  and  C_6 
REMARK    5  A    between atoms: C_9  and  C_7 
REMARK    6  A    between atoms: C_11  and  C_9 
REMARK    7  A    between atoms: O_21  and  C_11 
REMARK    8  A    between atoms: C_23  and  O_21 
ROOT
ATOM      1  C   UNL d   1     -46.691  13.270  22.935  0.00  0.00     0.225 C 
ATOM      2  S   UNL d   1     -47.127  12.598  23.074  0.00  0.00    -0.037 SA
ENDROOT
BRANCH   1   3
ATOM      3  N   UNL d   1     -46.957  13.996  23.221  0.00  0.00    -0.192 NA
BRANCH   3   4
ATOM      4  C   UNL d   1     -47.705  14.288  22.984  0.00  0.00     0.196 A 
ATOM      5  N   UNL d   1     -48.419  14.122  23.322  0.00  0.00    -0.220 NA
ATOM      6  C   UNL d   1     -48.978  14.526  22.909  0.00  0.00     0.095 A 
ATOM      7  C   UNL d   1     -48.597  14.945  22.310  0.00  0.00     0.058 A 
ATOM      8  S   UNL d   1     -47.813  14.790  22.367  0.00  0.00    -0.046 SA
BRANCH   6   9
ATOM      9  C   UNL d   1     -49.800  14.507  23.079  0.00  0.00     0.088 C 
BRANCH   9  10
ATOM     10  C   UNL d   1     -50.267  13.883  22.861  0.00  0.00     0.302 C 
ATOM     11  O   UNL d   1     -50.520  13.776  22.090  0.00  0.00    -0.259 OA
BRANCH  10  12
ATOM     12  O   UNL d   1     -50.506  13.322  23.438  0.00  0.00    -0.271 OA
BRANCH  12  13
ATOM     13  C   UNL d   1     -51.053  12.739  23.223  0.00  0.00     0.126 C 
ATOM     14  C   UNL d   1     -51.049  12.041  23.658  0.00  0.00     0.029 C 
ENDBRANCH  12  13
ENDBRANCH  10  12
ENDBRANCH   9  10
ENDBRANCH   6   9
ENDBRANCH   3   4
ENDBRANCH   1   3
BRANCH   1  15
ATOM     15  N   UNL d   1     -45.998  13.239  22.519  0.00  0.00    -0.179 NA
ATOM     16  C   UNL d   1     -45.418  12.684  22.735  0.00  0.00     0.281 C 
ATOM     17  O   UNL d   1     -45.551  12.176  23.362  0.00  0.00    -0.265 OA
BRANCH  16  18
ATOM     18  C   UNL d   1     -44.703  12.647  22.312  0.00  0.00     0.058 A 
ATOM     19  C   UNL d   1     -44.136  12.064  22.489  0.00  0.00     0.007 A 
ATOM     20  C   UNL d   1     -43.431  12.047  22.055  0.00  0.00     0.030 A 
ATOM     21  C   UNL d   1     -43.292  12.603  21.451  0.00  0.00     0.140 A 
ATOM     22  C   UNL d   1     -43.856  13.169  21.287  0.00  0.00     0.030 A 
ATOM     23  F   UNL d   1     -42.605  12.585  21.028  0.00  0.00    -0.204 F 
ATOM     24  C   UNL d   1     -44.558  13.200  21.709  0.00  0.00     0.007 A 
ENDBRANCH  16  18
ENDBRANCH   1  15
TORSDOF 8
ENDMDL
MODEL 3
REMARK VINA RESULT:      -4.3      1.711      2.416
REMARK  8 active torsions:
REMARK  status: ('A' for Active; 'I' for Inactive)
REMARK    1  A    between atoms: N_5  and  C_1 
REMARK    2  A    between atoms: C_2  and  N_5 
REMARK    3  A    between atoms: N_3  and  C_2 
REMARK       I    between atoms: C_6  and  N_3 
REMARK    4  A    between atoms: C_13  and  C_6 
REMARK    5  A    between atoms: C_9  and  C_7 
REMARK    6  A    between atoms: C_11  and  C_9 
REMARK    7  A    between atoms: O_21  and  C_11 
REMARK    8  A    between atoms: C_23  and  O_21 
ROOT
ATOM      1  C   UNL d   1     -47.123  13.600  22.560  0.00  0.00     0.225 C 
ATOM      2  S   UNL d   1     -46.989  14.293  22.965  0.00  0.00    -0.037 SA
ENDROOT
BRANCH   1   3
ATOM      3  N   UNL d   1     -46.641  13.403  21.920  0.00  0.00    -0.192 NA
BRANCH   3   4
ATOM      4  C   UNL d   1     -45.855  13.148  22.054  0.00  0.00     0.196 A 
ATOM      5  N   UNL d   1     -45.584  12.728  22.688  0.00  0.00    -0.220 NA
ATOM      6  C   UNL d   1     -44.796  12.611  22.578  0.00  0.00     0.095 A 
ATOM      7  C   UNL d   1     -44.585  12.967  21.865  0.00  0.00     0.058 A 
ATOM      8  S   UNL d   1     -45.246  13.294  21.552  0.00  0.00    -0.046 SA
BRANCH   6   9
ATOM      9  C   UNL d   1     -44.298  12.196  23.111  0.00  0.00     0.088 C 
BRANCH   9  10
ATOM     10  C   UNL d   1     -44.003  11.463  22.936  0.00  0.00     0.302 C 
ATOM     11  O   UNL d   1     -43.363  11.357  22.437  0.00  0.00    -0.259 OA
BRANCH  10  12
ATOM     12  O   UNL d   1     -44.358  10.782  23.275  0.00  0.00    -0.271 OA
BRANCH  12  13
ATOM     13  C   UNL d   1     -43.868  10.199  23.601  0.00  0.00     0.126 C 
ATOM     14  C   UNL d   1     -44.190   9.448  23.696  0.00  0.00     0.029 C 
ENDBRANCH  12  13
ENDBRANCH  10  12
ENDBRANCH   9  10
ENDBRANCH   6   9
ENDBRANCH   3   4
ENDBRANCH   1   3
BRANCH   1  15
ATOM     15  N   UNL d   1     -47.720  13.100  22.773  0.00  0.00    -0.179 NA
ATOM     16  C   UNL d   1     -48.508  13.362  22.722  0.00  0.00     0.281 C 
ATOM     17  O   UNL d   1     -48.672  14.119  22.459  0.00  0.00    -0.265 OA
BRANCH  16  18
ATOM     18  C   UNL d   1     -49.129  12.853  22.940  0.00  0.00     0.058 A 
ATOM     19  C   UNL d   1     -49.905  12.998  22.681  0.00  0.00     0.007 A 
ATOM     20  C   UNL d   1     -50.507  12.477  22.910  0.00  0.00     0.030 A 
ATOM     21  C   UNL d   1     -50.338  11.819  23.392  0.00  0.00     0.140 A 
ATOM     22  C   UNL d   1     -49.572  11.689  23.640  0.00  0.00     0.030 A 
ATOM     23  F   UNL d   1     -50.925  11.312  23.616  0.00  0.00    -0.204 F 
ATOM     24  C   UNL d   1     -48.965  12.195  23.421  0.00  0.00     0.007 A 
ENDBRANCH  16  18
ENDBRANCH   1  15
TORSDOF 8
ENDMDL
MODEL 4
REMARK VINA RESULT:      -4.0      7.738      9.227
REMARK  8 active torsions:
REMARK  status: ('A' for Active; 'I' for Inactive)
REMARK    1  A    between atoms: N_5  and  C_1 
REMARK    2  A    between atoms: C_2  and  N_5 
REMARK    3  A    between atoms: N_3  and  C_2 
REMARK       I    between atoms: C_6  and  N_3 
REMARK    4  A    between atoms: C_13  and  C_6 
REMARK    5  A    between atoms: C_9  and  C_7 
REMARK    6  A    between atoms: C_11  and  C_9 
REMARK    7  A    between atoms: O_21  and  C_11 
REMARK    8  A    between atoms: C_23  and  O_21 
ROOT
ATOM      1  C   UNL d   1     -40.692  15.279  18.572  0.00  0.00     0.225 C 
ATOM      2  S   UNL d   1     -41.390  15.693  18.522  0.00  0.00    -0.037 SA
ENDROOT
BRANCH   1   3
ATOM      3  N   UNL d   1     -40.479  14.765  17.962  0.00  0.00    -0.192 NA
BRANCH   3   4
ATOM      4  C   UNL d   1     -39.932  15.015  17.380  0.00  0.00     0.196 A 
ATOM      5  N   UNL d   1     -39.296  14.601  17.104  0.00  0.00    -0.220 NA
ATOM      6  C   UNL d   1     -38.934  15.059  16.552  0.00  0.00     0.095 A 
ATOM      7  C   UNL d   1     -39.358  15.764  16.491  0.00  0.00     0.058 A 
ATOM      8  S   UNL d   1     -39.970  15.724  17.006  0.00  0.00    -0.046 SA
BRANCH   6   9
ATOM      9  C   UNL d   1     -38.246  14.836  16.126  0.00  0.00     0.088 C 
BRANCH   9  10
ATOM     10  C   UNL d   1     -38.173  14.105  15.786  0.00  0.00     0.302 C 
ATOM     11  O   UNL d   1     -37.945  13.446  16.213  0.00  0.00    -0.259 OA
BRANCH  10  12
ATOM     12  O   UNL d   1     -38.334  14.011  14.967  0.00  0.00    -0.271 OA
BRANCH  12  13
ATOM     13  C   UNL d   1     -37.942  13.412  14.551  0.00  0.00     0.126 C 
ATOM     14  C   UNL d   1     -38.115  13.335  13.751  0.00  0.00     0.029 C 
ENDBRANCH  12  13
ENDBRANCH  10  12
ENDBRANCH   9  10
ENDBRANCH   6   9
ENDBRANCH   3   4
ENDBRANCH   1   3
BRANCH   1  15
ATOM     15  N   UNL d   1     -40.202  15.361  19.208  0.00  0.00    -0.179 NA
ATOM     16  C   UNL d   1     -40.472  15.135  19.962  0.00  0.00     0.281 C 
ATOM     17  O   UNL d   1     -41.227  14.834  20.053  0.00  0.00    -0.265 OA
BRANCH  16  18
ATOM     18  C   UNL d   1     -39.973  15.216  20.622  0.00  0.00     0.058 A 
ATOM     19  C   UNL d   1     -40.243  15.591  21.313  0.00  0.00     0.007 A 
ATOM     20  C   UNL d   1     -39.728  15.660  21.958  0.00  0.00     0.030 A 
ATOM     21  C   UNL d   1     -38.953  15.360  21.916  0.00  0.00     0.140 A 
ATOM     22  C   UNL d   1     -38.700  14.994  21.232  0.00  0.00     0.030 A 
ATOM     23  F   UNL d   1     -38.451  15.427  22.545  0.00  0.00    -0.204 F 
ATOM     24  C   UNL d   1     -39.198  14.918  20.585  0.00  0.00     0.007 A 
ENDBRANCH  16  18
ENDBRANCH   1  15
TORSDOF 8
ENDMDL
MODEL 5
REMARK VINA RESULT:      -3.9      6.198      9.574
REMARK  8 active torsions:
REMARK  status: ('A' for Active; 'I' for Inactive)
REMARK    1  A    between atoms: N_5  and  C_1 
REMARK    2  A    between atoms: C_2  and  N_5 
REMARK    3  A    between atoms: N_3  and  C_2 
REMARK       I    between atoms: C_6  and  N_3 
REMARK    4  A    between atoms: C_13  and  C_6 
REMARK    5  A    between atoms: C_9  and  C_7 
REMARK    6  A    between atoms: C_11  and  C_9 
REMARK    7  A    between atoms: O_21  and  C_11 
REMARK    8  A    between atoms: C_23  and  O_21 
ROOT
ATOM      1  C   UNL d   1     -38.886  15.394  18.830  0.00  0.00     0.225 C 
ATOM      2  S   UNL d   1     -38.240  15.683  19.232  0.00  0.00    -0.037 SA
ENDROOT
BRANCH   1   3
ATOM      3  N   UNL d   1     -39.642  15.658  19.030  0.00  0.00    -0.192 NA
BRANCH   3   4
ATOM      4  C   UNL d   1     -39.993  15.407  19.748  0.00  0.00     0.196 A 
ATOM      5  N   UNL d   1     -40.319  14.685  19.900  0.00  0.00    -0.220 NA
ATOM      6  C   UNL d   1     -40.586  14.699  20.659  0.00  0.00     0.095 A 
ATOM      7  C   UNL d   1     -40.417  15.442  20.972  0.00  0.00     0.058 A 
ATOM      8  S   UNL d   1     -40.052  15.870  20.402  0.00  0.00    -0.046 SA
BRANCH   6   9
ATOM      9  C   UNL d   1     -40.965  14.055  21.041  0.00  0.00     0.088 C 
BRANCH   9  10
ATOM     10  C   UNL d   1     -41.770  14.008  21.102  0.00  0.00     0.302 C 
ATOM     11  O   UNL d   1     -42.255  14.658  20.990  0.00  0.00    -0.259 OA
BRANCH  10  12
ATOM     12  O   UNL d   1     -42.130  13.272  21.285  0.00  0.00    -0.271 OA
BRANCH  12  13
ATOM     13  C   UNL d   1     -42.956  13.233  21.326  0.00  0.00     0.126 C 
ATOM     14  C   UNL d   1     -43.299  12.486  21.299  0.00  0.00     0.029 C 
ENDBRANCH  12  13
ENDBRANCH  10  12
ENDBRANCH   9  10
ENDBRANCH   6   9
ENDBRANCH   3   4
ENDBRANCH   1   3
BRANCH   1  15
ATOM     15  N   UNL d   1     -38.802  14.853  18.236  0.00  0.00    -0.179 NA
ATOM     16  C   UNL d   1     -38.338  15.046  17.573  0.00  0.00     0.281 C 
ATOM     17  O   UNL d   1     -37.972  15.776  17.527  0.00  0.00    -0.265 OA
BRANCH  16  18
ATOM     18  C   UNL d   1     -38.246  14.494  16.957  0.00  0.00     0.058 A 
ATOM     19  C   UNL d   1     -38.028  13.709  17.122  0.00  0.00     0.007 A 
ATOM     20  C   UNL d   1     -37.942  13.177  16.492  0.00  0.00     0.030 A 
ATOM     21  C   UNL d   1     -38.073  13.424  15.708  0.00  0.00     0.140 A 
ATOM     22  C   UNL d   1     -38.287  14.197  15.560  0.00  0.00     0.030 A 
ATOM     23  F   UNL d   1     -37.990  12.906  15.095  0.00  0.00    -0.204 F 
ATOM     24  C   UNL d   1     -38.376  14.736  16.173  0.00  0.00     0.007 A 
ENDBRANCH  16  18
ENDBRANCH   1  15
TORSDOF 8
ENDMDL
MODEL 6
REMARK VINA RESULT:      -3.9      4.233      7.739
REMARK  8 active torsions:
REMARK  status: ('A' for Active; 'I' for Inactive)
REMARK    1  A    between atoms: N_5  and  C_1 
REMARK    2  A    between atoms: C_2  and  N_5 
REMARK    3  A    between atoms: N_3  and  C_2 
REMARK       I    between atoms: C_6  and  N_3 
REMARK    4  A    between atoms: C_13  and  C_6 
REMARK    5  A    between atoms: C_9  and  C_7 
REMARK    6  A    between atoms: C_11  and  C_9 
REMARK    7  A    between atoms: O_21  and  C_11 
REMARK    8  A    between atoms: C_23  and  O_21 
ROOT
ATOM      1  C   UNL d   1     -40.512  14.525  20.457  0.00  0.00     0.225 C 
ATOM      2  S   UNL d   1     -39.846  14.418  20.912  0.00  0.00    -0.037 SA
ENDROOT
BRANCH   1   3
ATOM      3  N   UNL d   1     -41.238  14.664  20.823  0.00  0.00    -0.192 NA
BRANCH   3   4
ATOM      4  C   UNL d   1     -41.720  14.018  21.049  0.00  0.00     0.196 A 
ATOM      5  N   UNL d   1     -42.490  13.893  20.842  0.00  0.00    -0.220 NA
ATOM      6  C   UNL d   1     -42.722  13.205  21.187  0.00  0.00     0.095 A 
ATOM      7  C   UNL d   1     -42.081  12.907  21.612  0.00  0.00     0.058 A 
ATOM      8  S   UNL d   1     -41.470  13.417  21.519  0.00  0.00    -0.046 SA
BRANCH   6   9
ATOM      9  C   UNL d   1     -43.488  12.870  21.113  0.00  0.00     0.088 C 
BRANCH   9  10
ATOM     10  C   UNL d   1     -43.961  12.738  21.756  0.00  0.00     0.302 C 
ATOM     11  O   UNL d   1     -43.830  12.118  22.273  0.00  0.00    -0.259 OA
BRANCH  10  12
ATOM     12  O   UNL d   1     -44.610  13.250  21.904  0.00  0.00    -0.271 OA
BRANCH  12  13
ATOM     13  C   UNL d   1     -45.315  12.923  22.190  0.00  0.00     0.126 C 
ATOM     14  C   UNL d   1     -45.923  13.446  22.373  0.00  0.00     0.029 C 
ENDBRANCH  12  13
ENDBRANCH  10  12
ENDBRANCH   9  10
ENDBRANCH   6   9
ENDBRANCH   3   4
ENDBRANCH   1   3
BRANCH   1  15
ATOM     15  N   UNL d   1     -40.475  14.499  19.650  0.00  0.00    -0.179 NA
ATOM     16  C   UNL d   1     -40.040  15.078  19.243  0.00  0.00     0.281 C 
ATOM     17  O   UNL d   1     -39.654  15.668  19.659  0.00  0.00    -0.265 OA
BRANCH  16  18
ATOM     18  C   UNL d   1     -39.997  15.058  18.413  0.00  0.00     0.058 A 
ATOM     19  C   UNL d   1     -40.517  15.514  17.951  0.00  0.00     0.007 A 
ATOM     20  C   UNL d   1     -40.456  15.477  17.126  0.00  0.00     0.030 A 
ATOM     21  C   UNL d   1     -39.885  14.992  16.764  0.00  0.00     0.140 A 
ATOM     22  C   UNL d   1     -39.381  14.549  17.229  0.00  0.00     0.030 A 
ATOM     23  F   UNL d   1     -39.826  14.957  15.960  0.00  0.00    -0.204 F 
ATOM     24  C   UNL d   1     -39.429  14.575  18.047  0.00  0.00     0.007 A 
ENDBRANCH  16  18
ENDBRANCH   1  15
TORSDOF 8
ENDMDL
MODEL 7
REMARK VINA RESULT:      -3.9      2.455      6.000
REMARK  8 active torsions:
REMARK  status: ('A' for Active; 'I' for Inactive)
REMARK    1  A    between atoms: N_5  and  C_1 
REMARK    2  A    between atoms: C_2  and  N_5 
REMARK    3  A    between atoms: N_3  and  C_2 
REMARK       I    between atoms: C_6  and  N_3 
REMARK    4  A    between atoms: C_13  and  C_6 
REMARK    5  A    between atoms: C_9  and  C_7 
REMARK    6  A    between atoms: C_11  and  C_9 
REMARK    7  A    between atoms: O_21  and  C_11 
REMARK    8  A    between atoms: C_23  and  O_21 
ROOT
ATOM      1  C   UNL d   1     -44.721  13.039  21.910  0.00  0.00     0.225 C 
ATOM      2  S   UNL d   1     -45.104  12.609  21.335  0.00  0.00    -0.037 SA
ENDROOT
BRANCH   1   3
ATOM      3  N   UNL d   1     -45.027  13.058  22.676  0.00  0.00    -0.192 NA
BRANCH   3   4
ATOM      4  C   UNL d   1     -45.814  13.314  22.803  0.00  0.00     0.196 A 
ATOM      5  N   UNL d   1     -46.114  14.048  22.653  0.00  0.00    -0.220 NA
ATOM      6  C   UNL d   1     -46.891  14.036  22.862  0.00  0.00     0.095 A 
ATOM      7  C   UNL d   1     -47.065  13.281  23.143  0.00  0.00     0.058 A 
ATOM      8  S   UNL d   1     -46.394  12.846  23.102  0.00  0.00    -0.046 SA
BRANCH   6   9
ATOM      9  C   UNL d   1     -47.411  14.691  22.794  0.00  0.00     0.088 C 
BRANCH   9  10
ATOM     10  C   UNL d   1     -48.195  14.598  22.618  0.00  0.00     0.302 C 
ATOM     11  O   UNL d   1     -48.447  14.250  21.921  0.00  0.00    -0.259 OA
BRANCH  10  12
ATOM     12  O   UNL d   1     -48.777  14.863  23.162  0.00  0.00    -0.271 OA
BRANCH  12  13
ATOM     13  C   UNL d   1     -49.372  15.371  22.891  0.00  0.00     0.126 C 
ATOM     14  C   UNL d   1     -49.924  15.631  23.442  0.00  0.00     0.029 C 
ENDBRANCH  12  13
ENDBRANCH  10  12
ENDBRANCH   9  10
ENDBRANCH   6   9
ENDBRANCH   3   4
ENDBRANCH   1   3
BRANCH   1  15
ATOM     15  N   UNL d   1     -44.045  13.449  21.745  0.00  0.00    -0.179 NA
ATOM     16  C   UNL d   1     -43.373  13.036  21.482  0.00  0.00     0.281 C 
ATOM     17  O   UNL d   1     -43.400  12.223  21.393  0.00  0.00    -0.265 OA
BRANCH  16  18
ATOM     18  C   UNL d   1     -42.673  13.452  21.310  0.00  0.00     0.058 A 
ATOM     19  C   UNL d   1     -42.698  14.258  21.108  0.00  0.00     0.007 A 
ATOM     20  C   UNL d   1     -41.988  14.650  20.941  0.00  0.00     0.030 A 
ATOM     21  C   UNL d   1     -41.262  14.245  20.974  0.00  0.00     0.140 A 
ATOM     22  C   UNL d   1     -41.251  13.454  21.174  0.00  0.00     0.030 A 
ATOM     23  F   UNL d   1     -40.570  14.628  20.811  0.00  0.00    -0.204 F 
ATOM     24  C   UNL d   1     -41.945  13.052  21.342  0.00  0.00     0.007 A 
ENDBRANCH  16  18
ENDBRANCH   1  15
TORSDOF 8
ENDMDL
MODEL 8
REMARK VINA RESULT:      -3.1      6.249      8.629
REMARK  8 active torsions:
REMARK  status: ('A' for Active; 'I' for Inactive)
REMARK    1  A    between atoms: N_5  and  C_1 
REMARK    2  A    between atoms: C_2  and  N_5 
REMARK    3  A    between atoms: N_3  and  C_2 
REMARK       I    between atoms: C_6  and  N_3 
REMARK    4  A    between atoms: C_13  and  C_6 
REMARK    5  A    between atoms: C_9  and  C_7 
REMARK    6  A    between atoms: C_11  and  C_9 
REMARK    7  A    between atoms: O_21  and  C_11 
REMARK    8  A    between atoms: C_23  and  O_21 
ROOT
ATOM      1  C   UNL d   1     -38.572  15.275  18.962  0.00  0.00     0.225 C 
ATOM      2  S   UNL d   1     -37.972  15.824  18.949  0.00  0.00    -0.037 SA
ENDROOT
BRANCH   1   3
ATOM      3  N   UNL d   1     -38.473  14.573  19.385  0.00  0.00    -0.192 NA
BRANCH   3   4
ATOM      4  C   UNL d   1     -38.769  14.513  20.165  0.00  0.00     0.196 A 
ATOM      5  N   UNL d   1     -39.508  14.272  20.385  0.00  0.00    -0.220 NA
ATOM      6  C   UNL d   1     -39.540  14.303  21.188  0.00  0.00     0.095 A 
ATOM      7  C   UNL d   1     -38.808  14.567  21.460  0.00  0.00     0.058 A 
ATOM      8  S   UNL d   1     -38.342  14.693  20.821  0.00  0.00    -0.046 SA
BRANCH   6   9
ATOM      9  C   UNL d   1     -40.213  14.097  21.645  0.00  0.00     0.088 C 
BRANCH   9  10
ATOM     10  C   UNL d   1     -40.961  14.117  21.337  0.00  0.00     0.302 C 
ATOM     11  O   UNL d   1     -41.303  14.810  21.066  0.00  0.00    -0.259 OA
BRANCH  10  12
ATOM     12  O   UNL d   1     -41.409  13.409  21.289  0.00  0.00    -0.271 OA
BRANCH  12  13
ATOM     13  C   UNL d   1     -42.165  13.439  20.954  0.00  0.00     0.126 C 
ATOM     14  C   UNL d   1     -42.764  13.029  21.341  0.00  0.00     0.029 C 
ENDBRANCH  12  13
ENDBRANCH  10  12
ENDBRANCH   9  10
ENDBRANCH   6   9
ENDBRANCH   3   4
ENDBRANCH   1   3
BRANCH   1  15
ATOM     15  N   UNL d   1     -39.265  15.403  18.566  0.00  0.00    -0.179 NA
ATOM     16  C   UNL d   1     -39.267  15.390  17.735  0.00  0.00     0.281 C 
ATOM     17  O   UNL d   1     -38.573  15.249  17.325  0.00  0.00    -0.265 OA
BRANCH  16  18
ATOM     18  C   UNL d   1     -39.977  15.521  17.321  0.00  0.00     0.058 A 
ATOM     19  C   UNL d   1     -40.711  15.439  17.703  0.00  0.00     0.007 A 
ATOM     20  C   UNL d   1     -41.404  15.575  17.270  0.00  0.00     0.030 A 
ATOM     21  C   UNL d   1     -41.367  15.790  16.467  0.00  0.00     0.140 A 
ATOM     22  C   UNL d   1     -40.640  15.867  16.104  0.00  0.00     0.030 A 
ATOM     23  F   UNL d   1     -42.043  15.922  16.045  0.00  0.00    -0.204 F 
ATOM     24  C   UNL d   1     -39.945  15.736  16.519  0.00  0.00     0.007 A 
ENDBRANCH  16  18
ENDBRANCH   1  15
TORSDOF 8
ENDMDL
