MODEL 1
REMARK VINA RESULT:      -8.3      0.000      0.000
REMARK  3 active torsions:
REMARK  status: ('A' for Active; 'I' for Inactive)
REMARK    1  A    between atoms: C_6  and  N_1 
REMARK    2  A    between atoms: C_5  and  C_6 
REMARK       I    between atoms: N_8  and  C_5 
REMARK    3  A    between atoms: C_10  and  N_8 
ROOT
ATOM      1  C   UNL d   1      51.617  34.129  52.858  0.00  0.00     0.297 C 
ATOM      2  N   UNL d   1      50.882  33.753  52.930  0.00  0.00    -0.207 NA
ATOM      3  O   UNL d   1      51.658  34.894  52.561  0.00  0.00    -0.264 OA
ENDROOT
BRANCH   1   4
ATOM      4  C   UNL d   1      52.303  33.735  53.085  0.00  0.00     0.145 C 
BRANCH   4   5
ATOM      5  N   UNL d   1      52.792  34.056  53.662  0.00  0.00    -0.282 N 
ATOM      6  C   UNL d   1      52.833  34.851  53.883  0.00  0.00     0.183 A 
ATOM      7  N   UNL d   1      53.396  34.921  54.481  0.00  0.00    -0.224 NA
ATOM      8  C   UNL d   1      53.707  34.170  54.634  0.00  0.00     0.099 A 
ATOM      9  C   UNL d   1      53.330  33.635  54.125  0.00  0.00     0.083 A 
ATOM     10  C   UNL d   1      54.277  33.909  55.165  0.00  0.00     0.021 A 
ATOM     11  C   UNL d   1      53.535  32.838  54.159  0.00  0.00     0.019 A 
ATOM     12  C   UNL d   1      54.100  32.569  54.683  0.00  0.00     0.002 A 
ATOM     13  C   UNL d   1      54.481  33.106  55.196  0.00  0.00     0.002 A 
ENDBRANCH   4   5
ENDBRANCH   1   4
BRANCH   2  14
ATOM     14  C   UNL d   1      50.231  34.202  52.686  0.00  0.00     0.085 A 
ATOM     15  C   UNL d   1      49.952  34.131  51.919  0.00  0.00     0.019 A 
ATOM     16  C   UNL d   1      49.304  34.576  51.669  0.00  0.00     0.002 A 
ATOM     17  C   UNL d   1      49.024  34.503  50.896  0.00  0.00     0.000 C 
ATOM     18  C   UNL d   1      48.934  35.099  52.202  0.00  0.00     0.000 A 
ATOM     19  C   UNL d   1      49.216  35.169  52.971  0.00  0.00     0.002 A 
ATOM     20  C   UNL d   1      48.283  35.548  51.957  0.00  0.00     0.000 C 
ATOM     21  C   UNL d   1      49.868  34.719  53.217  0.00  0.00     0.019 A 
ENDBRANCH   2  14
TORSDOF 3
ENDMDL
MODEL 2
REMARK VINA RESULT:      -8.1      0.886      4.758
REMARK  3 active torsions:
REMARK  status: ('A' for Active; 'I' for Inactive)
REMARK    1  A    between atoms: C_6  and  N_1 
REMARK    2  A    between atoms: C_5  and  C_6 
REMARK       I    between atoms: N_8  and  C_5 
REMARK    3  A    between atoms: C_10  and  N_8 
ROOT
ATOM      1  C   UNL d   1      51.308  33.803  52.845  0.00  0.00     0.297 C 
ATOM      2  N   UNL d   1      52.110  33.946  52.694  0.00  0.00    -0.207 NA
ATOM      3  O   UNL d   1      51.081  33.444  53.549  0.00  0.00    -0.264 OA
ENDROOT
BRANCH   1   4
ATOM      4  C   UNL d   1      50.741  34.020  52.290  0.00  0.00     0.145 C 
BRANCH   4   5
ATOM      5  N   UNL d   1      50.099  34.481  52.514  0.00  0.00    -0.282 N 
ATOM      6  C   UNL d   1      49.992  34.851  53.246  0.00  0.00     0.183 A 
ATOM      7  N   UNL d   1      49.273  35.253  53.226  0.00  0.00    -0.224 NA
ATOM      8  C   UNL d   1      48.931  35.136  52.482  0.00  0.00     0.099 A 
ATOM      9  C   UNL d   1      49.445  34.657  52.043  0.00  0.00     0.083 A 
ATOM     10  C   UNL d   1      48.225  35.401  52.153  0.00  0.00     0.021 A 
ATOM     11  C   UNL d   1      49.240  34.451  51.272  0.00  0.00     0.019 A 
ATOM     12  C   UNL d   1      48.542  34.709  50.937  0.00  0.00     0.002 A 
ATOM     13  C   UNL d   1      48.022  35.191  51.377  0.00  0.00     0.002 A 
ENDBRANCH   4   5
ENDBRANCH   1   4
BRANCH   2  14
ATOM     14  C   UNL d   1      52.630  33.704  53.292  0.00  0.00     0.085 A 
ATOM     15  C   UNL d   1      52.980  32.965  53.253  0.00  0.00     0.019 A 
ATOM     16  C   UNL d   1      53.498  32.718  53.845  0.00  0.00     0.002 A 
ATOM     17  C   UNL d   1      53.851  31.973  53.804  0.00  0.00     0.000 C 
ATOM     18  C   UNL d   1      53.663  33.226  54.485  0.00  0.00     0.000 A 
ATOM     19  C   UNL d   1      53.310  33.968  54.522  0.00  0.00     0.002 A 
ATOM     20  C   UNL d   1      54.183  32.984  55.083  0.00  0.00     0.000 C 
ATOM     21  C   UNL d   1      52.790  34.210  53.924  0.00  0.00     0.019 A 
ENDBRANCH   2  14
TORSDOF 3
ENDMDL
MODEL 3
REMARK VINA RESULT:      -7.9      2.348      4.050
REMARK  3 active torsions:
REMARK  status: ('A' for Active; 'I' for Inactive)
REMARK    1  A    between atoms: C_6  and  N_1 
REMARK    2  A    between atoms: C_5  and  C_6 
REMARK       I    between atoms: N_8  and  C_5 
REMARK    3  A    between atoms: C_10  and  N_8 
ROOT
ATOM      1  C   UNL d   1      53.920  32.421  53.925  0.00  0.00     0.297 C 
ATOM      2  N   UNL d   1      53.485  32.751  54.550  0.00  0.00    -0.207 NA
ATOM      3  O   UNL d   1      54.205  32.904  53.325  0.00  0.00    -0.264 OA
ENDROOT
BRANCH   1   4
ATOM      4  C   UNL d   1      54.064  31.611  53.909  0.00  0.00     0.145 C 
BRANCH   4   5
ATOM      5  N   UNL d   1      53.564  31.111  53.490  0.00  0.00    -0.282 N 
ATOM      6  C   UNL d   1      53.171  31.289  52.785  0.00  0.00     0.183 A 
ATOM      7  N   UNL d   1      52.732  30.628  52.563  0.00  0.00    -0.224 NA
ATOM      8  C   UNL d   1      52.851  30.036  53.128  0.00  0.00     0.099 A 
ATOM      9  C   UNL d   1      53.368  30.339  53.702  0.00  0.00     0.083 A 
ATOM     10  C   UNL d   1      52.558  29.270  53.193  0.00  0.00     0.021 A 
ATOM     11  C   UNL d   1      53.583  29.861  54.337  0.00  0.00     0.019 A 
ATOM     12  C   UNL d   1      53.298  29.100  54.410  0.00  0.00     0.002 A 
ATOM     13  C   UNL d   1      52.778  28.793  53.834  0.00  0.00     0.002 A 
ENDBRANCH   4   5
ENDBRANCH   1   4
BRANCH   2  14
ATOM     14  C   UNL d   1      53.375  33.570  54.508  0.00  0.00     0.085 A 
ATOM     15  C   UNL d   1      52.741  33.875  54.090  0.00  0.00     0.019 A 
ATOM     16  C   UNL d   1      52.625  34.690  54.044  0.00  0.00     0.002 A 
ATOM     17  C   UNL d   1      51.985  34.996  53.622  0.00  0.00     0.000 C 
ATOM     18  C   UNL d   1      53.159  35.203  54.426  0.00  0.00     0.000 A 
ATOM     19  C   UNL d   1      53.796  34.895  54.845  0.00  0.00     0.002 A 
ATOM     20  C   UNL d   1      53.049  36.023  54.384  0.00  0.00     0.000 C 
ATOM     21  C   UNL d   1      53.907  34.074  54.888  0.00  0.00     0.019 A 
ENDBRANCH   2  14
TORSDOF 3
ENDMDL
MODEL 4
REMARK VINA RESULT:      -7.8      2.734      4.437
REMARK  3 active torsions:
REMARK  status: ('A' for Active; 'I' for Inactive)
REMARK    1  A    between atoms: C_6  and  N_1 
REMARK    2  A    between atoms: C_5  and  C_6 
REMARK       I    between atoms: N_8  and  C_5 
REMARK    3  A    between atoms: C_10  and  N_8 
ROOT
ATOM      1  C   UNL d   1      53.463  32.271  53.484  0.00  0.00     0.297 C 
ATOM      2  N   UNL d   1      53.935  31.604  53.342  0.00  0.00    -0.207 NA
ATOM      3  O   UNL d   1      52.663  32.179  53.647  0.00  0.00    -0.264 OA
ENDROOT
BRANCH   1   4
ATOM      4  C   UNL d   1      53.798  33.023  53.463  0.00  0.00     0.145 C 
BRANCH   4   5
ATOM      5  N   UNL d   1      53.777  33.503  54.129  0.00  0.00    -0.282 N 
ATOM      6  C   UNL d   1      54.088  33.323  54.874  0.00  0.00     0.183 A 
ATOM      7  N   UNL d   1      53.943  33.962  55.373  0.00  0.00    -0.224 NA
ATOM      8  C   UNL d   1      53.541  34.542  54.941  0.00  0.00     0.099 A 
ATOM      9  C   UNL d   1      53.440  34.254  54.170  0.00  0.00     0.083 A 
ATOM     10  C   UNL d   1      53.258  35.286  55.149  0.00  0.00     0.021 A 
ATOM     11  C   UNL d   1      53.052  34.724  53.616  0.00  0.00     0.019 A 
ATOM     12  C   UNL d   1      52.767  35.463  53.813  0.00  0.00     0.002 A 
ATOM     13  C   UNL d   1      52.868  35.755  54.588  0.00  0.00     0.002 A 
ENDBRANCH   4   5
ENDBRANCH   1   4
BRANCH   2  14
ATOM     14  C   UNL d   1      53.538  30.878  53.378  0.00  0.00     0.085 A 
ATOM     15  C   UNL d   1      53.703  30.354  53.985  0.00  0.00     0.019 A 
ATOM     16  C   UNL d   1      53.312  29.630  54.027  0.00  0.00     0.002 A 
ATOM     17  C   UNL d   1      53.479  29.102  54.639  0.00  0.00     0.000 C 
ATOM     18  C   UNL d   1      52.746  29.434  53.447  0.00  0.00     0.000 A 
ATOM     19  C   UNL d   1      52.582  29.962  52.838  0.00  0.00     0.002 A 
ATOM     20  C   UNL d   1      52.350  28.708  53.483  0.00  0.00     0.000 C 
ATOM     21  C   UNL d   1      52.979  30.689  52.802  0.00  0.00     0.019 A 
ENDBRANCH   2  14
TORSDOF 3
ENDMDL
MODEL 5
REMARK VINA RESULT:      -7.6      1.884      4.711
REMARK  3 active torsions:
REMARK  status: ('A' for Active; 'I' for Inactive)
REMARK    1  A    between atoms: C_6  and  N_1 
REMARK    2  A    between atoms: C_5  and  C_6 
REMARK       I    between atoms: N_8  and  C_5 
REMARK    3  A    between atoms: C_10  and  N_8 
ROOT
ATOM      1  C   UNL d   1      52.469  32.787  53.039  0.00  0.00     0.297 C 
ATOM      2  N   UNL d   1      52.706  32.157  52.556  0.00  0.00    -0.207 NA
ATOM      3  O   UNL d   1      52.499  32.711  53.857  0.00  0.00    -0.264 OA
ENDROOT
BRANCH   1   4
ATOM      4  C   UNL d   1      52.205  33.488  52.698  0.00  0.00     0.145 C 
BRANCH   4   5
ATOM      5  N   UNL d   1      51.491  33.819  52.934  0.00  0.00    -0.282 N 
ATOM      6  C   UNL d   1      51.248  33.957  53.712  0.00  0.00     0.183 A 
ATOM      7  N   UNL d   1      50.497  34.295  53.689  0.00  0.00    -0.224 NA
ATOM      8  C   UNL d   1      50.270  34.368  52.897  0.00  0.00     0.099 A 
ATOM      9  C   UNL d   1      50.888  34.072  52.431  0.00  0.00     0.083 A 
ATOM     10  C   UNL d   1      49.587  34.662  52.545  0.00  0.00     0.021 A 
ATOM     11  C   UNL d   1      50.809  34.077  51.612  0.00  0.00     0.019 A 
ATOM     12  C   UNL d   1      50.136  34.367  51.253  0.00  0.00     0.002 A 
ATOM     13  C   UNL d   1      49.512  34.665  51.720  0.00  0.00     0.002 A 
ENDBRANCH   4   5
ENDBRANCH   1   4
BRANCH   2  14
ATOM     14  C   UNL d   1      52.961  31.481  52.961  0.00  0.00     0.085 A 
ATOM     15  C   UNL d   1      52.540  30.782  52.892  0.00  0.00     0.019 A 
ATOM     16  C   UNL d   1      52.789  30.105  53.292  0.00  0.00     0.002 A 
ATOM     17  C   UNL d   1      52.363  29.401  53.222  0.00  0.00     0.000 C 
ATOM     18  C   UNL d   1      53.472  30.136  53.767  0.00  0.00     0.000 A 
ATOM     19  C   UNL d   1      53.894  30.839  53.834  0.00  0.00     0.002 A 
ATOM     20  C   UNL d   1      53.727  29.460  54.171  0.00  0.00     0.000 C 
ATOM     21  C   UNL d   1      53.639  31.516  53.430  0.00  0.00     0.019 A 
ENDBRANCH   2  14
TORSDOF 3
ENDMDL
