MODEL 1
REMARK VINA RESULT:      28.0      0.000      0.000
REMARK  2 active torsions:
REMARK  status: ('A' for Active; 'I' for Inactive)
REMARK    1  A    between atoms: C_10  and  N_3 
REMARK    2  A    between atoms: C_15  and  C_10 
ROOT
ATOM      1  C   UNL d   1      14.134  13.343  -2.436  0.00  0.00     0.166 A 
ATOM      2  C   UNL d   1      14.066  12.547  -2.225  0.00  0.00     0.117 A 
ATOM      3  N   UNL d   1      14.508  13.716  -1.810  0.00  0.00    -0.289 N 
ATOM      4  N   UNL d   1      13.846  13.613  -3.166  0.00  0.00    -0.225 NA
ATOM      5  N   UNL d   1      13.705  12.039  -2.764  0.00  0.00    -0.241 NA
ATOM      6  C   UNL d   1      14.392  12.446  -1.492  0.00  0.00     0.037 A 
ATOM      7  C   UNL d   1      14.669  13.178  -1.232  0.00  0.00     0.067 A 
ATOM      8  C   UNL d   1      13.494  13.097  -3.681  0.00  0.00     0.101 A 
ATOM      9  C   UNL d   1      13.427  12.301  -3.469  0.00  0.00     0.099 A 
ATOM     10  C   UNL d   1      14.477  11.779  -1.014  0.00  0.00     0.003 A 
ATOM     11  C   UNL d   1      15.029  13.239  -0.496  0.00  0.00     0.018 A 
ATOM     12  C   UNL d   1      13.075  11.781  -3.983  0.00  0.00     0.021 A 
ATOM     13  C   UNL d   1      13.216  13.356  -4.384  0.00  0.00     0.021 A 
ATOM     14  C   UNL d   1      14.840  11.845  -0.275  0.00  0.00     0.000 A 
ATOM     15  C   UNL d   1      15.117  12.577  -0.015  0.00  0.00     0.002 A 
ATOM     16  C   UNL d   1      12.854  12.813  -4.909  0.00  0.00     0.002 A 
ATOM     17  C   UNL d   1      12.779  12.031  -4.720  0.00  0.00     0.002 A 
ENDROOT
BRANCH   3  18
ATOM     18  C   UNL d   1      14.690  14.507  -1.778  0.00  0.00     0.082 C 
BRANCH  18  19
ATOM     19  C   UNL d   1      14.942  14.827  -1.047  0.00  0.00     0.019 C 
ATOM     20  C   UNL d   1      15.062  15.617  -0.973  0.00  0.00     0.002 C 
ENDBRANCH  18  19
ENDBRANCH   3  18
TORSDOF 2
ENDMDL
MODEL 2
REMARK VINA RESULT:      30.6      0.837      3.834
REMARK  2 active torsions:
REMARK  status: ('A' for Active; 'I' for Inactive)
REMARK    1  A    between atoms: C_10  and  N_3 
REMARK    2  A    between atoms: C_15  and  C_10 
ROOT
ATOM      1  C   UNL d   1      13.779  12.679  -2.752  0.00  0.00     0.166 A 
ATOM      2  C   UNL d   1      13.946  13.477  -2.620  0.00  0.00     0.117 A 
ATOM      3  N   UNL d   1      13.437  12.634  -3.495  0.00  0.00    -0.289 N 
ATOM      4  N   UNL d   1      13.961  12.107  -2.179  0.00  0.00    -0.225 NA
ATOM      5  N   UNL d   1      14.297  13.679  -1.904  0.00  0.00    -0.241 NA
ATOM      6  C   UNL d   1      13.710  13.900  -3.268  0.00  0.00     0.037 A 
ATOM      7  C   UNL d   1      13.391  13.372  -3.816  0.00  0.00     0.067 A 
ATOM      8  C   UNL d   1      14.307  12.328  -1.480  0.00  0.00     0.101 A 
ATOM      9  C   UNL d   1      14.474  13.127  -1.349  0.00  0.00     0.099 A 
ATOM     10  C   UNL d   1      13.740  14.706  -3.440  0.00  0.00     0.003 A 
ATOM     11  C   UNL d   1      13.105  13.654  -4.533  0.00  0.00     0.018 A 
ATOM     12  C   UNL d   1      14.819  13.352  -0.650  0.00  0.00     0.021 A 
ATOM     13  C   UNL d   1      14.483  11.779  -0.926  0.00  0.00     0.021 A 
ATOM     14  C   UNL d   1      13.452  14.984  -4.162  0.00  0.00     0.000 A 
ATOM     15  C   UNL d   1      13.133  14.457  -4.710  0.00  0.00     0.002 A 
ATOM     16  C   UNL d   1      14.840  12.019  -0.208  0.00  0.00     0.002 A 
ATOM     17  C   UNL d   1      15.011  12.796  -0.061  0.00  0.00     0.002 A 
ENDROOT
BRANCH   3  18
ATOM     18  C   UNL d   1      13.184  11.952  -3.854  0.00  0.00     0.082 C 
BRANCH  18  19
ATOM     19  C   UNL d   1      13.362  11.838  -4.664  0.00  0.00     0.019 C 
ATOM     20  C   UNL d   1      12.770  11.780  -5.203  0.00  0.00     0.002 C 
ENDBRANCH  18  19
ENDBRANCH   3  18
TORSDOF 2
ENDMDL
