MODEL 1
REMARK VINA RESULT:     -11.0      0.000      0.000
REMARK  6 active torsions:
REMARK  status: ('A' for Active; 'I' for Inactive)
REMARK    1  A    between atoms: C_6  and  C_1 
REMARK    2  A    between atoms: C_8  and  C_2 
REMARK    3  A    between atoms: C_9  and  C_4 
REMARK    4  A    between atoms: C_12  and  C_8 
REMARK    5  A    between atoms: O_27  and  C_11 
REMARK    6  A    between atoms: C_30  and  O_27 
ROOT
ATOM      1  C   UNL d   1      53.646  34.387  54.690  0.00  0.00     0.306 A 
ATOM      2  C   UNL d   1      53.417  33.721  54.259  0.00  0.00     0.114 A 
ATOM      3  N   UNL d   1      54.394  34.392  55.056  0.00  0.00    -0.152 NA
ATOM      4  C   UNL d   1      53.923  33.073  54.194  0.00  0.00     0.094 A 
ATOM      5  C   UNL d   1      54.895  33.743  54.989  0.00  0.00     0.371 A 
ATOM      6  N   UNL d   1      54.656  33.076  54.552  0.00  0.00    -0.191 NA
ATOM      7  O   UNL d   1      55.643  33.747  55.354  0.00  0.00    -0.242 OA
ATOM      8  O   UNL d   1      53.764  35.087  55.083  0.00  0.00    -0.266 OA
ENDROOT
BRANCH   4   9
ATOM      9  C   UNL d   1      53.684  32.406  53.758  0.00  0.00     0.020 A 
ATOM     10  C   UNL d   1      53.394  31.742  54.142  0.00  0.00     0.029 A 
ATOM     11  C   UNL d   1      53.155  31.075  53.707  0.00  0.00     0.139 A 
ATOM     12  C   UNL d   1      53.209  31.076  52.877  0.00  0.00     0.218 A 
ATOM     13  C   UNL d   1      53.504  31.751  52.492  0.00  0.00     0.044 A 
ATOM     14  O   UNL d   1      52.976  30.425  52.451  0.00  0.00    -0.284 OA
ATOM     15  C   UNL d   1      53.742  32.417  52.927  0.00  0.00     0.005 A 
BRANCH  11  16
ATOM     16  O   UNL d   1      52.866  30.415  54.096  0.00  0.00    -0.302 OA
BRANCH  16  17
ATOM     17  C   UNL d   1      53.376  29.887  54.427  0.00  0.00     0.123 C 
ATOM     18  C   UNL d   1      53.087  29.242  54.839  0.00  0.00     0.029 C 
ENDBRANCH  16  17
ENDBRANCH  11  16
ENDBRANCH   4   9
BRANCH   2  19
ATOM     19  C   UNL d   1      52.669  33.717  53.892  0.00  0.00     0.201 C 
ATOM     20  O   UNL d   1      52.320  33.338  54.418  0.00  0.00    -0.286 OA
BRANCH  19  21
ATOM     21  C   UNL d   1      52.209  33.850  53.418  0.00  0.00     0.039 A 
ATOM     22  C   UNL d   1      52.272  34.181  52.668  0.00  0.00     0.004 A 
ATOM     23  C   UNL d   1      51.598  34.273  52.211  0.00  0.00     0.011 A 
ATOM     24  C   UNL d   1      50.860  34.038  52.494  0.00  0.00     0.058 A 
ATOM     25  C   UNL d   1      50.801  33.703  53.254  0.00  0.00     0.011 A 
ATOM     26 CL   UNL d   1      50.196  34.134  52.031  0.00  0.00    -0.082 Cl
ATOM     27  C   UNL d   1      51.474  33.611  53.711  0.00  0.00     0.004 A 
ENDBRANCH  19  21
ENDBRANCH   2  19
BRANCH   1  28
ATOM     28  C   UNL d   1      53.089  34.950  54.689  0.00  0.00     0.470 C 
ATOM     29  F   UNL d   1      52.443  35.048  55.183  0.00  0.00    -0.162 F 
ATOM     30  F   UNL d   1      52.589  35.464  54.681  0.00  0.00    -0.162 F 
ATOM     31  F   UNL d   1      53.011  35.598  54.181  0.00  0.00    -0.162 F 
ENDBRANCH   1  28
TORSDOF 6
ENDMDL
MODEL 2
REMARK VINA RESULT:     -10.8      1.785      3.312
REMARK  6 active torsions:
REMARK  status: ('A' for Active; 'I' for Inactive)
REMARK    1  A    between atoms: C_6  and  C_1 
REMARK    2  A    between atoms: C_8  and  C_2 
REMARK    3  A    between atoms: C_9  and  C_4 
REMARK    4  A    between atoms: C_12  and  C_8 
REMARK    5  A    between atoms: O_27  and  C_11 
REMARK    6  A    between atoms: C_30  and  O_27 
ROOT
ATOM      1  C   UNL d   1      53.767  34.084  54.802  0.00  0.00     0.306 A 
ATOM      2  C   UNL d   1      53.295  33.982  54.132  0.00  0.00     0.114 A 
ATOM      3  N   UNL d   1      53.768  34.822  55.186  0.00  0.00    -0.152 NA
ATOM      4  C   UNL d   1      52.833  34.604  53.851  0.00  0.00     0.094 A 
ATOM      5  C   UNL d   1      53.305  35.440  54.901  0.00  0.00     0.371 A 
ATOM      6  N   UNL d   1      52.832  35.329  54.226  0.00  0.00    -0.191 NA
ATOM      7  O   UNL d   1      53.305  36.179  55.285  0.00  0.00    -0.242 OA
ATOM      8  O   UNL d   1      54.264  34.069  55.443  0.00  0.00    -0.266 OA
ENDROOT
BRANCH   4   9
ATOM      9  C   UNL d   1      52.359  34.494  53.175  0.00  0.00     0.020 A 
ATOM     10  C   UNL d   1      51.548  34.393  53.250  0.00  0.00     0.029 A 
ATOM     11  C   UNL d   1      51.075  34.283  52.575  0.00  0.00     0.139 A 
ATOM     12  C   UNL d   1      51.421  34.273  51.819  0.00  0.00     0.218 A 
ATOM     13  C   UNL d   1      52.242  34.375  51.749  0.00  0.00     0.044 A 
ATOM     14  O   UNL d   1      50.958  34.165  51.159  0.00  0.00    -0.284 OA
ATOM     15  C   UNL d   1      52.715  34.486  52.423  0.00  0.00     0.005 A 
BRANCH  11  16
ATOM     16  O   UNL d   1      50.267  34.183  52.655  0.00  0.00    -0.302 OA
BRANCH  16  17
ATOM     17  C   UNL d   1      49.822  34.758  53.003  0.00  0.00     0.123 C 
ATOM     18  C   UNL d   1      49.009  34.761  52.908  0.00  0.00     0.029 C 
ENDBRANCH  16  17
ENDBRANCH  11  16
ENDBRANCH   4   9
BRANCH   2  19
ATOM     19  C   UNL d   1      53.295  33.243  53.748  0.00  0.00     0.201 C 
ATOM     20  O   UNL d   1      53.807  33.409  53.246  0.00  0.00    -0.286 OA
BRANCH  19  21
ATOM     21  C   UNL d   1      53.111  32.606  53.628  0.00  0.00     0.039 A 
ATOM     22  C   UNL d   1      52.486  32.151  53.907  0.00  0.00     0.004 A 
ATOM     23  C   UNL d   1      52.407  31.376  53.654  0.00  0.00     0.011 A 
ATOM     24  C   UNL d   1      52.947  31.048  53.124  0.00  0.00     0.058 A 
ATOM     25  C   UNL d   1      53.579  31.511  52.844  0.00  0.00     0.011 A 
ATOM     26 CL   UNL d   1      52.859  30.275  52.879  0.00  0.00    -0.082 Cl
ATOM     27  C   UNL d   1      53.658  32.286  53.097  0.00  0.00     0.004 A 
ENDBRANCH  19  21
ENDBRANCH   2  19
BRANCH   1  28
ATOM     28  C   UNL d   1      54.169  33.427  54.986  0.00  0.00     0.470 C 
ATOM     29  F   UNL d   1      54.891  33.159  54.706  0.00  0.00    -0.162 F 
ATOM     30  F   UNL d   1      54.527  32.829  55.159  0.00  0.00    -0.162 F 
ATOM     31  F   UNL d   1      53.964  32.828  55.518  0.00  0.00    -0.162 F 
ENDBRANCH   1  28
TORSDOF 6
ENDMDL
MODEL 3
REMARK VINA RESULT:      -8.5      1.943      3.671
REMARK  6 active torsions:
REMARK  status: ('A' for Active; 'I' for Inactive)
REMARK    1  A    between atoms: C_6  and  C_1 
REMARK    2  A    between atoms: C_8  and  C_2 
REMARK    3  A    between atoms: C_9  and  C_4 
REMARK    4  A    between atoms: C_12  and  C_8 
REMARK    5  A    between atoms: O_27  and  C_11 
REMARK    6  A    between atoms: C_30  and  O_27 
ROOT
ATOM      1  C   UNL d   1      53.671  32.331  53.410  0.00  0.00     0.306 A 
ATOM      2  C   UNL d   1      53.002  32.816  53.417  0.00  0.00     0.114 A 
ATOM      3  N   UNL d   1      53.637  31.606  53.003  0.00  0.00    -0.152 NA
ATOM      4  C   UNL d   1      52.315  32.583  53.026  0.00  0.00     0.094 A 
ATOM      5  C   UNL d   1      52.949  31.377  52.614  0.00  0.00     0.371 A 
ATOM      6  N   UNL d   1      52.280  31.872  52.626  0.00  0.00    -0.191 NA
ATOM      7  O   UNL d   1      52.915  30.652  52.207  0.00  0.00    -0.242 OA
ATOM      8  O   UNL d   1      54.379  31.940  53.470  0.00  0.00    -0.266 OA
ENDROOT
BRANCH   4   9
ATOM      9  C   UNL d   1      51.646  33.077  53.037  0.00  0.00     0.020 A 
ATOM     10  C   UNL d   1      51.461  33.539  52.385  0.00  0.00     0.029 A 
ATOM     11  C   UNL d   1      50.793  34.034  52.395  0.00  0.00     0.139 A 
ATOM     12  C   UNL d   1      50.306  34.064  53.069  0.00  0.00     0.218 A 
ATOM     13  C   UNL d   1      50.497  33.594  53.727  0.00  0.00     0.044 A 
ATOM     14  O   UNL d   1      49.653  34.547  53.080  0.00  0.00    -0.284 OA
ATOM     15  C   UNL d   1      51.165  33.100  53.716  0.00  0.00     0.005 A 
BRANCH  11  16
ATOM     16  O   UNL d   1      50.614  34.492  51.742  0.00  0.00    -0.302 OA
BRANCH  16  17
ATOM     17  C   UNL d   1      50.219  34.169  51.118  0.00  0.00     0.123 C 
ATOM     18  C   UNL d   1      49.710  34.629  50.672  0.00  0.00     0.029 C 
ENDBRANCH  16  17
ENDBRANCH  11  16
ENDBRANCH   4   9
BRANCH   2  19
ATOM     19  C   UNL d   1      53.036  33.542  53.824  0.00  0.00     0.201 C 
ATOM     20  O   UNL d   1      52.785  33.289  54.468  0.00  0.00    -0.286 OA
BRANCH  19  21
ATOM     21  C   UNL d   1      53.152  34.199  53.912  0.00  0.00     0.039 A 
ATOM     22  C   UNL d   1      53.373  34.795  53.389  0.00  0.00     0.004 A 
ATOM     23  C   UNL d   1      53.474  35.558  53.666  0.00  0.00     0.011 A 
ATOM     24  C   UNL d   1      53.358  35.737  54.463  0.00  0.00     0.058 A 
ATOM     25  C   UNL d   1      53.135  35.132  54.990  0.00  0.00     0.011 A 
ATOM     26 CL   UNL d   1      53.462  36.501  54.729  0.00  0.00    -0.082 Cl
ATOM     27  C   UNL d   1      53.033  34.369  54.712  0.00  0.00     0.004 A 
ENDBRANCH  19  21
ENDBRANCH   2  19
BRANCH   1  28
ATOM     28  C   UNL d   1      54.274  32.648  53.814  0.00  0.00     0.470 C 
ATOM     29  F   UNL d   1      54.899  33.105  53.548  0.00  0.00    -0.162 F 
ATOM     30  F   UNL d   1      54.816  32.931  54.188  0.00  0.00    -0.162 F 
ATOM     31  F   UNL d   1      54.434  32.600  54.624  0.00  0.00    -0.162 F 
ENDBRANCH   1  28
TORSDOF 6
ENDMDL
MODEL 4
REMARK VINA RESULT:      -8.2      1.848      2.819
REMARK  6 active torsions:
REMARK  status: ('A' for Active; 'I' for Inactive)
REMARK    1  A    between atoms: C_6  and  C_1 
REMARK    2  A    between atoms: C_8  and  C_2 
REMARK    3  A    between atoms: C_9  and  C_4 
REMARK    4  A    between atoms: C_12  and  C_8 
REMARK    5  A    between atoms: O_27  and  C_11 
REMARK    6  A    between atoms: C_30  and  O_27 
ROOT
ATOM      1  C   UNL d   1      52.006  33.949  53.516  0.00  0.00     0.306 A 
ATOM      2  C   UNL d   1      52.516  33.299  53.522  0.00  0.00     0.114 A 
ATOM      3  N   UNL d   1      51.222  33.842  53.258  0.00  0.00    -0.152 NA
ATOM      4  C   UNL d   1      52.249  32.559  53.276  0.00  0.00     0.094 A 
ATOM      5  C   UNL d   1      50.960  33.102  53.013  0.00  0.00     0.371 A 
ATOM      6  N   UNL d   1      51.480  32.452  53.023  0.00  0.00    -0.191 NA
ATOM      7  O   UNL d   1      50.176  32.994  52.755  0.00  0.00    -0.242 OA
ATOM      8  O   UNL d   1      51.599  34.650  53.552  0.00  0.00    -0.266 OA
ENDROOT
BRANCH   4   9
ATOM      9  C   UNL d   1      52.769  31.910  53.285  0.00  0.00     0.020 A 
ATOM     10  C   UNL d   1      52.788  31.403  53.930  0.00  0.00     0.029 A 
ATOM     11  C   UNL d   1      53.308  30.754  53.941  0.00  0.00     0.139 A 
ATOM     12  C   UNL d   1      53.813  30.613  53.296  0.00  0.00     0.218 A 
ATOM     13  C   UNL d   1      53.791  31.129  52.645  0.00  0.00     0.044 A 
ATOM     14  O   UNL d   1      54.321  29.979  53.305  0.00  0.00    -0.284 OA
ATOM     15  C   UNL d   1      53.272  31.777  52.635  0.00  0.00     0.005 A 
BRANCH  11  16
ATOM     16  O   UNL d   1      53.321  30.252  54.587  0.00  0.00    -0.302 OA
BRANCH  16  17
ATOM     17  C   UNL d   1      52.936  29.545  54.557  0.00  0.00     0.123 C 
ATOM     18  C   UNL d   1      52.995  29.019  55.181  0.00  0.00     0.029 C 
ENDBRANCH  16  17
ENDBRANCH  11  16
ENDBRANCH   4   9
BRANCH   2  19
ATOM     19  C   UNL d   1      53.301  33.406  53.780  0.00  0.00     0.201 C 
ATOM     20  O   UNL d   1      53.600  33.478  53.112  0.00  0.00    -0.286 OA
BRANCH  19  21
ATOM     21  C   UNL d   1      53.806  33.464  54.221  0.00  0.00     0.039 A 
ATOM     22  C   UNL d   1      53.840  33.363  55.037  0.00  0.00     0.004 A 
ATOM     23  C   UNL d   1      54.551  33.476  55.427  0.00  0.00     0.011 A 
ATOM     24  C   UNL d   1      55.232  33.689  55.013  0.00  0.00     0.058 A 
ATOM     25  C   UNL d   1      55.193  33.790  54.188  0.00  0.00     0.011 A 
ATOM     26 CL   UNL d   1      55.934  33.798  55.412  0.00  0.00    -0.082 Cl
ATOM     27  C   UNL d   1      54.483  33.678  53.797  0.00  0.00     0.004 A 
ENDBRANCH  19  21
ENDBRANCH   2  19
BRANCH   1  28
ATOM     28  C   UNL d   1      52.361  34.610  53.770  0.00  0.00     0.470 C 
ATOM     29  F   UNL d   1      52.401  34.925  54.525  0.00  0.00    -0.162 F 
ATOM     30  F   UNL d   1      52.685  35.210  53.992  0.00  0.00    -0.162 F 
ATOM     31  F   UNL d   1      52.791  35.165  53.334  0.00  0.00    -0.162 F 
ENDBRANCH   1  28
TORSDOF 6
ENDMDL
