MODEL 1
REMARK VINA RESULT:      -6.6      0.000      0.000
REMARK  4 active torsions:
REMARK  status: ('A' for Active; 'I' for Inactive)
REMARK    1  A    between atoms: N_4  and  C_1 
REMARK       I    between atoms: C_6  and  N_4 
REMARK    2  A    between atoms: C_10  and  C_6 
REMARK    3  A    between atoms: C_8  and  C_11 
REMARK    4  A    between atoms: C_11  and  C_10 
ROOT
ATOM      1  N   UNL d   1     -47.127  12.940  23.057  0.00  0.00    -0.187 NA
ATOM      2  C   UNL d   1     -47.642  12.309  23.200  0.00  0.00     0.281 C 
ATOM      3  O   UNL d   1     -47.384  11.507  23.227  0.00  0.00    -0.265 OA
ENDROOT
BRANCH   2   4
ATOM      4  C   UNL d   1     -48.483  12.475  23.329  0.00  0.00     0.063 C 
BRANCH   4   5
ATOM      5  C   UNL d   1     -49.047  11.912  23.056  0.00  0.00     0.011 C 
BRANCH   5   6
ATOM      6  C   UNL d   1     -49.830  12.108  23.091  0.00  0.00     0.030 A 
ATOM      7  S   UNL d   1     -50.299  11.980  23.697  0.00  0.00    -0.086 SA
ATOM      8  C   UNL d   1     -51.064  12.248  23.547  0.00  0.00     0.035 A 
ATOM      9  C   UNL d   1     -51.064  12.557  22.807  0.00  0.00     0.007 A 
ATOM     10  C   UNL d   1     -50.305  12.483  22.496  0.00  0.00     0.007 A 
ENDBRANCH   5   6
ENDBRANCH   4   5
ENDBRANCH   2   4
BRANCH   1  11
ATOM     11  C   UNL d   1     -46.327  12.782  22.935  0.00  0.00     0.194 A 
ATOM     12  N   UNL d   1     -45.791  12.319  23.334  0.00  0.00    -0.107 NA
ATOM     13  O   UNL d   1     -45.089  12.373  22.967  0.00  0.00    -0.210 OA
ATOM     14  C   UNL d   1     -45.133  12.879  22.304  0.00  0.00     0.128 A 
ATOM     15  C   UNL d   1     -45.909  13.131  22.289  0.00  0.00     0.068 A 
ATOM     16  C   UNL d   1     -44.554  13.101  21.761  0.00  0.00     0.029 C 
ENDBRANCH   1  11
TORSDOF 4
ENDMDL
MODEL 2
REMARK VINA RESULT:      -6.5      1.972      2.047
REMARK  4 active torsions:
REMARK  status: ('A' for Active; 'I' for Inactive)
REMARK    1  A    between atoms: N_4  and  C_1 
REMARK       I    between atoms: C_6  and  N_4 
REMARK    2  A    between atoms: C_10  and  C_6 
REMARK    3  A    between atoms: C_8  and  C_11 
REMARK    4  A    between atoms: C_11  and  C_10 
ROOT
ATOM      1  N   UNL d   1     -47.043  14.237  22.960  0.00  0.00    -0.187 NA
ATOM      2  C   UNL d   1     -47.818  13.952  22.999  0.00  0.00     0.281 C 
ATOM      3  O   UNL d   1     -48.002  13.130  23.029  0.00  0.00    -0.265 OA
ENDROOT
BRANCH   2   4
ATOM      4  C   UNL d   1     -48.473  14.520  23.011  0.00  0.00     0.063 C 
BRANCH   4   5
ATOM      5  C   UNL d   1     -49.250  14.231  23.161  0.00  0.00     0.011 C 
BRANCH   5   6
ATOM      6  C   UNL d   1     -49.850  14.767  23.235  0.00  0.00     0.030 A 
ATOM      7  S   UNL d   1     -50.545  14.714  22.892  0.00  0.00    -0.086 SA
ATOM      8  C   UNL d   1     -51.026  15.356  23.086  0.00  0.00     0.035 A 
ATOM      9  C   UNL d   1     -50.601  15.827  23.576  0.00  0.00     0.007 A 
ATOM     10  C   UNL d   1     -49.861  15.485  23.688  0.00  0.00     0.007 A 
ENDBRANCH   5   6
ENDBRANCH   4   5
ENDBRANCH   2   4
BRANCH   1  11
ATOM     11  C   UNL d   1     -46.420  13.697  22.950  0.00  0.00     0.194 A 
ATOM     12  N   UNL d   1     -46.172  13.133  23.481  0.00  0.00    -0.107 NA
ATOM     13  O   UNL d   1     -45.534  12.768  23.180  0.00  0.00    -0.210 OA
ATOM     14  C   UNL d   1     -45.333  13.078  22.431  0.00  0.00     0.128 A 
ATOM     15  C   UNL d   1     -45.890  13.658  22.293  0.00  0.00     0.068 A 
ATOM     16  C   UNL d   1     -44.722  12.877  21.915  0.00  0.00     0.029 C 
ENDBRANCH   1  11
TORSDOF 4
ENDMDL
MODEL 3
REMARK VINA RESULT:      -6.4      1.883      2.120
REMARK  4 active torsions:
REMARK  status: ('A' for Active; 'I' for Inactive)
REMARK    1  A    between atoms: N_4  and  C_1 
REMARK       I    between atoms: C_6  and  N_4 
REMARK    2  A    between atoms: C_10  and  C_6 
REMARK    3  A    between atoms: C_8  and  C_11 
REMARK    4  A    between atoms: C_11  and  C_10 
ROOT
ATOM      1  N   UNL d   1     -47.608  12.616  23.449  0.00  0.00    -0.187 NA
ATOM      2  C   UNL d   1     -47.805  13.233  22.934  0.00  0.00     0.281 C 
ATOM      3  O   UNL d   1     -47.247  13.583  22.408  0.00  0.00    -0.265 OA
ENDROOT
BRANCH   2   4
ATOM      4  C   UNL d   1     -48.618  13.534  22.932  0.00  0.00     0.063 C 
BRANCH   4   5
ATOM      5  C   UNL d   1     -48.741  14.348  22.754  0.00  0.00     0.011 C 
BRANCH   5   6
ATOM      6  C   UNL d   1     -49.494  14.638  22.790  0.00  0.00     0.030 A 
ATOM      7  S   UNL d   1     -49.743  15.184  23.283  0.00  0.00    -0.086 SA
ATOM      8  C   UNL d   1     -50.543  15.350  23.170  0.00  0.00     0.035 A 
ATOM      9  C   UNL d   1     -50.798  14.880  22.573  0.00  0.00     0.007 A 
ATOM     10  C   UNL d   1     -50.163  14.422  22.314  0.00  0.00     0.007 A 
ENDBRANCH   5   6
ENDBRANCH   4   5
ENDBRANCH   2   4
BRANCH   1  11
ATOM     11  C   UNL d   1     -46.836  12.330  23.450  0.00  0.00     0.194 A 
ATOM     12  N   UNL d   1     -46.116  12.686  23.321  0.00  0.00    -0.107 NA
ATOM     13  O   UNL d   1     -45.547  12.138  23.393  0.00  0.00    -0.210 OA
ATOM     14  C   UNL d   1     -45.870  11.389  23.574  0.00  0.00     0.128 A 
ATOM     15  C   UNL d   1     -46.675  11.515  23.608  0.00  0.00     0.068 A 
ATOM     16  C   UNL d   1     -45.500  10.662  23.698  0.00  0.00     0.029 C 
ENDBRANCH   1  11
TORSDOF 4
ENDMDL
MODEL 4
REMARK VINA RESULT:      -6.1      1.856      2.135
REMARK  4 active torsions:
REMARK  status: ('A' for Active; 'I' for Inactive)
REMARK    1  A    between atoms: N_4  and  C_1 
REMARK       I    between atoms: C_6  and  N_4 
REMARK    2  A    between atoms: C_10  and  C_6 
REMARK    3  A    between atoms: C_8  and  C_11 
REMARK    4  A    between atoms: C_11  and  C_10 
ROOT
ATOM      1  N   UNL d   1     -45.991  13.554  22.196  0.00  0.00    -0.187 NA
ATOM      2  C   UNL d   1     -46.391  13.753  22.892  0.00  0.00     0.281 C 
ATOM      3  O   UNL d   1     -46.141  13.488  23.652  0.00  0.00    -0.265 OA
ENDROOT
BRANCH   2   4
ATOM      4  C   UNL d   1     -47.096  14.254  22.843  0.00  0.00     0.063 C 
BRANCH   4   5
ATOM      5  C   UNL d   1     -47.851  13.890  22.931  0.00  0.00     0.011 C 
BRANCH   5   6
ATOM      6  C   UNL d   1     -48.509  14.355  22.871  0.00  0.00     0.030 A 
ATOM      7  S   UNL d   1     -49.227  14.149  23.086  0.00  0.00    -0.086 SA
ATOM      8  C   UNL d   1     -49.768  14.756  22.947  0.00  0.00     0.035 A 
ATOM      9  C   UNL d   1     -49.359  15.367  22.629  0.00  0.00     0.007 A 
ATOM     10  C   UNL d   1     -48.567  15.146  22.569  0.00  0.00     0.007 A 
ENDBRANCH   5   6
ENDBRANCH   4   5
ENDBRANCH   2   4
BRANCH   1  11
ATOM     11  C   UNL d   1     -45.321  13.078  22.243  0.00  0.00     0.194 A 
ATOM     12  N   UNL d   1     -45.122  12.454  22.725  0.00  0.00    -0.107 NA
ATOM     13  O   UNL d   1     -44.397  12.200  22.522  0.00  0.00    -0.210 OA
ATOM     14  C   UNL d   1     -44.084  12.651  21.893  0.00  0.00     0.128 A 
ATOM     15  C   UNL d   1     -44.666  13.198  21.722  0.00  0.00     0.068 A 
ATOM     16  C   UNL d   1     -43.361  12.593  21.501  0.00  0.00     0.029 C 
ENDBRANCH   1  11
TORSDOF 4
ENDMDL
MODEL 5
REMARK VINA RESULT:      -5.2      2.528      4.583
REMARK  4 active torsions:
REMARK  status: ('A' for Active; 'I' for Inactive)
REMARK    1  A    between atoms: N_4  and  C_1 
REMARK       I    between atoms: C_6  and  N_4 
REMARK    2  A    between atoms: C_10  and  C_6 
REMARK    3  A    between atoms: C_8  and  C_11 
REMARK    4  A    between atoms: C_11  and  C_10 
ROOT
ATOM      1  N   UNL d   1     -48.979  14.310  22.504  0.00  0.00    -0.187 NA
ATOM      2  C   UNL d   1     -48.522  13.727  22.872  0.00  0.00     0.281 C 
ATOM      3  O   UNL d   1     -48.787  13.299  23.549  0.00  0.00    -0.265 OA
ENDROOT
BRANCH   2   4
ATOM      4  C   UNL d   1     -47.737  13.544  22.552  0.00  0.00     0.063 C 
BRANCH   4   5
ATOM      5  C   UNL d   1     -47.114  13.378  23.094  0.00  0.00     0.011 C 
BRANCH   5   6
ATOM      6  C   UNL d   1     -46.383  13.207  22.795  0.00  0.00     0.030 A 
ATOM      7  S   UNL d   1     -45.980  12.558  22.937  0.00  0.00    -0.086 SA
ATOM      8  C   UNL d   1     -45.255  12.563  22.544  0.00  0.00     0.035 A 
ATOM      9  C   UNL d   1     -45.211  13.254  22.140  0.00  0.00     0.007 A 
ATOM     10  C   UNL d   1     -45.903  13.679  22.278  0.00  0.00     0.007 A 
ENDBRANCH   5   6
ENDBRANCH   4   5
ENDBRANCH   2   4
BRANCH   1  11
ATOM     11  C   UNL d   1     -49.724  14.483  22.808  0.00  0.00     0.194 A 
ATOM     12  N   UNL d   1     -50.399  14.037  22.898  0.00  0.00    -0.107 NA
ATOM     13  O   UNL d   1     -50.960  14.493  23.227  0.00  0.00    -0.210 OA
ATOM     14  C   UNL d   1     -50.676  15.266  23.369  0.00  0.00     0.128 A 
ATOM     15  C   UNL d   1     -49.904  15.253  23.106  0.00  0.00     0.068 A 
ATOM     16  C   UNL d   1     -51.052  15.922  23.698  0.00  0.00     0.029 C 
ENDBRANCH   1  11
TORSDOF 4
ENDMDL
MODEL 6
REMARK VINA RESULT:      -5.2      8.773      9.391
REMARK  4 active torsions:
REMARK  status: ('A' for Active; 'I' for Inactive)
REMARK    1  A    between atoms: N_4  and  C_1 
REMARK       I    between atoms: C_6  and  N_4 
REMARK    2  A    between atoms: C_10  and  C_6 
REMARK    3  A    between atoms: C_8  and  C_11 
REMARK    4  A    between atoms: C_11  and  C_10 
ROOT
ATOM      1  N   UNL d   1     -39.722  14.445  19.062  0.00  0.00    -0.187 NA
ATOM      2  C   UNL d   1     -40.030  14.334  19.822  0.00  0.00     0.281 C 
ATOM      3  O   UNL d   1     -40.856  14.259  19.973  0.00  0.00    -0.265 OA
ENDROOT
BRANCH   2   4
ATOM      4  C   UNL d   1     -39.483  14.293  20.493  0.00  0.00     0.063 C 
BRANCH   4   5
ATOM      5  C   UNL d   1     -39.805  14.322  21.272  0.00  0.00     0.011 C 
BRANCH   5   6
ATOM      6  C   UNL d   1     -39.299  14.247  21.898  0.00  0.00     0.030 A 
ATOM      7  S   UNL d   1     -39.017  14.833  22.321  0.00  0.00    -0.086 SA
ATOM      8  C   UNL d   1     -38.517  14.560  22.917  0.00  0.00     0.035 A 
ATOM      9  C   UNL d   1     -38.492  13.761  22.855  0.00  0.00     0.007 A 
ATOM     10  C   UNL d   1     -38.972  13.535  22.225  0.00  0.00     0.007 A 
ENDBRANCH   5   6
ENDBRANCH   4   5
ENDBRANCH   2   4
BRANCH   1  11
ATOM     11  C   UNL d   1     -40.242  14.484  18.423  0.00  0.00     0.194 A 
ATOM     12  N   UNL d   1     -40.777  13.954  18.116  0.00  0.00    -0.107 NA
ATOM     13  O   UNL d   1     -41.132  14.289  17.490  0.00  0.00    -0.210 OA
ATOM     14  C   UNL d   1     -40.843  15.061  17.357  0.00  0.00     0.128 A 
ATOM     15  C   UNL d   1     -40.287  15.177  17.943  0.00  0.00     0.068 A 
ATOM     16  C   UNL d   1     -41.043  15.615  16.779  0.00  0.00     0.029 C 
ENDBRANCH   1  11
TORSDOF 4
ENDMDL
MODEL 7
REMARK VINA RESULT:      -4.4      8.903      9.344
REMARK  4 active torsions:
REMARK  status: ('A' for Active; 'I' for Inactive)
REMARK    1  A    between atoms: N_4  and  C_1 
REMARK       I    between atoms: C_6  and  N_4 
REMARK    2  A    between atoms: C_10  and  C_6 
REMARK    3  A    between atoms: C_8  and  C_11 
REMARK    4  A    between atoms: C_11  and  C_10 
ROOT
ATOM      1  N   UNL d   1     -39.331  14.668  20.347  0.00  0.00    -0.187 NA
ATOM      2  C   UNL d   1     -40.007  14.548  19.885  0.00  0.00     0.281 C 
ATOM      3  O   UNL d   1     -40.608  13.995  20.093  0.00  0.00    -0.265 OA
ENDROOT
BRANCH   2   4
ATOM      4  C   UNL d   1     -40.103  15.007  19.156  0.00  0.00     0.063 C 
BRANCH   4   5
ATOM      5  C   UNL d   1     -40.535  14.661  18.521  0.00  0.00     0.011 C 
BRANCH   5   6
ATOM      6  C   UNL d   1     -40.582  15.067  17.824  0.00  0.00     0.030 A 
ATOM      7  S   UNL d   1     -40.134  14.946  17.202  0.00  0.00    -0.086 SA
ATOM      8  C   UNL d   1     -40.331  15.458  16.586  0.00  0.00     0.035 A 
ATOM      9  C   UNL d   1     -40.933  15.918  16.846  0.00  0.00     0.007 A 
ATOM     10  C   UNL d   1     -41.113  15.697  17.619  0.00  0.00     0.007 A 
ENDBRANCH   5   6
ENDBRANCH   4   5
ENDBRANCH   2   4
BRANCH   1  11
ATOM     11  C   UNL d   1     -39.239  14.232  21.040  0.00  0.00     0.194 A 
ATOM     12  N   UNL d   1     -39.738  14.078  21.664  0.00  0.00    -0.107 NA
ATOM     13  O   UNL d   1     -39.354  13.620  22.186  0.00  0.00    -0.210 OA
ATOM     14  C   UNL d   1     -38.579  13.450  21.927  0.00  0.00     0.128 A 
ATOM     15  C   UNL d   1     -38.513  13.835  21.210  0.00  0.00     0.068 A 
ATOM     16  C   UNL d   1     -37.983  13.002  22.279  0.00  0.00     0.029 C 
ENDBRANCH   1  11
TORSDOF 4
ENDMDL
MODEL 8
REMARK VINA RESULT:      -4.0      8.831     10.335
REMARK  4 active torsions:
REMARK  status: ('A' for Active; 'I' for Inactive)
REMARK    1  A    between atoms: N_4  and  C_1 
REMARK       I    between atoms: C_6  and  N_4 
REMARK    2  A    between atoms: C_10  and  C_6 
REMARK    3  A    between atoms: C_8  and  C_11 
REMARK    4  A    between atoms: C_11  and  C_10 
ROOT
ATOM      1  N   UNL d   1     -39.772  15.152  18.989  0.00  0.00    -0.187 NA
ATOM      2  C   UNL d   1     -40.022  14.626  18.402  0.00  0.00     0.281 C 
ATOM      3  O   UNL d   1     -40.625  14.052  18.531  0.00  0.00    -0.265 OA
ENDROOT
BRANCH   2   4
ATOM      4  C   UNL d   1     -39.652  14.665  17.618  0.00  0.00     0.063 C 
BRANCH   4   5
ATOM      5  C   UNL d   1     -39.341  13.955  17.289  0.00  0.00     0.011 C 
BRANCH   5   6
ATOM      6  C   UNL d   1     -38.874  14.010  16.632  0.00  0.00     0.030 A 
ATOM      7  S   UNL d   1     -38.304  13.518  16.442  0.00  0.00    -0.086 SA
ATOM      8  C   UNL d   1     -37.940  13.738  15.736  0.00  0.00     0.035 A 
ATOM      9  C   UNL d   1     -38.306  14.403  15.480  0.00  0.00     0.007 A 
ATOM     10  C   UNL d   1     -38.897  14.598  16.020  0.00  0.00     0.007 A 
ENDBRANCH   5   6
ENDBRANCH   4   5
ENDBRANCH   2   4
BRANCH   1  11
ATOM     11  C   UNL d   1     -40.123  15.116  19.733  0.00  0.00     0.194 A 
ATOM     12  N   UNL d   1     -40.899  15.083  19.974  0.00  0.00    -0.107 NA
ATOM     13  O   UNL d   1     -40.916  15.055  20.767  0.00  0.00    -0.210 OA
ATOM     14  C   UNL d   1     -40.144  15.068  21.086  0.00  0.00     0.128 A 
ATOM     15  C   UNL d   1     -39.653  15.106  20.435  0.00  0.00     0.068 A 
ATOM     16  C   UNL d   1     -39.889  15.050  21.870  0.00  0.00     0.029 C 
ENDBRANCH   1  11
TORSDOF 4
ENDMDL
