MODEL 1
REMARK VINA RESULT:      -4.2      0.000      0.000
REMARK  2 active torsions:
REMARK  status: ('A' for Active; 'I' for Inactive)
REMARK    1  A    between atoms: O_3  and  C_1 
REMARK    2  A    between atoms: C_2  and  O_3 
REMARK       I    between atoms: N_7  and  C_2 
ROOT
ATOM      1  C   UNL d   1      58.469   0.607  30.287  0.00  0.00     0.133 A 
ATOM      2  C   UNL d   1      59.287   0.631  30.468  0.00  0.00     0.106 A 
ATOM      3  C   UNL d   1      59.835   0.629  29.859  0.00  0.00     0.030 A 
ATOM      4  C   UNL d   1      58.220   0.581  29.504  0.00  0.00     0.083 A 
ATOM      5  C   UNL d   1      59.595   0.603  29.073  0.00  0.00     0.060 A 
ATOM      6  C   UNL d   1      58.777   0.579  28.892  0.00  0.00     0.025 A 
ATOM      7  N   UNL d   1      59.526   0.657  31.258  0.00  0.00    -0.242 NA
ATOM      8 CL   UNL d   1      57.415   0.557  29.326  0.00  0.00    -0.080 Cl
ATOM      9 CL   UNL d   1      60.145   0.601  28.456  0.00  0.00    -0.082 Cl
ATOM     10  C   UNL d   1      60.640   0.653  30.037  0.00  0.00     0.004 A 
ATOM     11  C   UNL d   1      60.331   0.681  31.436  0.00  0.00     0.099 A 
ATOM     12  C   UNL d   1      60.889   0.679  30.821  0.00  0.00     0.021 A 
ENDROOT
BRANCH   1  13
ATOM     13  O   UNL d   1      57.898   0.608  30.900  0.00  0.00    -0.257 OA
BRANCH  13  14
ATOM     14  C   UNL d   1      57.505  -0.102  31.107  0.00  0.00     0.378 C 
ATOM     15  N   UNL d   1      57.008  -0.123  31.758  0.00  0.00    -0.252 N 
ATOM     16  C   UNL d   1      56.622  -0.827  31.958  0.00  0.00     0.085 A 
ATOM     17  C   UNL d   1      56.891   0.554  32.214  0.00  0.00     0.085 A 
ATOM     18  C   UNL d   1      56.122  -0.851  32.613  0.00  0.00     0.019 A 
ATOM     19  C   UNL d   1      56.005  -0.173  33.069  0.00  0.00     0.003 A 
ATOM     20  C   UNL d   1      56.389   0.525  32.868  0.00  0.00     0.019 A 
ATOM     21  O   UNL d   1      57.624  -0.789  30.645  0.00  0.00    -0.237 OA
ENDBRANCH  13  14
ENDBRANCH   1  13
TORSDOF 2
ENDMDL
MODEL 2
REMARK VINA RESULT:      -3.9      1.153      1.854
REMARK  2 active torsions:
REMARK  status: ('A' for Active; 'I' for Inactive)
REMARK    1  A    between atoms: O_3  and  C_1 
REMARK    2  A    between atoms: C_2  and  O_3 
REMARK       I    between atoms: N_7  and  C_2 
ROOT
ATOM      1  C   UNL d   1      58.056   0.646  31.037  0.00  0.00     0.133 A 
ATOM      2  C   UNL d   1      58.084   0.635  30.200  0.00  0.00     0.106 A 
ATOM      3  C   UNL d   1      58.809   0.647  29.820  0.00  0.00     0.030 A 
ATOM      4  C   UNL d   1      58.754   0.669  31.473  0.00  0.00     0.083 A 
ATOM      5  C   UNL d   1      59.512   0.670  30.248  0.00  0.00     0.060 A 
ATOM      6  C   UNL d   1      59.484   0.681  31.085  0.00  0.00     0.025 A 
ATOM      7  N   UNL d   1      57.378   0.613  29.772  0.00  0.00    -0.242 NA
ATOM      8 CL   UNL d   1      58.726   0.680  32.297  0.00  0.00    -0.080 Cl
ATOM      9 CL   UNL d   1      60.246   0.682  29.868  0.00  0.00    -0.082 Cl
ATOM     10  C   UNL d   1      58.837   0.637  28.995  0.00  0.00     0.004 A 
ATOM     11  C   UNL d   1      57.406   0.602  28.947  0.00  0.00     0.099 A 
ATOM     12  C   UNL d   1      58.140   0.614  28.560  0.00  0.00     0.021 A 
ENDROOT
BRANCH   1  13
ATOM     13  O   UNL d   1      57.321   0.635  31.438  0.00  0.00    -0.257 OA
BRANCH  13  14
ATOM     14  C   UNL d   1      57.042  -0.078  31.779  0.00  0.00     0.378 C 
ATOM     15  N   UNL d   1      56.420  -0.064  32.313  0.00  0.00    -0.252 N 
ATOM     16  C   UNL d   1      56.149  -0.770  32.647  0.00  0.00     0.085 A 
ATOM     17  C   UNL d   1      56.065   0.652  32.518  0.00  0.00     0.085 A 
ATOM     18  C   UNL d   1      55.524  -0.759  33.184  0.00  0.00     0.019 A 
ATOM     19  C   UNL d   1      55.169  -0.043  33.389  0.00  0.00     0.003 A 
ATOM     20  C   UNL d   1      55.440   0.657  33.056  0.00  0.00     0.019 A 
ATOM     21  O   UNL d   1      57.403  -0.804  31.571  0.00  0.00    -0.237 OA
ENDBRANCH  13  14
ENDBRANCH   1  13
TORSDOF 2
ENDMDL
MODEL 3
REMARK VINA RESULT:      -3.4      1.794      4.140
REMARK  2 active torsions:
REMARK  status: ('A' for Active; 'I' for Inactive)
REMARK    1  A    between atoms: O_3  and  C_1 
REMARK    2  A    between atoms: C_2  and  O_3 
REMARK       I    between atoms: N_7  and  C_2 
ROOT
ATOM      1  C   UNL d   1      57.540  -0.307  31.930  0.00  0.00     0.133 A 
ATOM      2  C   UNL d   1      56.876  -0.643  32.314  0.00  0.00     0.106 A 
ATOM      3  C   UNL d   1      56.602  -0.313  33.012  0.00  0.00     0.030 A 
ATOM      4  C   UNL d   1      57.914   0.351  32.253  0.00  0.00     0.083 A 
ATOM      5  C   UNL d   1      56.970   0.345  33.342  0.00  0.00     0.060 A 
ATOM      6  C   UNL d   1      57.634   0.681  32.958  0.00  0.00     0.025 A 
ATOM      7  N   UNL d   1      56.508  -1.304  31.981  0.00  0.00    -0.242 NA
ATOM      8 CL   UNL d   1      58.568   0.682  31.875  0.00  0.00    -0.080 Cl
ATOM      9 CL   UNL d   1      56.697   0.682  34.046  0.00  0.00    -0.082 Cl
ATOM     10  C   UNL d   1      55.948  -0.644  33.390  0.00  0.00     0.004 A 
ATOM     11  C   UNL d   1      55.854  -1.635  32.360  0.00  0.00     0.099 A 
ATOM     12  C   UNL d   1      55.575  -1.302  33.067  0.00  0.00     0.021 A 
ENDROOT
BRANCH   1  13
ATOM     13  O   UNL d   1      57.830  -0.635  31.217  0.00  0.00    -0.257 OA
BRANCH  13  14
ATOM     14  C   UNL d   1      57.837  -0.174  30.517  0.00  0.00     0.378 C 
ATOM     15  N   UNL d   1      58.191  -0.463  29.836  0.00  0.00    -0.252 N 
ATOM     16  C   UNL d   1      58.196  -0.004  29.148  0.00  0.00     0.085 A 
ATOM     17  C   UNL d   1      58.541  -1.210  29.835  0.00  0.00     0.085 A 
ATOM     18  C   UNL d   1      58.550  -0.293  28.463  0.00  0.00     0.019 A 
ATOM     19  C   UNL d   1      58.901  -1.039  28.462  0.00  0.00     0.003 A 
ATOM     20  C   UNL d   1      58.895  -1.494  29.146  0.00  0.00     0.019 A 
ATOM     21  O   UNL d   1      57.482   0.583  30.518  0.00  0.00    -0.237 OA
ENDBRANCH  13  14
ENDBRANCH   1  13
TORSDOF 2
ENDMDL
MODEL 4
REMARK VINA RESULT:      -1.5      3.548      4.395
REMARK  2 active torsions:
REMARK  status: ('A' for Active; 'I' for Inactive)
REMARK    1  A    between atoms: O_3  and  C_1 
REMARK    2  A    between atoms: C_2  and  O_3 
REMARK       I    between atoms: N_7  and  C_2 
ROOT
ATOM      1  C   UNL d   1      59.686  -2.606  28.652  0.00  0.00     0.133 A 
ATOM      2  C   UNL d   1      59.312  -3.353  28.587  0.00  0.00     0.106 A 
ATOM      3  C   UNL d   1      59.766  -4.035  28.591  0.00  0.00     0.030 A 
ATOM      4  C   UNL d   1      60.504  -2.560  28.720  0.00  0.00     0.083 A 
ATOM      5  C   UNL d   1      60.585  -3.998  28.659  0.00  0.00     0.060 A 
ATOM      6  C   UNL d   1      60.959  -3.251  28.724  0.00  0.00     0.025 A 
ATOM      7  N   UNL d   1      58.489  -3.389  28.519  0.00  0.00    -0.242 NA
ATOM      8 CL   UNL d   1      60.873  -1.825  28.784  0.00  0.00    -0.080 Cl
ATOM      9 CL   UNL d   1      61.048  -4.683  28.664  0.00  0.00    -0.082 Cl
ATOM     10  C   UNL d   1      59.398  -4.770  28.527  0.00  0.00     0.004 A 
ATOM     11  C   UNL d   1      58.121  -4.124  28.455  0.00  0.00     0.099 A 
ATOM     12  C   UNL d   1      58.579  -4.816  28.460  0.00  0.00     0.021 A 
ENDROOT
BRANCH   1  13
ATOM     13  O   UNL d   1      59.233  -1.903  28.648  0.00  0.00    -0.257 OA
BRANCH  13  14
ATOM     14  C   UNL d   1      59.068  -1.508  29.369  0.00  0.00     0.378 C 
ATOM     15  N   UNL d   1      58.688  -0.782  29.363  0.00  0.00    -0.252 N 
ATOM     16  C   UNL d   1      58.527  -0.396  30.078  0.00  0.00     0.085 A 
ATOM     17  C   UNL d   1      58.465  -0.434  28.649  0.00  0.00     0.085 A 
ATOM     18  C   UNL d   1      58.145   0.334  30.075  0.00  0.00     0.019 A 
ATOM     19  C   UNL d   1      57.923   0.681  29.360  0.00  0.00     0.003 A 
ATOM     20  C   UNL d   1      58.083   0.297  28.652  0.00  0.00     0.019 A 
ATOM     21  O   UNL d   1      59.294  -1.860  30.093  0.00  0.00    -0.237 OA
ENDBRANCH  13  14
ENDBRANCH   1  13
TORSDOF 2
ENDMDL
MODEL 5
REMARK VINA RESULT:      -1.3      9.777     10.219
REMARK  2 active torsions:
REMARK  status: ('A' for Active; 'I' for Inactive)
REMARK    1  A    between atoms: O_3  and  C_1 
REMARK    2  A    between atoms: C_2  and  O_3 
REMARK       I    between atoms: N_7  and  C_2 
ROOT
ATOM      1  C   UNL d   1      58.963  -9.787  32.351  0.00  0.00     0.133 A 
ATOM      2  C   UNL d   1      59.632  -9.787  31.846  0.00  0.00     0.106 A 
ATOM      3  C   UNL d   1      59.525  -9.756  31.035  0.00  0.00     0.030 A 
ATOM      4  C   UNL d   1      58.206  -9.756  32.033  0.00  0.00     0.083 A 
ATOM      5  C   UNL d   1      58.770  -9.726  30.707  0.00  0.00     0.060 A 
ATOM      6  C   UNL d   1      58.102  -9.726  31.213  0.00  0.00     0.025 A 
ATOM      7  N   UNL d   1      60.388  -9.818  32.177  0.00  0.00    -0.242 NA
ATOM      8 CL   UNL d   1      57.548  -9.756  32.530  0.00  0.00    -0.080 Cl
ATOM      9 CL   UNL d   1      58.658  -9.695  29.889  0.00  0.00    -0.082 Cl
ATOM     10  C   UNL d   1      60.183  -9.756  30.537  0.00  0.00     0.004 A 
ATOM     11  C   UNL d   1      61.046  -9.818  31.679  0.00  0.00     0.099 A 
ATOM     12  C   UNL d   1      60.940  -9.787  30.856  0.00  0.00     0.021 A 
ENDROOT
BRANCH   1  13
ATOM     13  O   UNL d   1      59.059  -9.818  33.182  0.00  0.00    -0.257 OA
BRANCH  13  14
ATOM     14  C   UNL d   1      58.946  -9.127  33.642  0.00  0.00     0.378 C 
ATOM     15  N   UNL d   1      59.223  -9.094  34.413  0.00  0.00    -0.252 N 
ATOM     16  C   UNL d   1      59.108  -8.409  34.863  0.00  0.00     0.085 A 
ATOM     17  C   UNL d   1      59.615  -9.742  34.741  0.00  0.00     0.085 A 
ATOM     18  C   UNL d   1      59.386  -8.375  35.638  0.00  0.00     0.019 A 
ATOM     19  C   UNL d   1      59.778  -9.022  35.966  0.00  0.00     0.003 A 
ATOM     20  C   UNL d   1      59.891  -9.701  35.518  0.00  0.00     0.019 A 
ATOM     21  O   UNL d   1      58.548  -8.470  33.309  0.00  0.00    -0.237 OA
ENDBRANCH  13  14
ENDBRANCH   1  13
TORSDOF 2
ENDMDL
