MODEL 1
REMARK VINA RESULT:      -2.7      0.000      0.000
REMARK  3 active torsions:
REMARK  status: ('A' for Active; 'I' for Inactive)
REMARK    1  A    between atoms: N_10  and  C_7 
REMARK       I    between atoms: C_9  and  N_10 
REMARK    2  A    between atoms: C_12  and  C_9 
REMARK    3  A    between atoms: O_20  and  C_17 
ROOT
ATOM      1  C   UNL d   1      33.179  21.263 -21.506  0.00  0.00     0.081 A 
ATOM      2  C   UNL d   1      33.159  21.924 -21.022  0.00  0.00     0.301 A 
ATOM      3  C   UNL d   1      33.205  21.332 -22.325  0.00  0.00     0.090 A 
ATOM      4  O   UNL d   1      33.164  22.681 -21.369  0.00  0.00    -0.273 OA
ATOM      5  N   UNL d   1      33.225  20.658 -22.804  0.00  0.00    -0.226 NA
ATOM      6  C   UNL d   1      33.210  22.085 -22.665  0.00  0.00     0.041 A 
ATOM      7  C   UNL d   1      33.220  19.905 -22.450  0.00  0.00     0.166 A 
ATOM      8  C   UNL d   1      33.174  20.509 -21.159  0.00  0.00     0.010 A 
ATOM      9  C   UNL d   1      33.190  22.762 -22.189  0.00  0.00     0.105 A 
ATOM     10  C   UNL d   1      33.194  19.830 -21.630  0.00  0.00     0.039 A 
ATOM     11  O   UNL d   1      33.133  21.849 -20.197  0.00  0.00    -0.259 OA
ATOM     12  C   UNL d   1      33.236  22.162 -23.488  0.00  0.00     0.004 A 
ATOM     13  C   UNL d   1      33.148  20.443 -20.337  0.00  0.00     0.000 C 
ATOM     14  C   UNL d   1      33.195  23.506 -22.524  0.00  0.00     0.025 A 
ATOM     15  C   UNL d   1      33.241  22.915 -23.822  0.00  0.00     0.000 A 
ATOM     16  C   UNL d   1      33.220  23.588 -23.339  0.00  0.00     0.002 A 
ENDROOT
BRANCH   7  17
ATOM     17  N   UNL d   1      33.240  19.221 -22.930  0.00  0.00    -0.189 NA
ATOM     18  C   UNL d   1      32.537  18.848 -23.138  0.00  0.00     0.281 C 
ATOM     19  O   UNL d   1      31.810  19.150 -22.871  0.00  0.00    -0.265 OA
BRANCH  18  20
ATOM     20  C   UNL d   1      32.553  18.182 -23.606  0.00  0.00     0.060 A 
ATOM     21  C   UNL d   1      32.613  17.453 -23.269  0.00  0.00     0.029 A 
ATOM     22  C   UNL d   1      32.629  16.774 -23.747  0.00  0.00     0.094 A 
ATOM     23  C   UNL d   1      32.585  16.833 -24.558  0.00  0.00     0.024 A 
ATOM     24  C   UNL d   1      32.522  17.592 -24.902  0.00  0.00     0.002 A 
ATOM     25  C   UNL d   1      32.506  18.260 -24.428  0.00  0.00     0.005 A 
BRANCH  22  26
ATOM     26  O   UNL d   1      32.692  16.024 -23.395  0.00  0.00    -0.328 OA
ATOM     27  C   UNL d   1      32.090  15.453 -23.521  0.00  0.00     0.181 C 
ENDBRANCH  22  26
ENDBRANCH  18  20
ENDBRANCH   7  17
TORSDOF 3
ENDMDL
MODEL 2
REMARK VINA RESULT:      -2.5      1.012      2.079
REMARK  3 active torsions:
REMARK  status: ('A' for Active; 'I' for Inactive)
REMARK    1  A    between atoms: N_10  and  C_7 
REMARK       I    between atoms: C_9  and  N_10 
REMARK    2  A    between atoms: C_12  and  C_9 
REMARK    3  A    between atoms: O_20  and  C_17 
ROOT
ATOM      1  C   UNL d   1      33.232  21.153 -23.292  0.00  0.00     0.081 A 
ATOM      2  C   UNL d   1      33.232  21.966 -23.196  0.00  0.00     0.301 A 
ATOM      3  C   UNL d   1      33.227  20.645 -22.645  0.00  0.00     0.090 A 
ATOM      4  O   UNL d   1      33.228  22.284 -22.427  0.00  0.00    -0.273 OA
ATOM      5  N   UNL d   1      33.226  19.825 -22.754  0.00  0.00    -0.226 NA
ATOM      6  C   UNL d   1      33.223  20.964 -21.884  0.00  0.00     0.041 A 
ATOM      7  C   UNL d   1      33.231  19.515 -23.526  0.00  0.00     0.166 A 
ATOM      8  C   UNL d   1      33.236  20.837 -24.060  0.00  0.00     0.010 A 
ATOM      9  C   UNL d   1      33.223  21.784 -21.771  0.00  0.00     0.105 A 
ATOM     10  C   UNL d   1      33.235  20.019 -24.178  0.00  0.00     0.039 A 
ATOM     11  O   UNL d   1      33.237  22.474 -23.851  0.00  0.00    -0.259 OA
ATOM     12  C   UNL d   1      33.218  20.460 -21.228  0.00  0.00     0.004 A 
ATOM     13  C   UNL d   1      33.241  21.349 -24.707  0.00  0.00     0.000 C 
ATOM     14  C   UNL d   1      33.219  22.100 -21.019  0.00  0.00     0.025 A 
ATOM     15  C   UNL d   1      33.214  20.784 -20.471  0.00  0.00     0.000 A 
ATOM     16  C   UNL d   1      33.214  21.605 -20.366  0.00  0.00     0.002 A 
ENDROOT
BRANCH   7  17
ATOM     17  N   UNL d   1      33.230  18.687 -23.640  0.00  0.00    -0.189 NA
ATOM     18  C   UNL d   1      32.535  18.306 -23.865  0.00  0.00     0.281 C 
ATOM     19  O   UNL d   1      31.838  18.746 -23.978  0.00  0.00    -0.265 OA
BRANCH  18  20
ATOM     20  C   UNL d   1      32.531  17.500 -23.977  0.00  0.00     0.060 A 
ATOM     21  C   UNL d   1      32.036  17.036 -23.545  0.00  0.00     0.029 A 
ATOM     22  C   UNL d   1      32.031  16.213 -23.659  0.00  0.00     0.094 A 
ATOM     23  C   UNL d   1      32.524  15.865 -24.206  0.00  0.00     0.024 A 
ATOM     24  C   UNL d   1      33.036  16.353 -24.652  0.00  0.00     0.002 A 
ATOM     25  C   UNL d   1      33.038  17.163 -24.537  0.00  0.00     0.005 A 
BRANCH  22  26
ATOM     26  O   UNL d   1      31.518  15.737 -23.211  0.00  0.00    -0.328 OA
ATOM     27  C   UNL d   1      30.807  15.453 -23.553  0.00  0.00     0.181 C 
ENDBRANCH  22  26
ENDBRANCH  18  20
ENDBRANCH   7  17
TORSDOF 3
ENDMDL
MODEL 3
REMARK VINA RESULT:      -1.5      1.916      5.499
REMARK  3 active torsions:
REMARK  status: ('A' for Active; 'I' for Inactive)
REMARK    1  A    between atoms: N_10  and  C_7 
REMARK       I    between atoms: C_9  and  N_10 
REMARK    2  A    between atoms: C_12  and  C_9 
REMARK    3  A    between atoms: O_20  and  C_17 
ROOT
ATOM      1  C   UNL d   1      31.418  16.776 -24.547  0.00  0.00     0.081 A 
ATOM      2  C   UNL d   1      31.169  16.033 -24.784  0.00  0.00     0.301 A 
ATOM      3  C   UNL d   1      30.881  17.350 -24.302  0.00  0.00     0.090 A 
ATOM      4  O   UNL d   1      30.355  15.856 -24.778  0.00  0.00    -0.273 OA
ATOM      5  N   UNL d   1      31.144  18.098 -24.065  0.00  0.00    -0.226 NA
ATOM      6  C   UNL d   1      30.075  17.171 -24.297  0.00  0.00     0.041 A 
ATOM      7  C   UNL d   1      31.959  18.266 -24.074  0.00  0.00     0.166 A 
ATOM      8  C   UNL d   1      32.229  16.951 -24.554  0.00  0.00     0.010 A 
ATOM      9  C   UNL d   1      29.809  16.424 -24.535  0.00  0.00     0.105 A 
ATOM     10  C   UNL d   1      32.500  17.696 -24.318  0.00  0.00     0.039 A 
ATOM     11  O   UNL d   1      31.713  15.458 -25.030  0.00  0.00    -0.259 OA
ATOM     12  C   UNL d   1      29.530  17.742 -24.053  0.00  0.00     0.004 A 
ATOM     13  C   UNL d   1      32.764  16.374 -24.800  0.00  0.00     0.000 C 
ATOM     14  C   UNL d   1      29.012  16.246 -24.530  0.00  0.00     0.025 A 
ATOM     15  C   UNL d   1      28.728  17.558 -24.050  0.00  0.00     0.000 A 
ATOM     16  C   UNL d   1      28.468  16.809 -24.288  0.00  0.00     0.002 A 
ENDROOT
BRANCH   7  17
ATOM     17  N   UNL d   1      32.228  19.021 -23.835  0.00  0.00    -0.189 NA
ATOM     18  C   UNL d   1      32.445  19.146 -23.051  0.00  0.00     0.281 C 
ATOM     19  O   UNL d   1      32.396  18.525 -22.501  0.00  0.00    -0.265 OA
BRANCH  18  20
ATOM     20  C   UNL d   1      32.707  19.880 -22.813  0.00  0.00     0.060 A 
ATOM     21  C   UNL d   1      32.705  20.076 -22.033  0.00  0.00     0.029 A 
ATOM     22  C   UNL d   1      32.973  20.824 -21.791  0.00  0.00     0.094 A 
ATOM     23  C   UNL d   1      33.241  21.367 -22.335  0.00  0.00     0.024 A 
ATOM     24  C   UNL d   1      33.241  21.158 -23.145  0.00  0.00     0.002 A 
ATOM     25  C   UNL d   1      32.976  20.419 -23.380  0.00  0.00     0.005 A 
BRANCH  22  26
ATOM     26  O   UNL d   1      32.969  21.023 -20.985  0.00  0.00    -0.328 OA
ATOM     27  C   UNL d   1      32.442  21.612 -20.702  0.00  0.00     0.181 C 
ENDBRANCH  22  26
ENDBRANCH  18  20
ENDBRANCH   7  17
TORSDOF 3
ENDMDL
