MODEL 1
REMARK VINA RESULT:      47.8      0.000      0.000
REMARK  3 active torsions:
REMARK  status: ('A' for Active; 'I' for Inactive)
REMARK    1  A    between atoms: C_6  and  N_1 
REMARK    2  A    between atoms: C_5  and  C_6 
REMARK       I    between atoms: N_8  and  C_5 
REMARK    3  A    between atoms: C_10  and  N_8 
ROOT
ATOM      1  C   UNL d   1      59.583  49.666  50.591  0.00  0.00     0.297 C 
ATOM      2  N   UNL d   1      58.890  49.637  51.045  0.00  0.00    -0.207 NA
ATOM      3  O   UNL d   1      59.535  49.706  49.772  0.00  0.00    -0.264 OA
ENDROOT
BRANCH   1   4
ATOM      4  C   UNL d   1      60.318  49.656  50.963  0.00  0.00     0.145 C 
BRANCH   4   5
ATOM      5  N   UNL d   1      60.635  48.946  51.227  0.00  0.00    -0.282 N 
ATOM      6  C   UNL d   1      60.631  48.666  52.006  0.00  0.00     0.183 A 
ATOM      7  N   UNL d   1      61.010  47.934  52.016  0.00  0.00    -0.224 NA
ATOM      8  C   UNL d   1      61.251  47.756  51.245  0.00  0.00     0.099 A 
ATOM      9  C   UNL d   1      61.017  48.385  50.758  0.00  0.00     0.083 A 
ATOM     10  C   UNL d   1      61.648  47.109  50.929  0.00  0.00     0.021 A 
ATOM     11  C   UNL d   1      61.189  48.353  49.953  0.00  0.00     0.019 A 
ATOM     12  C   UNL d   1      61.583  47.715  49.630  0.00  0.00     0.002 A 
ATOM     13  C   UNL d   1      61.818  47.081  50.118  0.00  0.00     0.002 A 
ENDBRANCH   4   5
ENDBRANCH   1   4
BRANCH   2  14
ATOM     14  C   UNL d   1      58.185  49.651  50.612  0.00  0.00     0.085 A 
ATOM     15  C   UNL d   1      57.466  49.662  51.004  0.00  0.00     0.019 A 
ATOM     16  C   UNL d   1      56.760  49.676  50.579  0.00  0.00     0.002 A 
ATOM     17  C   UNL d   1      56.036  49.687  50.975  0.00  0.00     0.000 C 
ATOM     18  C   UNL d   1      56.782  49.680  49.746  0.00  0.00     0.000 A 
ATOM     19  C   UNL d   1      57.505  49.669  49.354  0.00  0.00     0.002 A 
ATOM     20  C   UNL d   1      56.076  49.694  49.312  0.00  0.00     0.000 C 
ATOM     21  C   UNL d   1      58.211  49.654  49.787  0.00  0.00     0.019 A 
ENDBRANCH   2  14
TORSDOF 3
ENDMDL
