MODEL 1
REMARK VINA RESULT:      -4.3      0.000      0.000
REMARK  4 active torsions:
REMARK  status: ('A' for Active; 'I' for Inactive)
REMARK    1  A    between atoms: C_3  and  N_1 
REMARK    2  A    between atoms: C_2  and  C_7 
REMARK       I    between atoms: N_4  and  C_2 
REMARK    3  A    between atoms: C_15  and  N_4 
REMARK    4  A    between atoms: C_8  and  C_15 
ROOT
ATOM      1  C   UNL d   1      60.079  -6.970  35.982  0.00  0.00     0.127 A 
ATOM      2  C   UNL d   1      59.549  -8.516  35.795  0.00  0.00     0.058 A 
ATOM      3  C   UNL d   1      60.601  -7.609  36.045  0.00  0.00     0.024 A 
ATOM      4  C   UNL d   1      59.255  -7.128  35.817  0.00  0.00     0.024 A 
ATOM      5  C   UNL d   1      59.010  -7.895  35.728  0.00  0.00     0.006 A 
ATOM      6  C   UNL d   1      60.328  -8.367  35.950  0.00  0.00     0.006 A 
ENDROOT
BRANCH   2   7
ATOM      7  C   UNL d   1      59.259  -9.292  35.696  0.00  0.00     0.279 C 
ATOM      8  N   UNL d   1      59.282  -9.670  34.957  0.00  0.00    -0.200 NA
ATOM      9  O   UNL d   1      58.945  -9.695  36.330  0.00  0.00    -0.265 OA
BRANCH   8  10
ATOM     10  C   UNL d   1      59.606  -9.257  34.298  0.00  0.00     0.172 C 
BRANCH  10  11
ATOM     11  C   UNL d   1      59.614  -9.603  33.559  0.00  0.00     0.231 C 
ATOM     12  O   UNL d   1      58.891  -9.789  33.184  0.00  0.00    -0.643 OA
ATOM     13  O   UNL d   1      60.320  -9.763  33.198  0.00  0.00    -0.643 OA
ENDBRANCH  10  11
ENDBRANCH   8  10
ENDBRANCH   2   7
BRANCH   1  14
ATOM     14  N   UNL d   1      60.340  -6.171  36.076  0.00  0.00    -0.114 N 
ATOM     15  O   UNL d   1      61.133  -5.993  36.283  0.00  0.00    -0.532 OA
ATOM     16  O   UNL d   1      59.796  -5.555  35.960  0.00  0.00    -0.532 OA
ENDBRANCH   1  14
TORSDOF 4
ENDMDL
MODEL 2
REMARK VINA RESULT:      -3.5      8.725      9.785
REMARK  4 active torsions:
REMARK  status: ('A' for Active; 'I' for Inactive)
REMARK    1  A    between atoms: C_3  and  N_1 
REMARK    2  A    between atoms: C_2  and  C_7 
REMARK       I    between atoms: N_4  and  C_2 
REMARK    3  A    between atoms: C_15  and  N_4 
REMARK    4  A    between atoms: C_8  and  C_15 
ROOT
ATOM      1  C   UNL d   1      56.598  -0.413  32.263  0.00  0.00     0.127 A 
ATOM      2  C   UNL d   1      57.406   0.141  30.942  0.00  0.00     0.058 A 
ATOM      3  C   UNL d   1      56.978  -0.937  31.746  0.00  0.00     0.024 A 
ATOM      4  C   UNL d   1      56.633   0.425  32.097  0.00  0.00     0.024 A 
ATOM      5  C   UNL d   1      57.035   0.682  31.442  0.00  0.00     0.006 A 
ATOM      6  C   UNL d   1      57.373  -0.651  31.098  0.00  0.00     0.006 A 
ENDROOT
BRANCH   2   7
ATOM      7  C   UNL d   1      57.811   0.443  30.277  0.00  0.00     0.279 C 
ATOM      8  N   UNL d   1      58.620   0.627  30.312  0.00  0.00    -0.200 NA
ATOM      9  O   UNL d   1      57.414   0.564  29.577  0.00  0.00    -0.265 OA
BRANCH   8  10
ATOM     10  C   UNL d   1      59.035   0.503  31.035  0.00  0.00     0.172 C 
BRANCH  10  11
ATOM     11  C   UNL d   1      59.842   0.617  31.071  0.00  0.00     0.231 C 
ATOM     12  O   UNL d   1      60.217   0.675  31.815  0.00  0.00    -0.643 OA
ATOM     13  O   UNL d   1      60.270   0.674  30.387  0.00  0.00    -0.643 OA
ENDBRANCH  10  11
ENDBRANCH   8  10
ENDBRANCH   2   7
BRANCH   1  14
ATOM     14  N   UNL d   1      56.179  -0.687  32.944  0.00  0.00    -0.114 N 
ATOM     15  O   UNL d   1      56.279  -0.323  33.694  0.00  0.00    -0.532 OA
ATOM     16  O   UNL d   1      55.660  -1.329  32.865  0.00  0.00    -0.532 OA
ENDBRANCH   1  14
TORSDOF 4
ENDMDL
MODEL 3
REMARK VINA RESULT:      -3.4      8.820      9.786
REMARK  4 active torsions:
REMARK  status: ('A' for Active; 'I' for Inactive)
REMARK    1  A    between atoms: C_3  and  N_1 
REMARK    2  A    between atoms: C_2  and  C_7 
REMARK       I    between atoms: N_4  and  C_2 
REMARK    3  A    between atoms: C_15  and  N_4 
REMARK    4  A    between atoms: C_8  and  C_15 
ROOT
ATOM      1  C   UNL d   1      56.743  -0.234  31.981  0.00  0.00     0.127 A 
ATOM      2  C   UNL d   1      55.613   0.047  33.142  0.00  0.00     0.058 A 
ATOM      3  C   UNL d   1      56.434  -0.855  32.434  0.00  0.00     0.024 A 
ATOM      4  C   UNL d   1      56.463   0.560  32.128  0.00  0.00     0.024 A 
ATOM      5  C   UNL d   1      55.906   0.682  32.704  0.00  0.00     0.006 A 
ATOM      6  C   UNL d   1      55.878  -0.703  33.003  0.00  0.00     0.006 A 
ENDROOT
BRANCH   2   7
ATOM      7  C   UNL d   1      55.040   0.213  33.726  0.00  0.00     0.279 C 
ATOM      8  N   UNL d   1      55.258   0.497  34.475  0.00  0.00    -0.200 NA
ATOM      9  O   UNL d   1      54.250   0.097  33.569  0.00  0.00    -0.265 OA
BRANCH   8  10
ATOM     10  C   UNL d   1      56.075   0.619  34.643  0.00  0.00     0.172 C 
BRANCH  10  11
ATOM     11  C   UNL d   1      56.340   0.627  35.415  0.00  0.00     0.231 C 
ATOM     12  O   UNL d   1      55.787   0.578  36.040  0.00  0.00    -0.643 OA
ATOM     13  O   UNL d   1      57.132   0.682  35.567  0.00  0.00    -0.643 OA
ENDBRANCH  10  11
ENDBRANCH   8  10
ENDBRANCH   2   7
BRANCH   1  14
ATOM     14  N   UNL d   1      57.324  -0.368  31.382  0.00  0.00    -0.114 N 
ATOM     15  O   UNL d   1      57.335  -1.077  30.932  0.00  0.00    -0.532 OA
ATOM     16  O   UNL d   1      57.895   0.219  31.239  0.00  0.00    -0.532 OA
ENDBRANCH   1  14
TORSDOF 4
ENDMDL
MODEL 4
REMARK VINA RESULT:      -3.4      8.755      9.984
REMARK  4 active torsions:
REMARK  status: ('A' for Active; 'I' for Inactive)
REMARK    1  A    between atoms: C_3  and  N_1 
REMARK    2  A    between atoms: C_2  and  C_7 
REMARK       I    between atoms: N_4  and  C_2 
REMARK    3  A    between atoms: C_15  and  N_4 
REMARK    4  A    between atoms: C_8  and  C_15 
ROOT
ATOM      1  C   UNL d   1      56.997  -0.391  31.666  0.00  0.00     0.127 A 
ATOM      2  C   UNL d   1      57.766   0.157  30.320  0.00  0.00     0.058 A 
ATOM      3  C   UNL d   1      57.017   0.417  31.487  0.00  0.00     0.024 A 
ATOM      4  C   UNL d   1      57.385  -0.939  31.137  0.00  0.00     0.024 A 
ATOM      5  C   UNL d   1      57.759  -0.653  30.477  0.00  0.00     0.006 A 
ATOM      6  C   UNL d   1      57.399   0.675  30.820  0.00  0.00     0.006 A 
ENDROOT
BRANCH   2   7
ATOM      7  C   UNL d   1      58.162   0.413  29.631  0.00  0.00     0.279 C 
ATOM      8  N   UNL d   1      58.976   0.579  29.639  0.00  0.00    -0.200 NA
ATOM      9  O   UNL d   1      57.753   0.506  28.934  0.00  0.00    -0.265 OA
BRANCH   8  10
ATOM     10  C   UNL d   1      59.405   0.484  30.358  0.00  0.00     0.172 C 
BRANCH  10  11
ATOM     11  C   UNL d   1      60.209   0.616  30.378  0.00  0.00     0.231 C 
ATOM     12  O   UNL d   1      60.633   0.682  29.661  0.00  0.00    -0.643 OA
ATOM     13  O   UNL d   1      60.589   0.681  31.089  0.00  0.00    -0.643 OA
ENDBRANCH  10  11
ENDBRANCH   8  10
ENDBRANCH   2   7
BRANCH   1  14
ATOM     14  N   UNL d   1      56.604  -0.684  32.355  0.00  0.00    -0.114 N 
ATOM     15  O   UNL d   1      56.544  -0.222  33.054  0.00  0.00    -0.532 OA
ATOM     16  O   UNL d   1      56.272  -1.445  32.335  0.00  0.00    -0.532 OA
ENDBRANCH   1  14
TORSDOF 4
ENDMDL
MODEL 5
REMARK VINA RESULT:      -2.8      8.823      9.914
REMARK  4 active torsions:
REMARK  status: ('A' for Active; 'I' for Inactive)
REMARK    1  A    between atoms: C_3  and  N_1 
REMARK    2  A    between atoms: C_2  and  C_7 
REMARK       I    between atoms: N_4  and  C_2 
REMARK    3  A    between atoms: C_15  and  N_4 
REMARK    4  A    between atoms: C_8  and  C_15 
ROOT
ATOM      1  C   UNL d   1      59.874  -1.728  29.006  0.00  0.00     0.127 A 
ATOM      2  C   UNL d   1      58.737  -0.543  29.099  0.00  0.00     0.058 A 
ATOM      3  C   UNL d   1      59.072  -1.897  28.886  0.00  0.00     0.024 A 
ATOM      4  C   UNL d   1      60.102  -0.922  29.180  0.00  0.00     0.024 A 
ATOM      5  C   UNL d   1      59.530  -0.350  29.222  0.00  0.00     0.006 A 
ATOM      6  C   UNL d   1      58.521  -1.304  28.935  0.00  0.00     0.006 A 
ENDROOT
BRANCH   2   7
ATOM      7  C   UNL d   1      58.177   0.074  29.151  0.00  0.00     0.279 C 
ATOM      8  N   UNL d   1      57.757   0.217  29.853  0.00  0.00    -0.200 NA
ATOM      9  O   UNL d   1      58.032   0.550  28.507  0.00  0.00    -0.265 OA
BRANCH   8  10
ATOM     10  C   UNL d   1      57.904  -0.273  30.523  0.00  0.00     0.172 C 
BRANCH  10  11
ATOM     11  C   UNL d   1      57.487  -0.160  31.215  0.00  0.00     0.231 C 
ATOM     12  O   UNL d   1      56.841  -0.659  31.392  0.00  0.00    -0.643 OA
ATOM     13  O   UNL d   1      57.702   0.433  31.721  0.00  0.00    -0.643 OA
ENDBRANCH  10  11
ENDBRANCH   8  10
ENDBRANCH   2   7
BRANCH   1  14
ATOM     14  N   UNL d   1      60.467  -2.329  28.961  0.00  0.00    -0.114 N 
ATOM     15  O   UNL d   1      61.133  -2.249  28.458  0.00  0.00    -0.532 OA
ATOM     16  O   UNL d   1      60.382  -3.011  29.427  0.00  0.00    -0.532 OA
ENDBRANCH   1  14
TORSDOF 4
ENDMDL
MODEL 6
REMARK VINA RESULT:      -2.7      8.813      9.771
REMARK  4 active torsions:
REMARK  status: ('A' for Active; 'I' for Inactive)
REMARK    1  A    between atoms: C_3  and  N_1 
REMARK    2  A    between atoms: C_2  and  C_7 
REMARK       I    between atoms: N_4  and  C_2 
REMARK    3  A    between atoms: C_15  and  N_4 
REMARK    4  A    between atoms: C_8  and  C_15 
ROOT
ATOM      1  C   UNL d   1      56.233  -0.354  32.648  0.00  0.00     0.127 A 
ATOM      2  C   UNL d   1      57.662   0.203  32.053  0.00  0.00     0.058 A 
ATOM      3  C   UNL d   1      56.687  -0.815  32.132  0.00  0.00     0.024 A 
ATOM      4  C   UNL d   1      56.521   0.420  32.868  0.00  0.00     0.024 A 
ATOM      5  C   UNL d   1      57.227   0.680  32.567  0.00  0.00     0.006 A 
ATOM      6  C   UNL d   1      57.390  -0.529  31.845  0.00  0.00     0.006 A 
ENDROOT
BRANCH   2   7
ATOM      7  C   UNL d   1      58.384   0.505  31.764  0.00  0.00     0.279 C 
ATOM      8  N   UNL d   1      58.486   0.679  30.958  0.00  0.00    -0.200 NA
ATOM      9  O   UNL d   1      59.006   0.636  32.272  0.00  0.00    -0.265 OA
BRANCH   8  10
ATOM     10  C   UNL d   1      57.844   0.545  30.428  0.00  0.00     0.172 C 
BRANCH  10  11
ATOM     11  C   UNL d   1      57.953   0.621  29.623  0.00  0.00     0.231 C 
ATOM     12  O   UNL d   1      57.288   0.658  29.119  0.00  0.00    -0.643 OA
ATOM     13  O   UNL d   1      58.703   0.661  29.321  0.00  0.00    -0.643 OA
ENDBRANCH  10  11
ENDBRANCH   8  10
ENDBRANCH   2   7
BRANCH   1  14
ATOM     14  N   UNL d   1      55.497  -0.630  32.960  0.00  0.00    -0.114 N 
ATOM     15  O   UNL d   1      55.306  -1.447  32.971  0.00  0.00    -0.532 OA
ATOM     16  O   UNL d   1      54.956  -0.077  33.260  0.00  0.00    -0.532 OA
ENDBRANCH   1  14
TORSDOF 4
ENDMDL
MODEL 7
REMARK VINA RESULT:      -2.6      8.619      9.310
REMARK  4 active torsions:
REMARK  status: ('A' for Active; 'I' for Inactive)
REMARK    1  A    between atoms: C_3  and  N_1 
REMARK    2  A    between atoms: C_2  and  C_7 
REMARK       I    between atoms: N_4  and  C_2 
REMARK    3  A    between atoms: C_15  and  N_4 
REMARK    4  A    between atoms: C_8  and  C_15 
ROOT
ATOM      1  C   UNL d   1      57.194  -0.047  32.273  0.00  0.00     0.127 A 
ATOM      2  C   UNL d   1      57.562   0.006  30.671  0.00  0.00     0.058 A 
ATOM      3  C   UNL d   1      56.820  -0.552  31.734  0.00  0.00     0.024 A 
ATOM      4  C   UNL d   1      57.777   0.505  31.981  0.00  0.00     0.024 A 
ATOM      5  C   UNL d   1      57.947   0.519  31.189  0.00  0.00     0.006 A 
ATOM      6  C   UNL d   1      57.010  -0.516  30.947  0.00  0.00     0.006 A 
ENDROOT
BRANCH   2   7
ATOM      7  C   UNL d   1      57.763   0.049  29.862  0.00  0.00     0.279 C 
ATOM      8  N   UNL d   1      58.215  -0.545  29.498  0.00  0.00    -0.200 NA
ATOM      9  O   UNL d   1      57.518   0.682  29.413  0.00  0.00    -0.265 OA
BRANCH   8  10
ATOM     10  C   UNL d   1      58.471  -1.202  29.959  0.00  0.00     0.172 C 
BRANCH  10  11
ATOM     11  C   UNL d   1      58.898  -1.806  29.613  0.00  0.00     0.231 C 
ATOM     12  O   UNL d   1      58.597  -2.585  29.632  0.00  0.00    -0.643 OA
ATOM     13  O   UNL d   1      59.605  -1.645  29.257  0.00  0.00    -0.643 OA
ENDBRANCH  10  11
ENDBRANCH   8  10
ENDBRANCH   2   7
BRANCH   1  14
ATOM     14  N   UNL d   1      57.013  -0.066  33.099  0.00  0.00    -0.114 N 
ATOM     15  O   UNL d   1      57.324   0.507  33.628  0.00  0.00    -0.532 OA
ATOM     16  O   UNL d   1      56.516  -0.665  33.387  0.00  0.00    -0.532 OA
ENDBRANCH   1  14
TORSDOF 4
ENDMDL
