MODEL 1
REMARK VINA RESULT:      49.1      0.000      0.000
REMARK  3 active torsions:
REMARK  status: ('A' for Active; 'I' for Inactive)
REMARK    1  A    between atoms: C_14  and  N_3 
REMARK    2  A    between atoms: O_17  and  C_12 
REMARK    3  A    between atoms: O_16  and  C_13 
ROOT
ATOM      1  C   UNL d   1     -54.784-101.289 -43.061  0.00  0.00     0.166 A 
ATOM      2  C   UNL d   1     -54.750-100.494 -42.771  0.00  0.00     0.117 A 
ATOM      3  N   UNL d   1     -54.796-101.254 -43.891  0.00  0.00    -0.289 N 
ATOM      4  N   UNL d   1     -54.798-101.913 -42.502  0.00  0.00    -0.225 NA
ATOM      5  N   UNL d   1     -54.731-100.349 -41.966  0.00  0.00    -0.241 NA
ATOM      6  C   UNL d   1     -54.743-100.010 -43.435  0.00  0.00     0.037 A 
ATOM      7  C   UNL d   1     -54.771-100.473 -44.117  0.00  0.00     0.067 A 
ATOM      8  C   UNL d   1     -54.779-101.771 -41.700  0.00  0.00     0.103 A 
ATOM      9  C   UNL d   1     -54.746-100.989 -41.431  0.00  0.00     0.101 A 
ATOM     10  C   UNL d   1     -54.794-102.391 -41.187  0.00  0.00     0.047 A 
ATOM     11  C   UNL d   1     -54.727-100.843 -40.627  0.00  0.00     0.047 A 
ATOM     12  C   UNL d   1     -54.741-101.467 -40.069  0.00  0.00     0.118 A 
ATOM     13  C   UNL d   1     -54.775-102.243 -40.376  0.00  0.00     0.118 A 
ATOM     14  C   UNL d   1     -54.714 -99.185 -43.500  0.00  0.00     0.003 A 
ATOM     15  C   UNL d   1     -54.769-100.098 -44.844  0.00  0.00     0.018 A 
ATOM     16  C   UNL d   1     -54.713 -98.821 -44.243  0.00  0.00     0.000 A 
ATOM     17  C   UNL d   1     -54.741 -99.284 -44.926  0.00  0.00     0.002 A 
ENDROOT
BRANCH   3  18
ATOM     18  C   UNL d   1     -54.828-101.892 -44.388  0.00  0.00     0.082 C 
ATOM     19  C   UNL d   1     -55.531-102.077 -44.778  0.00  0.00     0.021 C 
ENDBRANCH   3  18
BRANCH  13  20
ATOM     20  O   UNL d   1     -54.789-102.863 -39.857  0.00  0.00    -0.326 OA
ATOM     21  C   UNL d   1     -55.166-102.796 -39.121  0.00  0.00     0.181 C 
ENDBRANCH  13  20
BRANCH  12  22
ATOM     22  O   UNL d   1     -54.722-101.310 -39.244  0.00  0.00    -0.326 OA
ATOM     23  C   UNL d   1     -54.741-100.521 -38.973  0.00  0.00     0.181 C 
ENDBRANCH  12  22
TORSDOF 3
ENDMDL
MODEL 2
REMARK VINA RESULT:      49.3      2.356      3.958
REMARK  3 active torsions:
REMARK  status: ('A' for Active; 'I' for Inactive)
REMARK    1  A    between atoms: C_14  and  N_3 
REMARK    2  A    between atoms: O_17  and  C_12 
REMARK    3  A    between atoms: O_16  and  C_13 
ROOT
ATOM      1  C   UNL d   1     -54.713-101.037 -39.443  0.00  0.00     0.166 A 
ATOM      2  C   UNL d   1     -54.712-101.874 -39.572  0.00  0.00     0.117 A 
ATOM      3  N   UNL d   1     -54.714-100.668 -40.188  0.00  0.00    -0.289 N 
ATOM      4  N   UNL d   1     -54.713-100.758 -38.653  0.00  0.00    -0.225 NA
ATOM      5  N   UNL d   1     -54.712-102.389 -38.935  0.00  0.00    -0.241 NA
ATOM      6  C   UNL d   1     -54.712-101.979 -40.387  0.00  0.00     0.037 A 
ATOM      7  C   UNL d   1     -54.713-101.244 -40.762  0.00  0.00     0.067 A 
ATOM      8  C   UNL d   1     -54.713-101.269 -38.018  0.00  0.00     0.103 A 
ATOM      9  C   UNL d   1     -54.712-102.084 -38.159  0.00  0.00     0.101 A 
ATOM     10  C   UNL d   1     -54.713-100.973 -37.270  0.00  0.00     0.047 A 
ATOM     11  C   UNL d   1     -54.712-102.600 -37.524  0.00  0.00     0.047 A 
ATOM     12  C   UNL d   1     -54.712-102.322 -36.734  0.00  0.00     0.118 A 
ATOM     13  C   UNL d   1     -54.713-101.493 -36.631  0.00  0.00     0.118 A 
ATOM     14  C   UNL d   1     -54.712-102.671 -40.841  0.00  0.00     0.003 A 
ATOM     15  C   UNL d   1     -54.713-101.224 -41.579  0.00  0.00     0.018 A 
ATOM     16  C   UNL d   1     -54.712-102.633 -41.667  0.00  0.00     0.000 A 
ATOM     17  C   UNL d   1     -54.713-101.898 -42.042  0.00  0.00     0.002 A 
ENDROOT
BRANCH   3  18
ATOM     18  C   UNL d   1     -54.714 -99.869 -40.316  0.00  0.00     0.082 C 
ATOM     19  C   UNL d   1     -55.301 -99.397 -39.978  0.00  0.00     0.021 C 
ENDBRANCH   3  18
BRANCH  13  20
ATOM     20  O   UNL d   1     -54.713-101.199 -35.877  0.00  0.00    -0.326 OA
ATOM     21  C   UNL d   1     -54.981-100.431 -35.717  0.00  0.00     0.181 C 
ENDBRANCH  13  20
BRANCH  12  22
ATOM     22  O   UNL d   1     -54.711-102.857 -36.087  0.00  0.00    -0.326 OA
ATOM     23  C   UNL d   1     -55.229-102.730 -35.445  0.00  0.00     0.181 C 
ENDBRANCH  12  22
TORSDOF 3
ENDMDL
