MODEL 1
REMARK VINA RESULT:      62.6      0.000      0.000
REMARK  3 active torsions:
REMARK  status: ('A' for Active; 'I' for Inactive)
REMARK    1  A    between atoms: C_10  and  C_4 
REMARK    2  A    between atoms: C_11  and  C_6 
REMARK    3  A    between atoms: C_12  and  C_9 
ROOT
ATOM      1  N   UNL d   1     -52.301  24.892  33.695  0.00  0.00    -0.212 N 
ATOM      2  C   UNL d   1     -52.092  24.088  33.753  0.00  0.00     0.166 A 
ATOM      3  N   UNL d   1     -53.120  24.952  33.772  0.00  0.00    -0.158 NA
ATOM      4  C   UNL d   1     -53.418  24.180  33.878  0.00  0.00     0.169 A 
ATOM      5  C   UNL d   1     -52.785  23.665  33.865  0.00  0.00     0.066 A 
ATOM      6  C   UNL d   1     -51.711  25.460  33.580  0.00  0.00     0.086 A 
ATOM      7  N   UNL d   1     -51.294  23.857  33.696  0.00  0.00    -0.227 NA
ATOM      8  C   UNL d   1     -50.911  25.241  33.521  0.00  0.00     0.038 A 
ATOM      9  C   UNL d   1     -50.702  24.436  33.579  0.00  0.00     0.085 A 
ENDROOT
BRANCH   6  10
ATOM     10  C   UNL d   1     -51.744  26.286  33.502  0.00  0.00     0.018 A 
ATOM     11  C   UNL d   1     -51.046  26.706  33.383  0.00  0.00     0.002 A 
ATOM     12  C   UNL d   1     -51.066  27.474  33.309  0.00  0.00     0.000 A 
ATOM     13  C   UNL d   1     -51.805  27.903  33.349  0.00  0.00     0.000 A 
ATOM     14  C   UNL d   1     -52.496  27.515  33.464  0.00  0.00     0.000 A 
ATOM     15  C   UNL d   1     -52.463  26.694  33.542  0.00  0.00     0.002 A 
ENDBRANCH   6  10
BRANCH   9  16
ATOM     16  C   UNL d   1     -49.926  24.200  33.524  0.00  0.00     0.018 A 
ATOM     17  C   UNL d   1     -49.731  23.414  33.396  0.00  0.00     0.002 A 
ATOM     18  C   UNL d   1     -48.956  23.197  33.344  0.00  0.00     0.000 A 
ATOM     19  C   UNL d   1     -48.326  23.758  33.418  0.00  0.00     0.000 A 
ATOM     20  C   UNL d   1     -48.521  24.545  33.546  0.00  0.00     0.000 A 
ATOM     21  C   UNL d   1     -49.322  24.774  33.601  0.00  0.00     0.002 A 
ENDBRANCH   9  16
BRANCH   4  22
ATOM     22  C   UNL d   1     -54.207  23.982  33.977  0.00  0.00     0.231 C 
ATOM     23  O   UNL d   1     -54.503  23.885  34.739  0.00  0.00    -0.643 OA
ATOM     24  O   UNL d   1     -54.683  23.885  33.307  0.00  0.00    -0.643 OA
ENDBRANCH   4  22
TORSDOF 3
ENDMDL
