MODEL 1
REMARK VINA RESULT:      -8.7      0.000      0.000
REMARK  2 active torsions:
REMARK  status: ('A' for Active; 'I' for Inactive)
REMARK    1  A    between atoms: S_2  and  N_1 
REMARK    2  A    between atoms: C_10  and  S_2 
ROOT
ATOM      1  S   UNL d   1      53.110  32.978  53.675  0.00  0.00     0.273 S 
ATOM      2  O   UNL d   1      52.385  32.873  54.055  0.00  0.00    -0.200 OA
ATOM      3  O   UNL d   1      53.833  33.075  53.293  0.00  0.00    -0.200 OA
ENDROOT
BRANCH   1   4
ATOM      4  N   UNL d   1      53.141  32.172  53.503  0.00  0.00    -0.207 N 
ATOM      5  C   UNL d   1      52.668  31.931  52.871  0.00  0.00     0.148 A 
ATOM      6  N   UNL d   1      52.574  31.166  52.559  0.00  0.00    -0.198 NA
ATOM      7  C   UNL d   1      52.925  30.474  52.800  0.00  0.00     0.066 A 
ATOM      8  C   UNL d   1      53.146  31.457  53.322  0.00  0.00     0.169 A 
ATOM      9  C   UNL d   1      53.462  30.351  53.412  0.00  0.00     0.066 A 
ATOM     10  N   UNL d   1      53.779  30.905  53.938  0.00  0.00    -0.198 NA
ATOM     11  C   UNL d   1      53.635  31.712  53.975  0.00  0.00     0.148 A 
ENDBRANCH   1   4
BRANCH   1  12
ATOM     12  C   UNL d   1      53.082  33.784  53.845  0.00  0.00     0.104 A 
ATOM     13  C   UNL d   1      52.783  34.314  53.287  0.00  0.00     0.013 A 
ATOM     14  C   UNL d   1      52.755  35.120  53.457  0.00  0.00     0.001 A 
ATOM     15  C   UNL d   1      53.025  35.397  54.185  0.00  0.00     0.000 A 
ATOM     16  C   UNL d   1      53.324  34.868  54.744  0.00  0.00     0.001 A 
ATOM     17  C   UNL d   1      53.352  34.062  54.574  0.00  0.00     0.013 A 
ENDBRANCH   1  12
TORSDOF 2
ENDMDL
MODEL 2
REMARK VINA RESULT:      -8.6      1.742      2.630
REMARK  2 active torsions:
REMARK  status: ('A' for Active; 'I' for Inactive)
REMARK    1  A    between atoms: S_2  and  N_1 
REMARK    2  A    between atoms: C_10  and  S_2 
ROOT
ATOM      1  S   UNL d   1      52.589  33.811  53.549  0.00  0.00     0.273 S 
ATOM      2  O   UNL d   1      52.296  33.102  53.851  0.00  0.00    -0.200 OA
ATOM      3  O   UNL d   1      52.889  34.519  53.251  0.00  0.00    -0.200 OA
ENDROOT
BRANCH   1   4
ATOM      4  N   UNL d   1      53.292  33.704  53.967  0.00  0.00    -0.207 N 
ATOM      5  C   UNL d   1      53.802  33.136  53.655  0.00  0.00     0.148 A 
ATOM      6  N   UNL d   1      54.546  32.896  53.939  0.00  0.00    -0.198 NA
ATOM      7  C   UNL d   1      54.948  33.164  54.592  0.00  0.00     0.066 A 
ATOM      8  C   UNL d   1      53.930  33.584  54.318  0.00  0.00     0.169 A 
ATOM      9  C   UNL d   1      54.725  33.739  55.139  0.00  0.00     0.066 A 
ATOM     10  N   UNL d   1      54.032  34.190  55.159  0.00  0.00    -0.198 NA
ATOM     11  C   UNL d   1      53.398  34.172  54.637  0.00  0.00     0.148 A 
ENDBRANCH   1   4
BRANCH   1  12
ATOM     12  C   UNL d   1      51.889  33.921  53.129  0.00  0.00     0.104 A 
ATOM     13  C   UNL d   1      51.164  33.740  53.480  0.00  0.00     0.013 A 
ATOM     14  C   UNL d   1      50.464  33.850  53.060  0.00  0.00     0.001 A 
ATOM     15  C   UNL d   1      50.487  34.142  52.290  0.00  0.00     0.000 A 
ATOM     16  C   UNL d   1      51.210  34.324  51.938  0.00  0.00     0.001 A 
ATOM     17  C   UNL d   1      51.911  34.214  52.358  0.00  0.00     0.013 A 
ENDBRANCH   1  12
TORSDOF 2
ENDMDL
MODEL 3
REMARK VINA RESULT:      -8.6      1.067      3.490
REMARK  2 active torsions:
REMARK  status: ('A' for Active; 'I' for Inactive)
REMARK    1  A    between atoms: S_2  and  N_1 
REMARK    2  A    between atoms: C_10  and  S_2 
ROOT
ATOM      1  S   UNL d   1      53.182  32.756  53.692  0.00  0.00     0.273 S 
ATOM      2  O   UNL d   1      53.922  32.856  53.342  0.00  0.00    -0.200 OA
ATOM      3  O   UNL d   1      52.442  32.665  54.044  0.00  0.00    -0.200 OA
ENDROOT
BRANCH   1   4
ATOM      4  N   UNL d   1      53.162  33.557  53.889  0.00  0.00    -0.207 N 
ATOM      5  C   UNL d   1      53.480  33.743  54.628  0.00  0.00     0.148 A 
ATOM      6  N   UNL d   1      53.545  34.489  54.989  0.00  0.00    -0.198 NA
ATOM      7  C   UNL d   1      53.311  35.212  54.704  0.00  0.00     0.066 A 
ATOM      8  C   UNL d   1      53.160  34.265  54.097  0.00  0.00     0.169 A 
ATOM      9  C   UNL d   1      52.950  35.394  53.985  0.00  0.00     0.066 A 
ATOM     10  N   UNL d   1      52.736  34.881  53.372  0.00  0.00    -0.198 NA
ATOM     11  C   UNL d   1      52.832  34.066  53.333  0.00  0.00     0.148 A 
ENDBRANCH   1   4
BRANCH   1  12
ATOM     12  C   UNL d   1      53.198  31.956  53.497  0.00  0.00     0.104 A 
ATOM     13  C   UNL d   1      53.768  31.461  53.829  0.00  0.00     0.013 A 
ATOM     14  C   UNL d   1      53.784  30.660  53.634  0.00  0.00     0.001 A 
ATOM     15  C   UNL d   1      53.230  30.354  53.106  0.00  0.00     0.000 A 
ATOM     16  C   UNL d   1      52.659  30.848  52.773  0.00  0.00     0.001 A 
ATOM     17  C   UNL d   1      52.643  31.648  52.968  0.00  0.00     0.013 A 
ENDBRANCH   1  12
TORSDOF 2
ENDMDL
MODEL 4
REMARK VINA RESULT:      -8.5      1.865      2.760
REMARK  2 active torsions:
REMARK  status: ('A' for Active; 'I' for Inactive)
REMARK    1  A    between atoms: S_2  and  N_1 
REMARK    2  A    between atoms: C_10  and  S_2 
ROOT
ATOM      1  S   UNL d   1      52.800  33.669  53.688  0.00  0.00     0.273 S 
ATOM      2  O   UNL d   1      52.700  34.381  54.093  0.00  0.00    -0.200 OA
ATOM      3  O   UNL d   1      52.893  32.960  53.280  0.00  0.00    -0.200 OA
ENDROOT
BRANCH   1   4
ATOM      4  N   UNL d   1      52.084  33.787  53.296  0.00  0.00    -0.207 N 
ATOM      5  C   UNL d   1      52.130  34.258  52.619  0.00  0.00     0.148 A 
ATOM      6  N   UNL d   1      51.517  34.481  52.103  0.00  0.00    -0.198 NA
ATOM      7  C   UNL d   1      50.729  34.290  52.141  0.00  0.00     0.066 A 
ATOM      8  C   UNL d   1      51.462  33.912  52.921  0.00  0.00     0.169 A 
ATOM      9  C   UNL d   1      50.333  33.828  52.697  0.00  0.00     0.066 A 
ATOM     10  N   UNL d   1      50.642  33.442  53.359  0.00  0.00    -0.198 NA
ATOM     11  C   UNL d   1      51.420  33.425  53.622  0.00  0.00     0.148 A 
ENDBRANCH   1   4
BRANCH   1  12
ATOM     12  C   UNL d   1      53.516  33.549  54.079  0.00  0.00     0.104 A 
ATOM     13  C   UNL d   1      53.658  33.914  54.804  0.00  0.00     0.013 A 
ATOM     14  C   UNL d   1      54.373  33.793  55.194  0.00  0.00     0.001 A 
ATOM     15  C   UNL d   1      54.948  33.307  54.859  0.00  0.00     0.000 A 
ATOM     16  C   UNL d   1      54.808  32.940  54.133  0.00  0.00     0.001 A 
ATOM     17  C   UNL d   1      54.092  33.061  53.743  0.00  0.00     0.013 A 
ENDBRANCH   1  12
TORSDOF 2
ENDMDL
