MODEL 1
REMARK VINA RESULT:      61.4      0.000      0.000
REMARK  8 active torsions:
REMARK  status: ('A' for Active; 'I' for Inactive)
REMARK    1  A    between atoms: S_11  and  C_6 
REMARK    2  A    between atoms: O_23  and  C_10 
REMARK    3  A    between atoms: C_19  and  S_11 
REMARK    4  A    between atoms: C_12  and  C_19 
REMARK       I    between atoms: N_18  and  C_12 
REMARK    5  A    between atoms: O_25  and  C_13 
REMARK    6  A    between atoms: C_26  and  N_18 
REMARK    7  A    between atoms: C_20  and  C_27 
REMARK    8  A    between atoms: C_27  and  C_26 
ROOT
ATOM      1  C   UNL d   1     -48.296  27.091  34.221  0.00  0.00     0.286 C 
ATOM      2  O   UNL d   1     -47.475  27.044  34.143  0.00  0.00    -0.265 OA
ATOM      3  N   UNL d   1     -48.649  27.786  34.499  0.00  0.00    -0.206 NA
ENDROOT
BRANCH   1   4
ATOM      4  C   UNL d   1     -48.771  26.442  34.021  0.00  0.00     0.101 C 
BRANCH   4   5
ATOM      5  S   UNL d   1     -49.432  26.545  33.544  0.00  0.00    -0.043 SA
BRANCH   5   6
ATOM      6  C   UNL d   1     -50.005  25.949  33.494  0.00  0.00     0.198 A 
ATOM      7  N   UNL d   1     -49.776  25.146  33.464  0.00  0.00    -0.200 NA
ATOM      8  C   UNL d   1     -50.353  24.548  33.414  0.00  0.00     0.189 A 
ATOM      9  C   UNL d   1     -51.158  24.754  33.395  0.00  0.00     0.081 A 
ATOM     10  N   UNL d   1     -50.124  23.759  33.385  0.00  0.00    -0.127 N 
ATOM     11  C   UNL d   1     -51.387  25.551  33.425  0.00  0.00     0.187 A 
ATOM     12  C   UNL d   1     -51.841  24.290  33.348  0.00  0.00     0.029 A 
ATOM     13  N   UNL d   1     -50.808  26.145  33.475  0.00  0.00    -0.197 NA
ATOM     14  O   UNL d   1     -52.214  25.571  33.396  0.00  0.00    -0.289 OA
ATOM     15  C   UNL d   1     -52.502  24.795  33.348  0.00  0.00     0.102 A 
ATOM     16  C   UNL d   1     -53.287  24.570  33.309  0.00  0.00     0.027 C 
ATOM     17  C   UNL d   1     -51.867  23.460  33.307  0.00  0.00     0.002 C 
ENDBRANCH   5   6
ENDBRANCH   4   5
ENDBRANCH   1   4
BRANCH   3  18
ATOM     18  C   UNL d   1     -48.182  28.434  34.699  0.00  0.00     0.102 C 
BRANCH  18  19
ATOM     19  C   UNL d   1     -48.493  29.035  35.166  0.00  0.00     0.021 C 
BRANCH  19  20
ATOM     20  C   UNL d   1     -48.043  29.710  35.315  0.00  0.00     0.004 A 
ATOM     21  C   UNL d   1     -48.215  30.410  34.919  0.00  0.00     0.026 A 
ATOM     22  C   UNL d   1     -47.770  31.087  35.062  0.00  0.00     0.116 A 
ATOM     23  C   UNL d   1     -47.151  31.066  35.605  0.00  0.00     0.116 A 
ATOM     24  C   UNL d   1     -46.981  30.362  36.001  0.00  0.00     0.026 A 
ATOM     25  C   UNL d   1     -47.425  29.685  35.857  0.00  0.00     0.002 A 
BRANCH  22  26
ATOM     26  O   UNL d   1     -47.947  31.789  34.661  0.00  0.00    -0.326 OA
ATOM     27  C   UNL d   1     -47.905  31.814  33.840  0.00  0.00     0.181 C 
ENDBRANCH  22  26
BRANCH  23  28
ATOM     28  O   UNL d   1     -46.705  31.747  35.749  0.00  0.00    -0.326 OA
ATOM     29  C   UNL d   1     -46.334  31.840  36.485  0.00  0.00     0.181 C 
ENDBRANCH  23  28
ENDBRANCH  19  20
ENDBRANCH  18  19
ENDBRANCH   3  18
TORSDOF 8
ENDMDL
MODEL 2
REMARK VINA RESULT:      62.1      0.394      1.017
REMARK  8 active torsions:
REMARK  status: ('A' for Active; 'I' for Inactive)
REMARK    1  A    between atoms: S_11  and  C_6 
REMARK    2  A    between atoms: O_23  and  C_10 
REMARK    3  A    between atoms: C_19  and  S_11 
REMARK    4  A    between atoms: C_12  and  C_19 
REMARK       I    between atoms: N_18  and  C_12 
REMARK    5  A    between atoms: O_25  and  C_13 
REMARK    6  A    between atoms: C_26  and  N_18 
REMARK    7  A    between atoms: C_20  and  C_27 
REMARK    8  A    between atoms: C_27  and  C_26 
ROOT
ATOM      1  C   UNL d   1     -48.320  27.060  34.077  0.00  0.00     0.286 C 
ATOM      2  O   UNL d   1     -47.502  26.986  34.003  0.00  0.00    -0.265 OA
ATOM      3  N   UNL d   1     -48.653  27.766  34.353  0.00  0.00    -0.206 NA
ENDROOT
BRANCH   1   4
ATOM      4  C   UNL d   1     -48.816  26.426  33.876  0.00  0.00     0.101 C 
BRANCH   4   5
ATOM      5  S   UNL d   1     -49.460  26.546  33.381  0.00  0.00    -0.043 SA
BRANCH   5   6
ATOM      6  C   UNL d   1     -50.079  25.996  33.365  0.00  0.00     0.198 A 
ATOM      7  N   UNL d   1     -49.916  25.177  33.357  0.00  0.00    -0.200 NA
ATOM      8  C   UNL d   1     -50.539  24.626  33.342  0.00  0.00     0.189 A 
ATOM      9  C   UNL d   1     -51.325  24.894  33.335  0.00  0.00     0.081 A 
ATOM     10  N   UNL d   1     -50.374  23.821  33.333  0.00  0.00    -0.127 N 
ATOM     11  C   UNL d   1     -51.490  25.708  33.343  0.00  0.00     0.187 A 
ATOM     12  C   UNL d   1     -52.044  24.486  33.320  0.00  0.00     0.029 A 
ATOM     13  N   UNL d   1     -50.865  26.256  33.359  0.00  0.00    -0.197 NA
ATOM     14  O   UNL d   1     -52.313  25.794  33.334  0.00  0.00    -0.289 OA
ATOM     15  C   UNL d   1     -52.663  25.041  33.319  0.00  0.00     0.102 A 
ATOM     16  C   UNL d   1     -53.464  24.879  33.307  0.00  0.00     0.027 C 
ATOM     17  C   UNL d   1     -52.137  23.660  33.308  0.00  0.00     0.002 C 
ENDBRANCH   5   6
ENDBRANCH   4   5
ENDBRANCH   1   4
BRANCH   3  18
ATOM     18  C   UNL d   1     -48.167  28.399  34.555  0.00  0.00     0.102 C 
BRANCH  18  19
ATOM     19  C   UNL d   1     -48.401  28.927  35.140  0.00  0.00     0.021 C 
BRANCH  19  20
ATOM     20  C   UNL d   1     -48.155  29.713  35.103  0.00  0.00     0.004 A 
ATOM     21  C   UNL d   1     -47.538  29.970  35.582  0.00  0.00     0.026 A 
ATOM     22  C   UNL d   1     -47.288  30.753  35.550  0.00  0.00     0.116 A 
ATOM     23  C   UNL d   1     -47.655  31.283  35.037  0.00  0.00     0.116 A 
ATOM     24  C   UNL d   1     -48.273  31.022  34.558  0.00  0.00     0.026 A 
ATOM     25  C   UNL d   1     -48.524  30.240  34.589  0.00  0.00     0.002 A 
BRANCH  22  26
ATOM     26  O   UNL d   1     -46.666  31.007  36.035  0.00  0.00    -0.326 OA
ATOM     27  C   UNL d   1     -46.630  31.792  36.278  0.00  0.00     0.181 C 
ENDBRANCH  22  26
BRANCH  23  28
ATOM     28  O   UNL d   1     -47.402  32.069  35.006  0.00  0.00    -0.326 OA
ATOM     29  C   UNL d   1     -47.844  32.620  34.571  0.00  0.00     0.181 C 
ENDBRANCH  23  28
ENDBRANCH  19  20
ENDBRANCH  18  19
ENDBRANCH   3  18
TORSDOF 8
ENDMDL
MODEL 3
REMARK VINA RESULT:      63.7      1.209      1.694
REMARK  8 active torsions:
REMARK  status: ('A' for Active; 'I' for Inactive)
REMARK    1  A    between atoms: S_11  and  C_6 
REMARK    2  A    between atoms: O_23  and  C_10 
REMARK    3  A    between atoms: C_19  and  S_11 
REMARK    4  A    between atoms: C_12  and  C_19 
REMARK       I    between atoms: N_18  and  C_12 
REMARK    5  A    between atoms: O_25  and  C_13 
REMARK    6  A    between atoms: C_26  and  N_18 
REMARK    7  A    between atoms: C_20  and  C_27 
REMARK    8  A    between atoms: C_27  and  C_26 
ROOT
ATOM      1  C   UNL d   1     -50.250  27.594  33.706  0.00  0.00     0.286 C 
ATOM      2  O   UNL d   1     -50.107  28.321  33.343  0.00  0.00    -0.265 OA
ATOM      3  N   UNL d   1     -49.925  27.428  34.450  0.00  0.00    -0.206 NA
ENDROOT
BRANCH   1   4
ATOM      4  C   UNL d   1     -50.720  27.025  33.329  0.00  0.00     0.101 C 
BRANCH   4   5
ATOM      5  S   UNL d   1     -50.510  26.231  33.354  0.00  0.00    -0.043 SA
BRANCH   5   6
ATOM      6  C   UNL d   1     -51.096  25.646  33.346  0.00  0.00     0.198 A 
ATOM      7  N   UNL d   1     -50.885  24.838  33.339  0.00  0.00    -0.200 NA
ATOM      8  C   UNL d   1     -51.474  24.251  33.331  0.00  0.00     0.189 A 
ATOM      9  C   UNL d   1     -52.275  24.473  33.329  0.00  0.00     0.081 A 
ATOM     10  N   UNL d   1     -51.263  23.457  33.324  0.00  0.00    -0.127 N 
ATOM     11  C   UNL d   1     -52.487  25.276  33.335  0.00  0.00     0.187 A 
ATOM     12  C   UNL d   1     -52.969  24.023  33.321  0.00  0.00     0.029 A 
ATOM     13  N   UNL d   1     -51.895  25.859  33.344  0.00  0.00    -0.197 NA
ATOM     14  O   UNL d   1     -53.314  25.313  33.332  0.00  0.00    -0.289 OA
ATOM     15  C   UNL d   1     -53.619  24.542  33.323  0.00  0.00     0.102 A 
ATOM     16  C   UNL d   1     -54.410  24.333  33.317  0.00  0.00     0.027 C 
ATOM     17  C   UNL d   1     -53.013  23.193  33.313  0.00  0.00     0.002 C 
ENDBRANCH   5   6
ENDBRANCH   4   5
ENDBRANCH   1   4
BRANCH   3  18
ATOM     18  C   UNL d   1     -49.457  27.988  34.829  0.00  0.00     0.102 C 
BRANCH  18  19
ATOM     19  C   UNL d   1     -48.982  28.494  34.388  0.00  0.00     0.021 C 
BRANCH  19  20
ATOM     20  C   UNL d   1     -48.574  29.103  34.764  0.00  0.00     0.004 A 
ATOM     21  C   UNL d   1     -48.505  29.102  35.584  0.00  0.00     0.026 A 
ATOM     22  C   UNL d   1     -48.099  29.707  35.966  0.00  0.00     0.116 A 
ATOM     23  C   UNL d   1     -47.760  30.317  35.528  0.00  0.00     0.116 A 
ATOM     24  C   UNL d   1     -47.831  30.315  34.706  0.00  0.00     0.026 A 
ATOM     25  C   UNL d   1     -48.237  29.711  34.324  0.00  0.00     0.002 A 
BRANCH  22  26
ATOM     26  O   UNL d   1     -48.032  29.701  36.792  0.00  0.00    -0.326 OA
ATOM     27  C   UNL d   1     -48.415  29.120  37.230  0.00  0.00     0.181 C 
ENDBRANCH  22  26
BRANCH  23  28
ATOM     28  O   UNL d   1     -47.353  30.924  35.913  0.00  0.00    -0.326 OA
ATOM     29  C   UNL d   1     -47.074  31.568  35.472  0.00  0.00     0.181 C 
ENDBRANCH  23  28
ENDBRANCH  19  20
ENDBRANCH  18  19
ENDBRANCH   3  18
TORSDOF 8
ENDMDL
