MODEL 1
REMARK VINA RESULT:      -2.3      0.000      0.000
REMARK  0 active torsions:
REMARK  status: ('A' for Active; 'I' for Inactive)
ROOT
ATOM      1  C   UNL d   1      32.356  22.102 -20.749  0.00  0.00     0.221 A 
ATOM      2  N   UNL d   1      32.747  22.380 -20.078  0.00  0.00    -0.217 NA
ATOM      3  N   UNL d   1      31.922  22.620 -21.227  0.00  0.00    -0.216 NA
ATOM      4  S   UNL d   1      32.378  21.308 -20.970  0.00  0.00    -0.037 SA
ATOM      5  C   UNL d   1      32.708  23.179 -19.880  0.00  0.00     0.085 A 
ATOM      6  C   UNL d   1      31.886  23.424 -21.023  0.00  0.00     0.103 A 
ATOM      7  C   UNL d   1      32.277  23.702 -20.352  0.00  0.00     0.040 A 
ATOM      8  C   UNL d   1      33.106  23.437 -19.205  0.00  0.00     0.021 C 
ENDROOT
TORSDOF 0
ENDMDL
MODEL 2
REMARK VINA RESULT:      -2.3      0.523      1.418
REMARK  0 active torsions:
REMARK  status: ('A' for Active; 'I' for Inactive)
ROOT
ATOM      1  C   UNL d   1      32.511  21.759 -20.839  0.00  0.00     0.221 A 
ATOM      2  N   UNL d   1      32.088  22.353 -21.224  0.00  0.00    -0.217 NA
ATOM      3  N   UNL d   1      32.940  21.927 -20.151  0.00  0.00    -0.216 NA
ATOM      4  S   UNL d   1      32.528  20.984 -21.117  0.00  0.00    -0.037 SA
ATOM      5  C   UNL d   1      32.088  23.120 -20.924  0.00  0.00     0.085 A 
ATOM      6  C   UNL d   1      32.937  22.702 -19.853  0.00  0.00     0.103 A 
ATOM      7  C   UNL d   1      32.513  23.296 -20.238  0.00  0.00     0.040 A 
ATOM      8  C   UNL d   1      31.658  23.701 -21.323  0.00  0.00     0.021 C 
ENDROOT
TORSDOF 0
ENDMDL
MODEL 3
REMARK VINA RESULT:      -2.2      1.135      1.984
REMARK  0 active torsions:
REMARK  status: ('A' for Active; 'I' for Inactive)
ROOT
ATOM      1  C   UNL d   1      32.163  23.076 -20.953  0.00  0.00     0.221 A 
ATOM      2  N   UNL d   1      32.070  22.296 -21.204  0.00  0.00    -0.217 NA
ATOM      3  N   UNL d   1      32.672  23.258 -20.326  0.00  0.00    -0.216 NA
ATOM      4  S   UNL d   1      31.760  23.701 -21.310  0.00  0.00    -0.037 SA
ATOM      5  C   UNL d   1      32.485  21.691 -20.829  0.00  0.00     0.085 A 
ATOM      6  C   UNL d   1      33.088  22.645 -19.952  0.00  0.00     0.103 A 
ATOM      7  C   UNL d   1      32.994  21.864 -20.203  0.00  0.00     0.040 A 
ATOM      8  C   UNL d   1      32.378  20.916 -21.095  0.00  0.00     0.021 C 
ENDROOT
TORSDOF 0
ENDMDL
MODEL 4
REMARK VINA RESULT:      -2.0      7.792      8.040
REMARK  0 active torsions:
REMARK  status: ('A' for Active; 'I' for Inactive)
ROOT
ATOM      1  C   UNL d   1      29.171  16.905 -24.286  0.00  0.00     0.221 A 
ATOM      2  N   UNL d   1      29.819  16.463 -24.030  0.00  0.00    -0.217 NA
ATOM      3  N   UNL d   1      28.419  16.772 -23.967  0.00  0.00    -0.216 NA
ATOM      4  S   UNL d   1      29.241  17.490 -24.862  0.00  0.00    -0.037 SA
ATOM      5  C   UNL d   1      29.720  15.884 -23.452  0.00  0.00     0.085 A 
ATOM      6  C   UNL d   1      28.325  16.187 -23.385  0.00  0.00     0.103 A 
ATOM      7  C   UNL d   1      28.973  15.745 -23.129  0.00  0.00     0.040 A 
ATOM      8  C   UNL d   1      30.380  15.453 -23.210  0.00  0.00     0.021 C 
ENDROOT
TORSDOF 0
ENDMDL
MODEL 5
REMARK VINA RESULT:      -1.9      7.640      7.950
REMARK  0 active torsions:
REMARK  status: ('A' for Active; 'I' for Inactive)
ROOT
ATOM      1  C   UNL d   1      30.025  16.064 -23.665  0.00  0.00     0.221 A 
ATOM      2  N   UNL d   1      29.869  16.700 -24.168  0.00  0.00    -0.217 NA
ATOM      3  N   UNL d   1      29.412  15.707 -23.239  0.00  0.00    -0.216 NA
ATOM      4  S   UNL d   1      30.785  15.761 -23.565  0.00  0.00    -0.037 SA
ATOM      5  C   UNL d   1      29.100  16.983 -24.249  0.00  0.00     0.085 A 
ATOM      6  C   UNL d   1      28.639  15.996 -23.324  0.00  0.00     0.103 A 
ATOM      7  C   UNL d   1      28.483  16.631 -23.827  0.00  0.00     0.040 A 
ATOM      8  C   UNL d   1      28.966  17.619 -24.757  0.00  0.00     0.021 C 
ENDROOT
TORSDOF 0
ENDMDL
MODEL 6
REMARK VINA RESULT:      -1.8      7.551      7.671
REMARK  0 active torsions:
REMARK  status: ('A' for Active; 'I' for Inactive)
ROOT
ATOM      1  C   UNL d   1      28.975  16.509 -23.933  0.00  0.00     0.221 A 
ATOM      2  N   UNL d   1      29.777  16.331 -23.857  0.00  0.00    -0.217 NA
ATOM      3  N   UNL d   1      28.730  17.151 -24.395  0.00  0.00    -0.216 NA
ATOM      4  S   UNL d   1      28.391  16.064 -23.560  0.00  0.00    -0.037 SA
ATOM      5  C   UNL d   1      30.340  16.793 -24.241  0.00  0.00     0.085 A 
ATOM      6  C   UNL d   1      29.302  17.614 -24.780  0.00  0.00     0.103 A 
ATOM      7  C   UNL d   1      30.103  17.435 -24.703  0.00  0.00     0.040 A 
ATOM      8  C   UNL d   1      31.137  16.598 -24.153  0.00  0.00     0.021 C 
ENDROOT
TORSDOF 0
ENDMDL
MODEL 7
REMARK VINA RESULT:      -1.8      6.531      6.890
REMARK  0 active torsions:
REMARK  status: ('A' for Active; 'I' for Inactive)
ROOT
ATOM      1  C   UNL d   1      30.986  16.293 -23.690  0.00  0.00     0.221 A 
ATOM      2  N   UNL d   1      31.709  16.571 -23.406  0.00  0.00    -0.217 NA
ATOM      3  N   UNL d   1      30.558  16.729 -24.248  0.00  0.00    -0.216 NA
ATOM      4  S   UNL d   1      30.662  15.580 -23.434  0.00  0.00    -0.037 SA
ATOM      5  C   UNL d   1      32.011  17.288 -23.679  0.00  0.00     0.085 A 
ATOM      6  C   UNL d   1      30.866  17.451 -24.519  0.00  0.00     0.103 A 
ATOM      7  C   UNL d   1      31.589  17.729 -24.236  0.00  0.00     0.040 A 
ATOM      8  C   UNL d   1      32.735  17.549 -23.383  0.00  0.00     0.021 C 
ENDROOT
TORSDOF 0
ENDMDL
MODEL 8
REMARK VINA RESULT:      -1.8      6.440      7.057
REMARK  0 active torsions:
REMARK  status: ('A' for Active; 'I' for Inactive)
ROOT
ATOM      1  C   UNL d   1      31.914  17.317 -23.728  0.00  0.00     0.221 A 
ATOM      2  N   UNL d   1      31.659  16.588 -23.438  0.00  0.00    -0.217 NA
ATOM      3  N   UNL d   1      31.446  17.743 -24.261  0.00  0.00    -0.216 NA
ATOM      4  S   UNL d   1      32.634  17.650 -23.502  0.00  0.00    -0.037 SA
ATOM      5  C   UNL d   1      30.935  16.279 -23.679  0.00  0.00     0.085 A 
ATOM      6  C   UNL d   1      30.718  17.427 -24.502  0.00  0.00     0.103 A 
ATOM      7  C   UNL d   1      30.463  16.698 -24.212  0.00  0.00     0.040 A 
ATOM      8  C   UNL d   1      30.698  15.548 -23.378  0.00  0.00     0.021 C 
ENDROOT
TORSDOF 0
ENDMDL
MODEL 9
REMARK VINA RESULT:      -1.7      6.664      7.279
REMARK  0 active torsions:
REMARK  status: ('A' for Active; 'I' for Inactive)
ROOT
ATOM      1  C   UNL d   1      30.002  17.047 -24.427  0.00  0.00     0.221 A 
ATOM      2  N   UNL d   1      30.703  17.483 -24.419  0.00  0.00    -0.217 NA
ATOM      3  N   UNL d   1      29.959  16.313 -24.048  0.00  0.00    -0.216 NA
ATOM      4  S   UNL d   1      29.323  17.320 -24.807  0.00  0.00    -0.037 SA
ATOM      5  C   UNL d   1      31.367  17.187 -24.032  0.00  0.00     0.085 A 
ATOM      6  C   UNL d   1      30.631  16.019 -23.659  0.00  0.00     0.103 A 
ATOM      7  C   UNL d   1      31.332  16.454 -23.651  0.00  0.00     0.040 A 
ATOM      8  C   UNL d   1      32.059  17.637 -24.035  0.00  0.00     0.021 C 
ENDROOT
TORSDOF 0
ENDMDL
