MODEL 1
REMARK VINA RESULT:      -0.2      0.000      0.000
REMARK  1 active torsions:
REMARK  status: ('A' for Active; 'I' for Inactive)
REMARK    1  A    between atoms: C_2  and  C_1 
ROOT
ATOM      1  C   UNL d   1      46.603 -19.157  41.992  0.00  0.00     0.067 A 
ATOM      2  C   UNL d   1      46.599 -19.036  43.413  0.00  0.00     0.123 A 
ATOM      3  C   UNL d   1      46.597 -18.680  42.667  0.00  0.00     0.033 A 
ATOM      4  C   UNL d   1      46.607 -19.858  43.483  0.00  0.00     0.123 A 
ATOM      5  O   UNL d   1      46.593 -18.558  44.093  0.00  0.00    -0.301 OA
ATOM      6  O   UNL d   1      46.609 -20.208  44.234  0.00  0.00    -0.301 OA
ATOM      7  C   UNL d   1      46.612 -19.979  42.063  0.00  0.00     0.008 A 
ATOM      8  C   UNL d   1      46.614 -20.330  42.808  0.00  0.00     0.027 A 
ATOM      9  C   UNL d   1      46.595 -18.914  44.843  0.00  0.00     0.149 A 
ATOM     10  C   UNL d   1      46.603 -19.736  44.913  0.00  0.00     0.149 A 
ENDROOT
BRANCH   1  11
ATOM     11  C   UNL d   1      46.601 -18.801  41.247  0.00  0.00     0.211 C 
ATOM     12  O   UNL d   1      46.554 -17.986  41.130  0.00  0.00    -0.644 OA
ATOM     13  O   UNL d   1      46.647 -19.226  40.539  0.00  0.00    -0.644 OA
ENDBRANCH   1  11
TORSDOF 1
ENDMDL
MODEL 2
REMARK VINA RESULT:       0.7      7.597      7.847
REMARK  1 active torsions:
REMARK  status: ('A' for Active; 'I' for Inactive)
REMARK    1  A    between atoms: C_2  and  C_1 
ROOT
ATOM      1  C   UNL d   1      43.745 -15.470  36.796  0.00  0.00     0.067 A 
ATOM      2  C   UNL d   1      45.006 -14.818  36.938  0.00  0.00     0.123 A 
ATOM      3  C   UNL d   1      44.187 -14.818  37.048  0.00  0.00     0.033 A 
ATOM      4  C   UNL d   1      45.379 -15.461  36.580  0.00  0.00     0.123 A 
ATOM      5  O   UNL d   1      45.451 -14.164  37.190  0.00  0.00    -0.301 OA
ATOM      6  O   UNL d   1      46.200 -15.455  36.472  0.00  0.00    -0.301 OA
ATOM      7  C   UNL d   1      44.118 -16.113  36.439  0.00  0.00     0.008 A 
ATOM      8  C   UNL d   1      44.935 -16.109  36.330  0.00  0.00     0.027 A 
ATOM      9  C   UNL d   1      46.274 -14.162  37.080  0.00  0.00     0.149 A 
ATOM     10  C   UNL d   1      46.647 -14.805  36.723  0.00  0.00     0.149 A 
ENDROOT
BRANCH   1  11
ATOM     11  C   UNL d   1      42.926 -15.470  36.907  0.00  0.00     0.211 C 
ATOM     12  O   UNL d   1      42.560 -15.223  37.603  0.00  0.00    -0.644 OA
ATOM     13  O   UNL d   1      42.389 -15.718  36.330  0.00  0.00    -0.644 OA
ENDBRANCH   1  11
TORSDOF 1
ENDMDL
