MODEL 1
REMARK VINA RESULT:     130.4      0.000      0.000
REMARK  2 active torsions:
REMARK  status: ('A' for Active; 'I' for Inactive)
REMARK    1  A    between atoms: C_7  and  N_1 
REMARK    2  A    between atoms: C_9  and  C_2 
ROOT
ATOM      1  N   UNL d   1     -58.264 -98.800 -42.125  0.00  0.00    -0.273 N 
ATOM      2  C   UNL d   1     -58.902 -98.805 -42.656  0.00  0.00     0.174 A 
ATOM      3  N   UNL d   1     -59.594 -98.799 -42.215  0.00  0.00    -0.204 NA
ATOM      4  C   UNL d   1     -58.571 -98.791 -41.364  0.00  0.00     0.185 A 
ATOM      5  C   UNL d   1     -59.392 -98.790 -41.417  0.00  0.00     0.199 A 
ATOM      6  N   UNL d   1     -58.207 -98.783 -40.620  0.00  0.00    -0.224 NA
ATOM      7  N   UNL d   1     -59.851 -98.782 -40.733  0.00  0.00    -0.223 NA
ATOM      8  C   UNL d   1     -58.665 -98.775 -39.942  0.00  0.00     0.101 A 
ATOM      9  C   UNL d   1     -59.484 -98.774 -39.991  0.00  0.00     0.101 A 
ATOM     10  C   UNL d   1     -58.302 -98.767 -39.201  0.00  0.00     0.021 A 
ATOM     11  C   UNL d   1     -59.946 -98.766 -39.311  0.00  0.00     0.021 A 
ATOM     12  C   UNL d   1     -59.587 -98.758 -38.567  0.00  0.00     0.002 A 
ATOM     13  C   UNL d   1     -58.757 -98.759 -38.515  0.00  0.00     0.002 A 
ENDROOT
BRANCH   1  14
ATOM     14  C   UNL d   1     -57.475 -98.804 -42.367  0.00  0.00     0.069 A 
ATOM     15  C   UNL d   1     -57.295 -98.784 -43.174  0.00  0.00     0.044 A 
ATOM     16  C   UNL d   1     -56.509 -98.788 -43.416  0.00  0.00     0.124 A 
ATOM     17  O   UNL d   1     -56.332 -98.768 -44.215  0.00  0.00    -0.301 OA
ATOM     18  C   UNL d   1     -55.904 -98.812 -42.850  0.00  0.00     0.123 A 
ATOM     19  C   UNL d   1     -55.535 -98.772 -44.465  0.00  0.00     0.149 A 
ATOM     20  C   UNL d   1     -54.922 -98.796 -43.900  0.00  0.00     0.149 A 
ATOM     21  O   UNL d   1     -55.106 -98.816 -43.093  0.00  0.00    -0.301 OA
ATOM     22  C   UNL d   1     -56.081 -98.832 -42.048  0.00  0.00     0.028 A 
ATOM     23  C   UNL d   1     -56.867 -98.828 -41.806  0.00  0.00     0.020 A 
ENDBRANCH   1  14
BRANCH   2  24
ATOM     24  C   UNL d   1     -58.845 -98.815 -43.477  0.00  0.00     0.135 A 
ATOM     25  O   UNL d   1     -58.148 -98.773 -43.917  0.00  0.00    -0.302 OA
ATOM     26  C   UNL d   1     -58.354 -98.800 -44.721  0.00  0.00     0.123 A 
ATOM     27  C   UNL d   1     -59.180 -98.859 -44.769  0.00  0.00     0.029 A 
ATOM     28  C   UNL d   1     -59.482 -98.868 -44.001  0.00  0.00     0.030 A 
ENDBRANCH   2  24
TORSDOF 2
ENDMDL
