MODEL 1
REMARK VINA RESULT:      34.6      0.000      0.000
REMARK  3 active torsions:
REMARK  status: ('A' for Active; 'I' for Inactive)
REMARK    1  A    between atoms: C_2  and  N_1 
REMARK    2  A    between atoms: C_4  and  N_1 
REMARK    3  A    between atoms: C_5  and  C_2 
ROOT
ATOM      1  N   UNL d   1     -47.315  31.952  34.977  0.00  0.00    -0.184 N 
ATOM      2  O   UNL d   1     -47.313  32.158  35.773  0.00  0.00    -0.080 OA
ENDROOT
BRANCH   1   3
ATOM      3  C   UNL d   1     -47.060  31.210  34.744  0.00  0.00     0.108 C 
BRANCH   3   4
ATOM      4  C   UNL d   1     -47.316  30.536  35.150  0.00  0.00     0.020 A 
ATOM      5  C   UNL d   1     -47.786  29.976  34.756  0.00  0.00     0.004 A 
ATOM      6  C   UNL d   1     -48.041  29.304  35.162  0.00  0.00     0.030 A 
ATOM      7  C   UNL d   1     -47.834  29.189  35.944  0.00  0.00     0.140 A 
ATOM      8  C   UNL d   1     -47.369  29.749  36.323  0.00  0.00     0.030 A 
ATOM      9  F   UNL d   1     -48.088  28.520  36.348  0.00  0.00    -0.204 F 
ATOM     10  C   UNL d   1     -47.108  30.425  35.928  0.00  0.00     0.004 A 
ENDBRANCH   3   4
ENDBRANCH   1   3
BRANCH   1  11
ATOM     11  C   UNL d   1     -47.577  32.503  34.411  0.00  0.00     0.090 A 
ATOM     12  C   UNL d   1     -47.057  32.801  33.860  0.00  0.00     0.020 A 
ATOM     13  C   UNL d   1     -47.322  33.343  33.306  0.00  0.00     0.002 A 
ATOM     14  C   UNL d   1     -48.114  33.585  33.307  0.00  0.00     0.000 A 
ATOM     15  C   UNL d   1     -48.634  33.276  33.873  0.00  0.00     0.002 A 
ATOM     16  C   UNL d   1     -48.371  32.737  34.424  0.00  0.00     0.020 A 
ENDBRANCH   1  11
TORSDOF 3
ENDMDL
