MODEL 1
REMARK VINA RESULT:      28.5      0.000      0.000
REMARK  8 active torsions:
REMARK  status: ('A' for Active; 'I' for Inactive)
REMARK    1  A    between atoms: C_4  and  C_1 
REMARK    2  A    between atoms: C_10  and  C_2 
REMARK    3  A    between atoms: C_15  and  C_9 
REMARK    4  A    between atoms: O_21  and  C_10 
REMARK    5  A    between atoms: O_22  and  C_15 
REMARK    6  A    between atoms: C_24  and  C_17 
REMARK    7  A    between atoms: C_25  and  O_21 
REMARK    8  A    between atoms: C_26  and  O_22 
ROOT
ATOM      1  C   UNL d   1      46.332 -18.113  43.316  0.00  0.00     0.090 A 
ATOM      2  C   UNL d   1      46.379 -18.902  43.549  0.00  0.00     0.168 A 
ATOM      3  C   UNL d   1      46.357 -17.919  42.515  0.00  0.00     0.201 A 
ATOM      4  C   UNL d   1      46.429 -18.510  41.952  0.00  0.00     0.062 A 
ATOM      5  O   UNL d   1      46.451 -19.496  42.981  0.00  0.00    -0.301 OA
ATOM      6  C   UNL d   1      46.476 -19.299  42.185  0.00  0.00     0.106 A 
ATOM      7  C   UNL d   1      46.452 -18.308  41.179  0.00  0.00     0.008 A 
ATOM      8  C   UNL d   1      46.546 -19.885  41.645  0.00  0.00     0.067 A 
ATOM      9  C   UNL d   1      46.571 -19.690  40.843  0.00  0.00     0.198 A 
ATOM     10  C   UNL d   1      46.524 -18.901  40.610  0.00  0.00     0.039 A 
ATOM     11  O   UNL d   1      46.310 -17.130  42.281  0.00  0.00    -0.286 OA
ATOM     12  O   UNL d   1      46.646 -20.314  40.255  0.00  0.00    -0.286 OA
ENDROOT
BRANCH   1  13
ATOM     13  C   UNL d   1      46.262 -17.527  43.858  0.00  0.00     0.105 A 
ATOM     14  O   UNL d   1      45.826 -16.868  43.725  0.00  0.00    -0.302 OA
ATOM     15  C   UNL d   1      45.873 -16.375  44.401  0.00  0.00     0.163 A 
ATOM     16  C   UNL d   1      46.357 -16.762  44.955  0.00  0.00     0.032 A 
ATOM     17  C   UNL d   1      46.601 -17.487  44.611  0.00  0.00     0.027 A 
BRANCH  15  18
ATOM     18  C   UNL d   1      45.495 -15.624  44.496  0.00  0.00     0.323 C 
ATOM     19  O   UNL d   1      44.765 -15.565  44.856  0.00  0.00    -0.257 OA
BRANCH  18  20
ATOM     20  O   UNL d   1      45.870 -14.928  44.218  0.00  0.00    -0.270 OA
BRANCH  20  21
ATOM     21  C   UNL d   1      45.579 -14.188  44.418  0.00  0.00     0.126 C 
ATOM     22  C   UNL d   1      45.635 -13.559  43.907  0.00  0.00     0.029 C 
ENDBRANCH  20  21
ENDBRANCH  18  20
ENDBRANCH  15  18
ENDBRANCH   1  13
BRANCH   2  23
ATOM     23  C   UNL d   1      46.356 -19.120  44.352  0.00  0.00     0.323 C 
ATOM     24  O   UNL d   1      46.303 -18.523  44.926  0.00  0.00    -0.257 OA
BRANCH  23  25
ATOM     25  O   UNL d   1      46.383 -19.909  44.585  0.00  0.00    -0.270 OA
BRANCH  25  26
ATOM     26  C   UNL d   1      45.726 -20.253  44.954  0.00  0.00     0.126 C 
ATOM     27  C   UNL d   1      45.017 -20.330  44.541  0.00  0.00     0.029 C 
ENDBRANCH  25  26
ENDBRANCH  23  25
ENDBRANCH   2  23
BRANCH  10  28
ATOM     28  C   UNL d   1      46.551 -18.715  39.782  0.00  0.00     0.003 C 
ATOM     29  C   UNL d   1      46.168 -18.049  39.482  0.00  0.00     0.000 C 
ENDBRANCH  10  28
TORSDOF 8
ENDMDL
