MODEL 1
REMARK VINA RESULT:      15.2      0.000      0.000
REMARK  3 active torsions:
REMARK  status: ('A' for Active; 'I' for Inactive)
REMARK    1  A    between atoms: S_10  and  C_6 
REMARK    2  A    between atoms: C_14  and  S_10 
REMARK    3  A    between atoms: C_15  and  C_14 
ROOT
ATOM      1  C   UNL d   1      44.040 -15.460  36.636  0.00  0.00     0.141 A 
ATOM      2  O   UNL d   1      44.200 -14.668  36.803  0.00  0.00    -0.303 OA
ATOM      3  C   UNL d   1      44.756 -15.871  36.640  0.00  0.00     0.110 A 
ATOM      4  C   UNL d   1      45.358 -15.332  36.810  0.00  0.00     0.043 A 
ATOM      5  C   UNL d   1      45.014 -14.589  36.911  0.00  0.00     0.102 A 
ATOM      6  C   UNL d   1      43.336 -15.861  36.481  0.00  0.00     0.137 A 
ATOM      7  N   UNL d   1      43.347 -16.671  36.330  0.00  0.00    -0.215 NA
ATOM      8  N   UNL d   1      44.767 -16.681  36.489  0.00  0.00    -0.222 NA
ATOM      9  C   UNL d   1      44.062 -17.082  36.334  0.00  0.00     0.200 A 
ATOM     10  C   UNL d   1      46.174 -15.422  36.886  0.00  0.00     0.004 A 
ATOM     11  C   UNL d   1      45.486 -13.936  37.087  0.00  0.00     0.025 A 
ATOM     12  C   UNL d   1      46.647 -14.769  37.062  0.00  0.00     0.000 A 
ATOM     13  C   UNL d   1      46.303 -14.027  37.162  0.00  0.00     0.002 A 
ENDROOT
BRANCH   6  14
ATOM     14  S   UNL d   1      42.620 -15.451  36.477  0.00  0.00    -0.062 SA
BRANCH  14  15
ATOM     15  C   UNL d   1      41.914 -15.853  36.333  0.00  0.00     0.082 C 
BRANCH  15  16
ATOM     16  C   UNL d   1      41.196 -15.447  36.357  0.00  0.00     0.241 C 
ATOM     17  O   UNL d   1      40.487 -15.866  36.360  0.00  0.00    -0.283 OA
ENDBRANCH  15  16
ENDBRANCH  14  15
ENDBRANCH   6  14
TORSDOF 3
ENDMDL
MODEL 2
REMARK VINA RESULT:      15.5      6.885      7.408
REMARK  3 active torsions:
REMARK  status: ('A' for Active; 'I' for Inactive)
REMARK    1  A    between atoms: S_10  and  C_6 
REMARK    2  A    between atoms: C_14  and  S_10 
REMARK    3  A    between atoms: C_15  and  C_14 
ROOT
ATOM      1  C   UNL d   1      46.631 -18.901  42.225  0.00  0.00     0.141 A 
ATOM      2  O   UNL d   1      46.629 -18.296  42.787  0.00  0.00    -0.303 OA
ATOM      3  C   UNL d   1      46.629 -19.622  42.626  0.00  0.00     0.110 A 
ATOM      4  C   UNL d   1      46.626 -19.464  43.436  0.00  0.00     0.043 A 
ATOM      5  C   UNL d   1      46.627 -18.644  43.535  0.00  0.00     0.102 A 
ATOM      6  C   UNL d   1      46.633 -18.887  41.400  0.00  0.00     0.137 A 
ATOM      7  N   UNL d   1      46.634 -19.595  40.976  0.00  0.00    -0.215 NA
ATOM      8  N   UNL d   1      46.629 -20.329  42.202  0.00  0.00    -0.222 NA
ATOM      9  C   UNL d   1      46.632 -20.316  41.377  0.00  0.00     0.200 A 
ATOM     10  C   UNL d   1      46.623 -19.959  44.095  0.00  0.00     0.004 A 
ATOM     11  C   UNL d   1      46.624 -18.321  44.294  0.00  0.00     0.025 A 
ATOM     12  C   UNL d   1      46.621 -19.635  44.854  0.00  0.00     0.000 A 
ATOM     13  C   UNL d   1      46.622 -18.817  44.954  0.00  0.00     0.002 A 
ENDROOT
BRANCH   6  14
ATOM     14  S   UNL d   1      46.636 -18.167  40.999  0.00  0.00    -0.062 SA
BRANCH  14  15
ATOM     15  C   UNL d   1      46.382 -18.130  40.215  0.00  0.00     0.082 C 
BRANCH  15  16
ATOM     16  C   UNL d   1      45.844 -17.549  39.982  0.00  0.00     0.241 C 
ATOM     17  O   UNL d   1      45.250 -17.731  39.440  0.00  0.00    -0.283 OA
ENDBRANCH  15  16
ENDBRANCH  14  15
ENDBRANCH   6  14
TORSDOF 3
ENDMDL
MODEL 3
REMARK VINA RESULT:      15.5      8.481      8.692
REMARK  3 active torsions:
REMARK  status: ('A' for Active; 'I' for Inactive)
REMARK    1  A    between atoms: S_10  and  C_6 
REMARK    2  A    between atoms: C_14  and  S_10 
REMARK    3  A    between atoms: C_15  and  C_14 
ROOT
ATOM      1  C   UNL d   1      45.544 -14.869  44.876  0.00  0.00     0.141 A 
ATOM      2  O   UNL d   1      46.274 -14.487  44.838  0.00  0.00    -0.303 OA
ATOM      3  C   UNL d   1      44.954 -14.293  44.865  0.00  0.00     0.110 A 
ATOM      4  C   UNL d   1      45.319 -13.555  44.821  0.00  0.00     0.043 A 
ATOM      5  C   UNL d   1      46.136 -13.675  44.804  0.00  0.00     0.102 A 
ATOM      6  C   UNL d   1      45.340 -15.668  44.919  0.00  0.00     0.137 A 
ATOM      7  N   UNL d   1      44.546 -15.889  44.951  0.00  0.00    -0.215 NA
ATOM      8  N   UNL d   1      44.160 -14.515  44.897  0.00  0.00    -0.222 NA
ATOM      9  C   UNL d   1      43.956 -15.314  44.940  0.00  0.00     0.200 A 
ATOM     10  C   UNL d   1      45.015 -12.788  44.793  0.00  0.00     0.004 A 
ATOM     11  C   UNL d   1      46.647 -13.029  44.760  0.00  0.00     0.025 A 
ATOM     12  C   UNL d   1      45.526 -12.142  44.749  0.00  0.00     0.000 A 
ATOM     13  C   UNL d   1      46.341 -12.263  44.732  0.00  0.00     0.002 A 
ENDROOT
BRANCH   6  14
ATOM     14  S   UNL d   1      45.930 -16.244  44.930  0.00  0.00    -0.062 SA
BRANCH  14  15
ATOM     15  C   UNL d   1      45.737 -17.035  44.797  0.00  0.00     0.082 C 
BRANCH  15  16
ATOM     16  C   UNL d   1      46.313 -17.620  44.882  0.00  0.00     0.241 C 
ATOM     17  O   UNL d   1      46.256 -18.319  44.449  0.00  0.00    -0.283 OA
ENDBRANCH  15  16
ENDBRANCH  14  15
ENDBRANCH   6  14
TORSDOF 3
ENDMDL
MODEL 4
REMARK VINA RESULT:      18.2      1.204      3.493
REMARK  3 active torsions:
REMARK  status: ('A' for Active; 'I' for Inactive)
REMARK    1  A    between atoms: S_10  and  C_6 
REMARK    2  A    between atoms: C_14  and  S_10 
REMARK    3  A    between atoms: C_15  and  C_14 
ROOT
ATOM      1  C   UNL d   1      44.070 -15.455  36.688  0.00  0.00     0.141 A 
ATOM      2  O   UNL d   1      43.571 -14.808  36.810  0.00  0.00    -0.303 OA
ATOM      3  C   UNL d   1      43.602 -16.103  36.488  0.00  0.00     0.110 A 
ATOM      4  C   UNL d   1      42.813 -15.859  36.487  0.00  0.00     0.043 A 
ATOM      5  C   UNL d   1      42.795 -15.058  36.686  0.00  0.00     0.102 A 
ATOM      6  C   UNL d   1      44.890 -15.536  36.733  0.00  0.00     0.137 A 
ATOM      7  N   UNL d   1      45.241 -16.266  36.578  0.00  0.00    -0.215 NA
ATOM      8  N   UNL d   1      43.953 -16.833  36.333  0.00  0.00    -0.222 NA
ATOM      9  C   UNL d   1      44.773 -16.914  36.378  0.00  0.00     0.200 A 
ATOM     10  C   UNL d   1      42.110 -16.261  36.330  0.00  0.00     0.004 A 
ATOM     11  C   UNL d   1      42.073 -14.660  36.728  0.00  0.00     0.025 A 
ATOM     12  C   UNL d   1      41.389 -15.863  36.372  0.00  0.00     0.000 A 
ATOM     13  C   UNL d   1      41.371 -15.063  36.571  0.00  0.00     0.002 A 
ENDROOT
BRANCH   6  14
ATOM     14  S   UNL d   1      45.358 -14.887  36.933  0.00  0.00    -0.062 SA
BRANCH  14  15
ATOM     15  C   UNL d   1      46.167 -14.986  37.062  0.00  0.00     0.082 C 
BRANCH  15  16
ATOM     16  C   UNL d   1      46.645 -14.328  37.207  0.00  0.00     0.241 C 
ATOM     17  O   UNL d   1      46.560 -13.649  36.748  0.00  0.00    -0.283 OA
ENDBRANCH  15  16
ENDBRANCH  14  15
ENDBRANCH   6  14
TORSDOF 3
ENDMDL
