MODEL 1
REMARK VINA RESULT:      -4.6      0.000      0.000
REMARK  0 active torsions:
REMARK  status: ('A' for Active; 'I' for Inactive)
ROOT
ATOM      1  N   UNL d   1      56.196  -0.132  32.693  0.00  0.00    -0.187 N 
ATOM      2  C   UNL d   1      56.240  -0.939  32.526  0.00  0.00     0.200 A 
ATOM      3  N   UNL d   1      56.660  -1.209  31.869  0.00  0.00    -0.181 NA
ATOM      4  N   UNL d   1      56.581   0.415  32.190  0.00  0.00    -0.157 NA
ATOM      5  C   UNL d   1      55.743  -0.037  33.376  0.00  0.00     0.194 A 
ATOM      6  C   UNL d   1      57.041  -0.672  31.372  0.00  0.00     0.300 A 
ATOM      7  C   UNL d   1      57.001   0.145  31.534  0.00  0.00     0.159 A 
ATOM      8  S   UNL d   1      55.814  -1.341  33.107  0.00  0.00    -0.045 SA
ATOM      9  C   UNL d   1      55.505  -0.778  33.636  0.00  0.00     0.079 A 
ATOM     10  O   UNL d   1      57.461  -0.943  30.716  0.00  0.00    -0.263 OA
ATOM     11  N   UNL d   1      55.561   0.682  33.735  0.00  0.00    -0.126 N 
ATOM     12  C   UNL d   1      57.382   0.682  31.036  0.00  0.00     0.028 C 
ENDROOT
TORSDOF 0
ENDMDL
MODEL 2
REMARK VINA RESULT:      -4.4      1.538      2.801
REMARK  0 active torsions:
REMARK  status: ('A' for Active; 'I' for Inactive)
ROOT
ATOM      1  N   UNL d   1      57.032  -0.570  31.510  0.00  0.00    -0.187 N 
ATOM      2  C   UNL d   1      56.948   0.216  31.745  0.00  0.00     0.200 A 
ATOM      3  N   UNL d   1      56.475   0.413  32.392  0.00  0.00    -0.181 NA
ATOM      4  N   UNL d   1      56.634  -1.173  31.934  0.00  0.00    -0.157 NA
ATOM      5  C   UNL d   1      57.534  -0.589  30.854  0.00  0.00     0.194 A 
ATOM      6  C   UNL d   1      56.082  -0.178  32.811  0.00  0.00     0.300 A 
ATOM      7  C   UNL d   1      56.162  -0.976  32.581  0.00  0.00     0.159 A 
ATOM      8  S   UNL d   1      57.397   0.682  31.232  0.00  0.00    -0.045 SA
ATOM      9  C   UNL d   1      57.761   0.179  30.679  0.00  0.00     0.079 A 
ATOM     10  O   UNL d   1      55.609   0.018  33.458  0.00  0.00    -0.263 OA
ATOM     11  N   UNL d   1      57.765  -1.267  30.447  0.00  0.00    -0.126 N 
ATOM     12  C   UNL d   1      55.768  -1.567  33.000  0.00  0.00     0.028 C 
ENDROOT
TORSDOF 0
ENDMDL
MODEL 3
REMARK VINA RESULT:      -3.5      1.995      3.261
REMARK  0 active torsions:
REMARK  status: ('A' for Active; 'I' for Inactive)
ROOT
ATOM      1  N   UNL d   1      57.775  -0.552  30.617  0.00  0.00    -0.187 N 
ATOM      2  C   UNL d   1      57.842   0.267  30.683  0.00  0.00     0.200 A 
ATOM      3  N   UNL d   1      57.423   0.677  31.264  0.00  0.00    -0.181 NA
ATOM      4  N   UNL d   1      57.276  -0.970  31.144  0.00  0.00    -0.157 NA
ATOM      5  C   UNL d   1      58.256  -0.798  29.992  0.00  0.00     0.194 A 
ATOM      6  C   UNL d   1      56.931   0.268  31.784  0.00  0.00     0.300 A 
ATOM      7  C   UNL d   1      56.857  -0.560  31.724  0.00  0.00     0.159 A 
ATOM      8  S   UNL d   1      58.365   0.526  30.099  0.00  0.00    -0.045 SA
ATOM      9  C   UNL d   1      58.621  -0.139  29.669  0.00  0.00     0.079 A 
ATOM     10  O   UNL d   1      56.511   0.678  32.364  0.00  0.00    -0.263 OA
ATOM     11  N   UNL d   1      58.350  -1.576  29.737  0.00  0.00    -0.126 N 
ATOM     12  C   UNL d   1      56.365  -0.969  32.245  0.00  0.00     0.028 C 
ENDROOT
TORSDOF 0
ENDMDL
MODEL 4
REMARK VINA RESULT:      -3.5      1.406      1.947
REMARK  0 active torsions:
REMARK  status: ('A' for Active; 'I' for Inactive)
ROOT
ATOM      1  N   UNL d   1      56.945  -0.569  31.572  0.00  0.00    -0.187 N 
ATOM      2  C   UNL d   1      57.072   0.231  31.419  0.00  0.00     0.200 A 
ATOM      3  N   UNL d   1      57.534   0.468  30.778  0.00  0.00    -0.181 NA
ATOM      4  N   UNL d   1      57.290  -1.145  31.071  0.00  0.00    -0.157 NA
ATOM      5  C   UNL d   1      56.465  -0.629  32.242  0.00  0.00     0.194 A 
ATOM      6  C   UNL d   1      57.875  -0.097  30.284  0.00  0.00     0.300 A 
ATOM      7  C   UNL d   1      57.752  -0.908  30.431  0.00  0.00     0.159 A 
ATOM      8  S   UNL d   1      56.670   0.665  31.995  0.00  0.00    -0.045 SA
ATOM      9  C   UNL d   1      56.293   0.128  32.507  0.00  0.00     0.079 A 
ATOM     10  O   UNL d   1      58.338   0.140  29.643  0.00  0.00    -0.263 OA
ATOM     11  N   UNL d   1      56.205  -1.332  32.584  0.00  0.00    -0.126 N 
ATOM     12  C   UNL d   1      58.093  -1.473  29.936  0.00  0.00     0.028 C 
ENDROOT
TORSDOF 0
ENDMDL
MODEL 5
REMARK VINA RESULT:      -3.5      9.061      9.588
REMARK  0 active torsions:
REMARK  status: ('A' for Active; 'I' for Inactive)
ROOT
ATOM      1  N   UNL d   1      59.970  -8.712  34.646  0.00  0.00    -0.187 N 
ATOM      2  C   UNL d   1      60.779  -8.552  34.660  0.00  0.00     0.200 A 
ATOM      3  N   UNL d   1      61.094  -8.033  35.220  0.00  0.00    -0.181 NA
ATOM      4  N   UNL d   1      59.466  -8.345  35.205  0.00  0.00    -0.157 NA
ATOM      5  C   UNL d   1      59.826  -9.245  34.032  0.00  0.00     0.194 A 
ATOM      6  C   UNL d   1      60.601  -7.670  35.771  0.00  0.00     0.300 A 
ATOM      7  C   UNL d   1      59.782  -7.827  35.763  0.00  0.00     0.159 A 
ATOM      8  S   UNL d   1      61.133  -8.986  34.054  0.00  0.00    -0.045 SA
ATOM      9  C   UNL d   1      60.538  -9.417  33.664  0.00  0.00     0.079 A 
ATOM     10  O   UNL d   1      60.916  -7.152  36.330  0.00  0.00    -0.263 OA
ATOM     11  N   UNL d   1      59.089  -9.550  33.825  0.00  0.00    -0.126 N 
ATOM     12  C   UNL d   1      59.288  -7.463  36.315  0.00  0.00     0.028 C 
ENDROOT
TORSDOF 0
ENDMDL
MODEL 6
REMARK VINA RESULT:      -3.3      2.031      2.950
REMARK  0 active torsions:
REMARK  status: ('A' for Active; 'I' for Inactive)
ROOT
ATOM      1  N   UNL d   1      56.676   0.669  33.429  0.00  0.00    -0.187 N 
ATOM      2  C   UNL d   1      56.118   0.663  32.821  0.00  0.00     0.200 A 
ATOM      3  N   UNL d   1      55.310   0.662  32.993  0.00  0.00    -0.181 NA
ATOM      4  N   UNL d   1      56.418   0.676  34.226  0.00  0.00    -0.157 NA
ATOM      5  C   UNL d   1      57.427   0.668  33.086  0.00  0.00     0.194 A 
ATOM      6  C   UNL d   1      55.055   0.669  33.776  0.00  0.00     0.300 A 
ATOM      7  C   UNL d   1      55.612   0.675  34.397  0.00  0.00     0.159 A 
ATOM      8  S   UNL d   1      56.526   0.657  32.104  0.00  0.00    -0.045 SA
ATOM      9  C   UNL d   1      57.341   0.660  32.271  0.00  0.00     0.079 A 
ATOM     10  O   UNL d   1      54.247   0.668  33.948  0.00  0.00    -0.263 OA
ATOM     11  N   UNL d   1      58.141   0.673  33.497  0.00  0.00    -0.126 N 
ATOM     12  C   UNL d   1      55.355   0.682  35.181  0.00  0.00     0.028 C 
ENDROOT
TORSDOF 0
ENDMDL
MODEL 7
REMARK VINA RESULT:      -3.2      9.399      9.809
REMARK  0 active torsions:
REMARK  status: ('A' for Active; 'I' for Inactive)
ROOT
ATOM      1  N   UNL d   1      59.816  -9.167  33.836  0.00  0.00    -0.187 N 
ATOM      2  C   UNL d   1      60.628  -9.057  33.744  0.00  0.00     0.200 A 
ATOM      3  N   UNL d   1      61.065  -8.654  34.316  0.00  0.00    -0.181 NA
ATOM      4  N   UNL d   1      59.433  -8.866  34.518  0.00  0.00    -0.157 NA
ATOM      5  C   UNL d   1      59.538  -9.585  33.181  0.00  0.00     0.194 A 
ATOM      6  C   UNL d   1      60.691  -8.356  34.988  0.00  0.00     0.300 A 
ATOM      7  C   UNL d   1      59.870  -8.463  35.089  0.00  0.00     0.159 A 
ATOM      8  S   UNL d   1      60.851  -9.408  33.031  0.00  0.00    -0.045 SA
ATOM      9  C   UNL d   1      60.171  -9.736  32.681  0.00  0.00     0.079 A 
ATOM     10  O   UNL d   1      61.128  -7.953  35.560  0.00  0.00    -0.263 OA
ATOM     11  N   UNL d   1      58.756  -9.811  33.052  0.00  0.00    -0.126 N 
ATOM     12  C   UNL d   1      59.496  -8.165  35.761  0.00  0.00     0.028 C 
ENDROOT
TORSDOF 0
ENDMDL
MODEL 8
REMARK VINA RESULT:      -2.5      4.540      5.197
REMARK  0 active torsions:
REMARK  status: ('A' for Active; 'I' for Inactive)
ROOT
ATOM      1  N   UNL d   1      59.932  -1.487  29.123  0.00  0.00    -0.187 N 
ATOM      2  C   UNL d   1      59.108  -1.444  29.133  0.00  0.00     0.200 A 
ATOM      3  N   UNL d   1      58.651  -2.129  29.088  0.00  0.00    -0.181 NA
ATOM      4  N   UNL d   1      60.306  -2.235  29.064  0.00  0.00    -0.157 NA
ATOM      5  C   UNL d   1      60.229  -0.719  29.176  0.00  0.00     0.194 A 
ATOM      6  C   UNL d   1      59.016  -2.866  29.030  0.00  0.00     0.300 A 
ATOM      7  C   UNL d   1      59.849  -2.919  29.019  0.00  0.00     0.159 A 
ATOM      8  S   UNL d   1      58.898  -0.648  29.194  0.00  0.00    -0.045 SA
ATOM      9  C   UNL d   1      59.597  -0.198  29.220  0.00  0.00     0.079 A 
ATOM     10  O   UNL d   1      58.559  -3.552  28.984  0.00  0.00    -0.263 OA
ATOM     11  N   UNL d   1      61.027  -0.512  29.184  0.00  0.00    -0.126 N 
ATOM     12  C   UNL d   1      60.214  -3.657  28.961  0.00  0.00     0.028 C 
ENDROOT
TORSDOF 0
ENDMDL
MODEL 9
REMARK VINA RESULT:      -2.5      9.747      9.868
REMARK  0 active torsions:
REMARK  status: ('A' for Active; 'I' for Inactive)
ROOT
ATOM      1  N   UNL d   1      59.668  -9.414  33.763  0.00  0.00    -0.187 N 
ATOM      2  C   UNL d   1      60.303  -9.406  33.236  0.00  0.00     0.200 A 
ATOM      3  N   UNL d   1      60.180  -9.534  32.430  0.00  0.00    -0.181 NA
ATOM      4  N   UNL d   1      58.894  -9.553  33.476  0.00  0.00    -0.157 NA
ATOM      5  C   UNL d   1      59.964  -9.271  34.521  0.00  0.00     0.194 A 
ATOM      6  C   UNL d   1      59.419  -9.671  32.145  0.00  0.00     0.300 A 
ATOM      7  C   UNL d   1      58.772  -9.681  32.671  0.00  0.00     0.159 A 
ATOM      8  S   UNL d   1      60.990  -9.258  33.669  0.00  0.00    -0.045 SA
ATOM      9  C   UNL d   1      60.777  -9.174  34.469  0.00  0.00     0.079 A 
ATOM     10  O   UNL d   1      59.297  -9.799  31.338  0.00  0.00    -0.263 OA
ATOM     11  N   UNL d   1      59.516  -9.233  35.211  0.00  0.00    -0.126 N 
ATOM     12  C   UNL d   1      58.011  -9.818  32.385  0.00  0.00     0.028 C 
ENDROOT
TORSDOF 0
ENDMDL
