MODEL 1
REMARK VINA RESULT:      -3.9      0.000      0.000
REMARK  5 active torsions:
REMARK  status: ('A' for Active; 'I' for Inactive)
REMARK       I    between atoms: C_3  and  N_1 
REMARK    1  A    between atoms: C_8  and  C_3 
REMARK    2  A    between atoms: S_4  and  N_9 
REMARK    3  A    between atoms: C_10  and  C_5 
REMARK    4  A    between atoms: C_11  and  C_6 
REMARK    5  A    between atoms: N_9  and  C_23 
ROOT
ATOM      1  N   UNL d   1     -40.518  14.154  20.834  0.00  0.00    -0.193 N 
ATOM      2  N   UNL d   1     -41.070  13.762  21.317  0.00  0.00    -0.163 NA
ATOM      3  C   UNL d   1     -39.734  14.327  21.038  0.00  0.00     0.303 C 
ATOM      4  C   UNL d   1     -40.898  14.337  20.115  0.00  0.00     0.088 A 
ATOM      5  C   UNL d   1     -41.782  13.703  20.903  0.00  0.00     0.103 A 
ATOM      6  C   UNL d   1     -41.673  14.059  20.162  0.00  0.00     0.040 A 
ATOM      7  O   UNL d   1     -39.251  14.724  20.490  0.00  0.00    -0.263 OA
ENDROOT
BRANCH   5   8
ATOM      8  C   UNL d   1     -42.478  13.354  21.176  0.00  0.00     0.019 A 
ATOM      9  C   UNL d   1     -43.194  13.782  21.158  0.00  0.00     0.003 A 
ATOM     10  C   UNL d   1     -43.885  13.432  21.430  0.00  0.00     0.020 A 
ATOM     11  C   UNL d   1     -43.877  12.656  21.724  0.00  0.00     0.093 A 
ATOM     12  C   UNL d   1     -43.161  12.232  21.741  0.00  0.00     0.020 A 
ATOM     13  C   UNL d   1     -42.461  12.585  21.465  0.00  0.00     0.003 A 
BRANCH  11  14
ATOM     14  N   UNL d   1     -44.569  12.297  22.000  0.00  0.00    -0.162 NA
BRANCH  14  15
ATOM     15  S   UNL d   1     -45.095  12.706  22.480  0.00  0.00     0.266 S 
ATOM     16  O   UNL d   1     -44.805  12.170  23.046  0.00  0.00    -0.203 OA
ATOM     17  O   UNL d   1     -45.497  12.894  23.182  0.00  0.00    -0.203 OA
ATOM     18  C   UNL d   1     -45.399  13.249  21.938  0.00  0.00     0.165 C 
ENDBRANCH  14  15
ENDBRANCH  11  14
ENDBRANCH   5   8
BRANCH   4  19
ATOM     19  C   UNL d   1     -40.553  14.725  19.480  0.00  0.00     0.018 A 
ATOM     20  C   UNL d   1     -40.246  14.283  18.855  0.00  0.00     0.004 A 
ATOM     21  C   UNL d   1     -39.897  14.668  18.211  0.00  0.00     0.030 A 
ATOM     22  C   UNL d   1     -39.860  15.486  18.203  0.00  0.00     0.140 A 
ATOM     23  C   UNL d   1     -40.163  15.922  18.821  0.00  0.00     0.030 A 
ATOM     24  F   UNL d   1     -39.507  15.873  17.553  0.00  0.00    -0.204 F 
ATOM     25  C   UNL d   1     -40.511  15.549  19.463  0.00  0.00     0.004 A 
ENDBRANCH   4  19
BRANCH   3  26
ATOM     26  C   UNL d   1     -39.443  14.110  21.769  0.00  0.00     0.158 A 
ATOM     27  O   UNL d   1     -39.106  13.360  21.965  0.00  0.00    -0.300 OA
ATOM     28  C   UNL d   1     -38.887  13.389  22.764  0.00  0.00     0.123 A 
ATOM     29  C   UNL d   1     -39.080  14.133  23.058  0.00  0.00     0.029 A 
ATOM     30  C   UNL d   1     -39.421  14.567  22.435  0.00  0.00     0.032 A 
ENDBRANCH   3  26
TORSDOF 5
ENDMDL
MODEL 2
REMARK VINA RESULT:      -3.3      3.783      4.664
REMARK  5 active torsions:
REMARK  status: ('A' for Active; 'I' for Inactive)
REMARK       I    between atoms: C_3  and  N_1 
REMARK    1  A    between atoms: C_8  and  C_3 
REMARK    2  A    between atoms: S_4  and  N_9 
REMARK    3  A    between atoms: C_10  and  C_5 
REMARK    4  A    between atoms: C_11  and  C_6 
REMARK    5  A    between atoms: N_9  and  C_23 
ROOT
ATOM      1  N   UNL d   1     -39.335  14.214  18.201  0.00  0.00    -0.193 N 
ATOM      2  N   UNL d   1     -38.918  14.154  18.917  0.00  0.00    -0.163 NA
ATOM      3  C   UNL d   1     -39.265  13.698  17.556  0.00  0.00     0.303 C 
ATOM      4  C   UNL d   1     -39.830  14.883  18.253  0.00  0.00     0.088 A 
ATOM      5  C   UNL d   1     -39.152  14.777  19.407  0.00  0.00     0.103 A 
ATOM      6  C   UNL d   1     -39.715  15.224  18.994  0.00  0.00     0.040 A 
ATOM      7  O   UNL d   1     -39.723  13.835  16.876  0.00  0.00    -0.263 OA
ENDROOT
BRANCH   5   8
ATOM      8  C   UNL d   1     -38.876  14.928  20.169  0.00  0.00     0.019 A 
ATOM      9  C   UNL d   1     -38.260  14.465  20.489  0.00  0.00     0.003 A 
ATOM     10  C   UNL d   1     -37.987  14.617  21.248  0.00  0.00     0.020 A 
ATOM     11  C   UNL d   1     -38.318  15.228  21.700  0.00  0.00     0.093 A 
ATOM     12  C   UNL d   1     -38.933  15.689  21.379  0.00  0.00     0.020 A 
ATOM     13  C   UNL d   1     -39.210  15.535  20.611  0.00  0.00     0.003 A 
BRANCH  11  14
ATOM     14  N   UNL d   1     -38.048  15.387  22.466  0.00  0.00    -0.162 NA
BRANCH  14  15
ATOM     15  S   UNL d   1     -38.479  15.151  23.123  0.00  0.00     0.266 S 
ATOM     16  O   UNL d   1     -38.362  14.403  22.779  0.00  0.00    -0.203 OA
ATOM     17  O   UNL d   1     -38.857  14.616  23.634  0.00  0.00    -0.203 OA
ATOM     18  C   UNL d   1     -38.609  15.881  23.486  0.00  0.00     0.165 C 
ENDBRANCH  14  15
ENDBRANCH  11  14
ENDBRANCH   5   8
BRANCH   4  19
ATOM     19  C   UNL d   1     -40.339  15.144  17.665  0.00  0.00     0.018 A 
ATOM     20  C   UNL d   1     -41.133  14.921  17.689  0.00  0.00     0.004 A 
ATOM     21  C   UNL d   1     -41.651  15.182  17.099  0.00  0.00     0.030 A 
ATOM     22  C   UNL d   1     -41.369  15.660  16.497  0.00  0.00     0.140 A 
ATOM     23  C   UNL d   1     -40.585  15.880  16.474  0.00  0.00     0.030 A 
ATOM     24  F   UNL d   1     -41.893  15.922  15.903  0.00  0.00    -0.204 F 
ATOM     25  C   UNL d   1     -40.064  15.626  17.055  0.00  0.00     0.004 A 
ENDBRANCH   4  19
BRANCH   3  26
ATOM     26  C   UNL d   1     -38.752  13.065  17.591  0.00  0.00     0.158 A 
ATOM     27  O   UNL d   1     -38.453  12.708  18.296  0.00  0.00    -0.300 OA
ATOM     28  C   UNL d   1     -37.954  12.087  18.066  0.00  0.00     0.123 A 
ATOM     29  C   UNL d   1     -37.941  12.057  17.244  0.00  0.00     0.029 A 
ATOM     30  C   UNL d   1     -38.437  12.664  16.964  0.00  0.00     0.032 A 
ENDBRANCH   3  26
TORSDOF 5
ENDMDL
MODEL 3
REMARK VINA RESULT:      -3.0      2.684      5.788
REMARK  5 active torsions:
REMARK  status: ('A' for Active; 'I' for Inactive)
REMARK       I    between atoms: C_3  and  N_1 
REMARK    1  A    between atoms: C_8  and  C_3 
REMARK    2  A    between atoms: S_4  and  N_9 
REMARK    3  A    between atoms: C_10  and  C_5 
REMARK    4  A    between atoms: C_11  and  C_6 
REMARK    5  A    between atoms: N_9  and  C_23 
ROOT
ATOM      1  N   UNL d   1     -44.751  12.258  22.540  0.00  0.00    -0.193 N 
ATOM      2  N   UNL d   1     -43.968  12.234  22.261  0.00  0.00    -0.163 NA
ATOM      3  C   UNL d   1     -45.105  11.695  23.036  0.00  0.00     0.303 C 
ATOM      4  C   UNL d   1     -45.108  12.945  22.232  0.00  0.00     0.088 A 
ATOM      5  C   UNL d   1     -43.841  12.897  21.786  0.00  0.00     0.103 A 
ATOM      6  C   UNL d   1     -44.546  13.334  21.770  0.00  0.00     0.040 A 
ATOM      7  O   UNL d   1     -45.897  11.799  23.266  0.00  0.00    -0.263 OA
ENDROOT
BRANCH   5   8
ATOM      8  C   UNL d   1     -43.141  13.092  21.397  0.00  0.00     0.019 A 
ATOM      9  C   UNL d   1     -42.534  13.491  21.807  0.00  0.00     0.003 A 
ATOM     10  C   UNL d   1     -41.837  13.684  21.418  0.00  0.00     0.020 A 
ATOM     11  C   UNL d   1     -41.731  13.485  20.620  0.00  0.00     0.093 A 
ATOM     12  C   UNL d   1     -42.339  13.086  20.213  0.00  0.00     0.020 A 
ATOM     13  C   UNL d   1     -43.044  12.891  20.606  0.00  0.00     0.003 A 
BRANCH  11  14
ATOM     14  N   UNL d   1     -41.032  13.676  20.221  0.00  0.00    -0.162 NA
BRANCH  14  15
ATOM     15  S   UNL d   1     -40.925  14.417  19.887  0.00  0.00     0.266 S 
ATOM     16  O   UNL d   1     -41.002  13.977  19.185  0.00  0.00    -0.203 OA
ATOM     17  O   UNL d   1     -40.850  14.972  19.273  0.00  0.00    -0.203 OA
ATOM     18  C   UNL d   1     -40.846  14.877  20.567  0.00  0.00     0.165 C 
ENDBRANCH  14  15
ENDBRANCH  11  14
ENDBRANCH   5   8
BRANCH   4  19
ATOM     19  C   UNL d   1     -45.880  13.182  22.369  0.00  0.00     0.018 A 
ATOM     20  C   UNL d   1     -46.037  13.712  22.982  0.00  0.00     0.004 A 
ATOM     21  C   UNL d   1     -46.815  13.956  23.126  0.00  0.00     0.030 A 
ATOM     22  C   UNL d   1     -47.420  13.667  22.658  0.00  0.00     0.140 A 
ATOM     23  C   UNL d   1     -47.265  13.144  22.053  0.00  0.00     0.030 A 
ATOM     24  F   UNL d   1     -48.204  13.914  22.804  0.00  0.00    -0.204 F 
ATOM     25  C   UNL d   1     -46.498  12.897  21.903  0.00  0.00     0.004 A 
ENDBRANCH   4  19
BRANCH   3  26
ATOM     26  C   UNL d   1     -44.679  11.048  23.292  0.00  0.00     0.158 A 
ATOM     27  O   UNL d   1     -43.848  11.029  23.441  0.00  0.00    -0.300 OA
ATOM     28  C   UNL d   1     -43.659  10.262  23.691  0.00  0.00     0.123 A 
ATOM     29  C   UNL d   1     -44.349   9.815  23.698  0.00  0.00     0.029 A 
ATOM     30  C   UNL d   1     -44.970  10.311  23.451  0.00  0.00     0.032 A 
ENDBRANCH   3  26
TORSDOF 5
ENDMDL
MODEL 4
REMARK VINA RESULT:      -2.9      2.799      4.597
REMARK  5 active torsions:
REMARK  status: ('A' for Active; 'I' for Inactive)
REMARK       I    between atoms: C_3  and  N_1 
REMARK    1  A    between atoms: C_8  and  C_3 
REMARK    2  A    between atoms: S_4  and  N_9 
REMARK    3  A    between atoms: C_10  and  C_5 
REMARK    4  A    between atoms: C_11  and  C_6 
REMARK    5  A    between atoms: N_9  and  C_23 
ROOT
ATOM      1  N   UNL d   1     -44.313  12.297  22.334  0.00  0.00    -0.193 N 
ATOM      2  N   UNL d   1     -45.091  12.342  22.624  0.00  0.00    -0.163 NA
ATOM      3  C   UNL d   1     -43.776  11.685  22.486  0.00  0.00     0.303 C 
ATOM      4  C   UNL d   1     -44.179  12.975  21.868  0.00  0.00     0.088 A 
ATOM      5  C   UNL d   1     -45.434  13.038  22.341  0.00  0.00     0.103 A 
ATOM      6  C   UNL d   1     -44.869  13.426  21.875  0.00  0.00     0.040 A 
ATOM      7  O   UNL d   1     -43.015  11.723  22.154  0.00  0.00    -0.263 OA
ENDROOT
BRANCH   5   8
ATOM      8  C   UNL d   1     -46.201  13.301  22.494  0.00  0.00     0.019 A 
ATOM      9  C   UNL d   1     -46.810  13.153  21.943  0.00  0.00     0.003 A 
ATOM     10  C   UNL d   1     -47.573  13.416  22.097  0.00  0.00     0.020 A 
ATOM     11  C   UNL d   1     -47.743  13.828  22.796  0.00  0.00     0.093 A 
ATOM     12  C   UNL d   1     -47.133  13.974  23.344  0.00  0.00     0.020 A 
ATOM     13  C   UNL d   1     -46.361  13.709  23.189  0.00  0.00     0.003 A 
BRANCH  11  14
ATOM     14  N   UNL d   1     -48.509  14.096  22.959  0.00  0.00    -0.162 NA
BRANCH  14  15
ATOM     15  S   UNL d   1     -48.893  14.611  22.449  0.00  0.00     0.266 S 
ATOM     16  O   UNL d   1     -48.548  15.174  22.955  0.00  0.00    -0.203 OA
ATOM     17  O   UNL d   1     -49.133  15.348  22.149  0.00  0.00    -0.203 OA
ATOM     18  C   UNL d   1     -49.246  14.073  21.932  0.00  0.00     0.165 C 
ENDBRANCH  14  15
ENDBRANCH  11  14
ENDBRANCH   5   8
BRANCH   4  19
ATOM     19  C   UNL d   1     -43.481  13.152  21.476  0.00  0.00     0.018 A 
ATOM     20  C   UNL d   1     -43.381  12.901  20.696  0.00  0.00     0.004 A 
ATOM     21  C   UNL d   1     -42.678  13.076  20.295  0.00  0.00     0.030 A 
ATOM     22  C   UNL d   1     -42.090  13.496  20.679  0.00  0.00     0.140 A 
ATOM     23  C   UNL d   1     -42.189  13.743  21.448  0.00  0.00     0.030 A 
ATOM     24  F   UNL d   1     -41.382  13.672  20.272  0.00  0.00    -0.204 F 
ATOM     25  C   UNL d   1     -42.882  13.575  21.854  0.00  0.00     0.004 A 
ENDBRANCH   4  19
BRANCH   3  26
ATOM     26  C   UNL d   1     -43.993  11.055  22.957  0.00  0.00     0.158 A 
ATOM     27  O   UNL d   1     -44.773  10.892  23.237  0.00  0.00    -0.300 OA
ATOM     28  C   UNL d   1     -44.732  10.201  23.693  0.00  0.00     0.123 A 
ATOM     29  C   UNL d   1     -43.952   9.940  23.698  0.00  0.00     0.029 A 
ATOM     30  C   UNL d   1     -43.507  10.475  23.242  0.00  0.00     0.032 A 
ENDBRANCH   3  26
TORSDOF 5
ENDMDL
MODEL 5
REMARK VINA RESULT:      -1.7      4.231      8.048
REMARK  5 active torsions:
REMARK  status: ('A' for Active; 'I' for Inactive)
REMARK       I    between atoms: C_3  and  N_1 
REMARK    1  A    between atoms: C_8  and  C_3 
REMARK    2  A    between atoms: S_4  and  N_9 
REMARK    3  A    between atoms: C_10  and  C_5 
REMARK    4  A    between atoms: C_11  and  C_6 
REMARK    5  A    between atoms: N_9  and  C_23 
ROOT
ATOM      1  N   UNL d   1     -48.386  13.315  22.688  0.00  0.00    -0.193 N 
ATOM      2  N   UNL d   1     -47.598  13.554  22.579  0.00  0.00    -0.163 NA
ATOM      3  C   UNL d   1     -49.046  13.817  22.704  0.00  0.00     0.303 C 
ATOM      4  C   UNL d   1     -48.388  12.486  22.776  0.00  0.00     0.088 A 
ATOM      5  C   UNL d   1     -47.117  12.883  22.599  0.00  0.00     0.103 A 
ATOM      6  C   UNL d   1     -47.608  12.226  22.722  0.00  0.00     0.040 A 
ATOM      7  O   UNL d   1     -49.801  13.489  22.819  0.00  0.00    -0.263 OA
ENDROOT
BRANCH   5   8
ATOM      8  C   UNL d   1     -46.297  12.867  22.514  0.00  0.00     0.019 A 
ATOM      9  C   UNL d   1     -45.884  13.568  22.328  0.00  0.00     0.003 A 
ATOM     10  C   UNL d   1     -45.067  13.550  22.243  0.00  0.00     0.020 A 
ATOM     11  C   UNL d   1     -44.649  12.841  22.342  0.00  0.00     0.093 A 
ATOM     12  C   UNL d   1     -45.064  12.143  22.529  0.00  0.00     0.020 A 
ATOM     13  C   UNL d   1     -45.890  12.160  22.614  0.00  0.00     0.003 A 
BRANCH  11  14
ATOM     14  N   UNL d   1     -43.826  12.815  22.259  0.00  0.00    -0.162 NA
BRANCH  14  15
ATOM     15  S   UNL d   1     -43.480  12.618  21.542  0.00  0.00     0.266 S 
ATOM     16  O   UNL d   1     -43.244  11.951  21.978  0.00  0.00    -0.203 OA
ATOM     17  O   UNL d   1     -43.043  12.154  21.009  0.00  0.00    -0.203 OA
ATOM     18  C   UNL d   1     -43.702  13.270  21.086  0.00  0.00     0.165 C 
ENDBRANCH  14  15
ENDBRANCH  11  14
ENDBRANCH   5   8
BRANCH   4  19
ATOM     19  C   UNL d   1     -49.053  12.022  22.896  0.00  0.00     0.018 A 
ATOM     20  C   UNL d   1     -49.099  11.549  23.571  0.00  0.00     0.004 A 
ATOM     21  C   UNL d   1     -49.768  11.079  23.698  0.00  0.00     0.030 A 
ATOM     22  C   UNL d   1     -50.377  11.089  23.152  0.00  0.00     0.140 A 
ATOM     23  C   UNL d   1     -50.332  11.556  22.486  0.00  0.00     0.030 A 
ATOM     24  F   UNL d   1     -51.051  10.613  23.281  0.00  0.00    -0.204 F 
ATOM     25  C   UNL d   1     -49.673  12.025  22.352  0.00  0.00     0.004 A 
ENDBRANCH   4  19
BRANCH   3  26
ATOM     26  C   UNL d   1     -48.952  14.622  22.608  0.00  0.00     0.158 A 
ATOM     27  O   UNL d   1     -48.992  15.042  21.876  0.00  0.00    -0.300 OA
ATOM     28  C   UNL d   1     -48.864  15.843  22.043  0.00  0.00     0.123 A 
ATOM     29  C   UNL d   1     -48.747  15.922  22.854  0.00  0.00     0.029 A 
ATOM     30  C   UNL d   1     -48.803  15.163  23.189  0.00  0.00     0.032 A 
ENDBRANCH   3  26
TORSDOF 5
ENDMDL
