MODEL 1
REMARK VINA RESULT:     102.0      0.000      0.000
REMARK  8 active torsions:
REMARK  status: ('A' for Active; 'I' for Inactive)
REMARK    1  A    between atoms: N_2  and  S_1 
REMARK    2  A    between atoms: C_6  and  S_1 
REMARK    3  A    between atoms: C_5  and  N_2 
REMARK    4  A    between atoms: C_4  and  C_3 
REMARK       I    between atoms: N_9  and  C_4 
REMARK    5  A    between atoms: C_14  and  N_9 
REMARK    6  A    between atoms: C_16  and  C_14 
REMARK    7  A    between atoms: O_20  and  C_15 
REMARK    8  A    between atoms: C_23  and  O_20 
ROOT
ATOM      1  C   UNL d   1     -56.036 -99.542 -43.740  0.00  0.00     0.076 A 
ATOM      2  C   UNL d   1     -56.568 -99.415 -44.365  0.00  0.00     0.098 A 
ATOM      3  C   UNL d   1     -55.247 -99.320 -43.817  0.00  0.00     0.006 A 
ATOM      4  C   UNL d   1     -56.302 -99.063 -45.068  0.00  0.00     0.020 A 
ATOM      5  C   UNL d   1     -54.983 -98.969 -44.516  0.00  0.00     0.000 A 
ATOM      6  C   UNL d   1     -55.510 -98.841 -45.141  0.00  0.00     0.002 A 
ENDROOT
BRANCH   2   7
ATOM      7  N   UNL d   1     -57.358 -99.637 -44.290  0.00  0.00    -0.158 NA
BRANCH   7   8
ATOM      8  S   UNL d   1     -57.878 -99.541 -44.922  0.00  0.00     0.285 S 
ATOM      9  O   UNL d   1     -57.244 -99.494 -45.441  0.00  0.00    -0.198 OA
ATOM     10  O   UNL d   1     -58.516 -99.588 -44.395  0.00  0.00    -0.198 OA
BRANCH   8  11
ATOM     11  C   UNL d   1     -58.396 -99.444 -45.556  0.00  0.00     0.105 A 
ATOM     12  C   UNL d   1     -59.072 -98.980 -45.470  0.00  0.00     0.015 A 
ATOM     13  C   UNL d   1     -59.589 -98.885 -46.105  0.00  0.00     0.025 A 
ATOM     14  C   UNL d   1     -59.429 -99.252 -46.826  0.00  0.00     0.100 A 
ATOM     15  C   UNL d   1     -58.747 -99.719 -46.910  0.00  0.00     0.025 A 
ATOM     16  C   UNL d   1     -58.235 -99.812 -46.275  0.00  0.00     0.015 A 
BRANCH  14  17
ATOM     17  O   UNL d   1     -59.944 -99.158 -47.460  0.00  0.00    -0.305 OA
BRANCH  17  18
ATOM     18  C   UNL d   1     -59.657 -98.897 -48.191  0.00  0.00     0.123 C 
ATOM     19  C   UNL d   1     -58.849 -98.767 -48.291  0.00  0.00     0.029 C 
ENDBRANCH  17  18
ENDBRANCH  14  17
ENDBRANCH   8  11
ENDBRANCH   7   8
ENDBRANCH   2   7
BRANCH   1  20
ATOM     20  C   UNL d   1     -56.299 -99.893 -43.040  0.00  0.00     0.281 C 
ATOM     21  N   UNL d   1     -55.857-100.495 -42.687  0.00  0.00    -0.204 NA
ATOM     22  O   UNL d   1     -57.004 -99.640 -42.695  0.00  0.00    -0.265 OA
BRANCH  21  23
ATOM     23  C   UNL d   1     -56.125-100.841 -41.987  0.00  0.00     0.127 C 
BRANCH  23  24
ATOM     24  C   UNL d   1     -55.682-101.436 -41.627  0.00  0.00     0.119 A 
ATOM     25  O   UNL d   1     -54.967-101.334 -41.237  0.00  0.00    -0.304 OA
ATOM     26  C   UNL d   1     -54.718-102.071 -40.962  0.00  0.00     0.123 A 
ATOM     27  C   UNL d   1     -55.285-102.628 -41.185  0.00  0.00     0.029 A 
ATOM     28  C   UNL d   1     -55.881-102.235 -41.597  0.00  0.00     0.028 A 
ENDBRANCH  23  24
ENDBRANCH  21  23
ENDBRANCH   1  20
TORSDOF 8
ENDMDL
