MODEL 1
REMARK VINA RESULT:      44.0      0.000      0.000
REMARK  6 active torsions:
REMARK  status: ('A' for Active; 'I' for Inactive)
REMARK    1  A    between atoms: C_5  and  C_1 
REMARK    2  A    between atoms: N_8  and  C_5 
REMARK    3  A    between atoms: C_9  and  C_5 
REMARK    4  A    between atoms: C_19  and  C_7 
REMARK    5  A    between atoms: C_10  and  N_8 
REMARK    6  A    between atoms: O_20  and  C_16 
ROOT
ATOM      1  C   UNL d   1      13.651  13.062  -2.603  0.00  0.00     0.109 C 
ENDROOT
BRANCH   1   2
ATOM      2  C   UNL d   1      14.015  12.640  -1.993  0.00  0.00     0.160 A 
ATOM      3  C   UNL d   1      13.598  12.425  -1.305  0.00  0.00     0.258 A 
ATOM      4  C   UNL d   1      13.996  11.995  -0.702  0.00  0.00     0.238 A 
ATOM      5  O   UNL d   1      12.813  12.630  -1.221  0.00  0.00    -0.281 OA
ATOM      6  O   UNL d   1      13.579  11.780  -0.014  0.00  0.00    -0.283 OA
ATOM      7  C   UNL d   1      14.781  11.789  -0.787  0.00  0.00     0.073 A 
ATOM      8  C   UNL d   1      15.198  12.004  -1.474  0.00  0.00     0.146 A 
ATOM      9  O   UNL d   1      14.824  12.422  -2.068  0.00  0.00    -0.299 OA
BRANCH   8  10
ATOM     10  C   UNL d   1      16.000  11.790  -1.552  0.00  0.00     0.259 C 
ATOM     11  O   UNL d   1      16.607  12.372  -1.574  0.00  0.00    -0.281 OA
ENDBRANCH   8  10
ENDBRANCH   1   2
BRANCH   1  12
ATOM     12  N   UNL d   1      13.035  12.734  -3.048  0.00  0.00    -0.225 NA
BRANCH  12  13
ATOM     13  C   UNL d   1      13.141  12.572  -3.845  0.00  0.00     0.163 A 
ATOM     14  N   UNL d   1      13.613  11.939  -4.082  0.00  0.00    -0.225 NA
ATOM     15  C   UNL d   1      13.718  11.779  -4.876  0.00  0.00     0.101 A 
ATOM     16  C   UNL d   1      13.351  12.251  -5.441  0.00  0.00     0.021 A 
ATOM     17  C   UNL d   1      12.875  12.889  -5.225  0.00  0.00     0.005 A 
ATOM     18  C   UNL d   1      12.769  13.050  -4.426  0.00  0.00     0.039 A 
ENDBRANCH  12  13
ENDBRANCH   1  12
BRANCH   1  19
ATOM     19  C   UNL d   1      13.915  13.837  -2.770  0.00  0.00     0.020 A 
ATOM     20  C   UNL d   1      14.454  14.209  -2.268  0.00  0.00     0.004 A 
ATOM     21  C   UNL d   1      14.709  14.971  -2.439  0.00  0.00     0.024 A 
ATOM     22  C   UNL d   1      14.429  15.363  -3.108  0.00  0.00     0.094 A 
ATOM     23  C   UNL d   1      13.891  14.996  -3.613  0.00  0.00     0.024 A 
ATOM     24  C   UNL d   1      13.635  14.229  -3.439  0.00  0.00     0.004 A 
BRANCH  22  25
ATOM     25  O   UNL d   1      14.691  16.140  -3.279  0.00  0.00    -0.328 OA
ATOM     26  C   UNL d   1      15.030  16.631  -2.675  0.00  0.00     0.181 C 
ENDBRANCH  22  25
ENDBRANCH   1  19
TORSDOF 6
ENDMDL
