MODEL 1
REMARK VINA RESULT:       0.5      0.000      0.000
REMARK  5 active torsions:
REMARK  status: ('A' for Active; 'I' for Inactive)
REMARK    1  A    between atoms: C_2  and  C_1 
REMARK       I    between atoms: N_3  and  C_1 
REMARK    2  A    between atoms: C_6  and  N_4 
REMARK    3  A    between atoms: O_19  and  C_5 
REMARK    4  A    between atoms: O_22  and  C_7 
REMARK    5  A    between atoms: O_23  and  C_8 
ROOT
ATOM      1  C   UNL d   1     -41.658-121.843 -50.254  0.00  0.00     0.265 C 
ATOM      2  N   UNL d   1     -41.635-122.098 -51.035  0.00  0.00    -0.269 N 
ATOM      3  N   UNL d   1     -41.590-122.611 -52.606  0.00  0.00    -0.301 N 
ATOM      4  C   UNL d   1     -41.330-121.606 -51.620  0.00  0.00     0.102 A 
ATOM      5  C   UNL d   1     -41.918-122.850 -51.240  0.00  0.00     0.102 A 
ATOM      6  C   UNL d   1     -41.895-123.103 -52.021  0.00  0.00     0.100 A 
ATOM      7  C   UNL d   1     -41.307-121.862 -52.410  0.00  0.00     0.100 A 
ATOM      8  O   UNL d   1     -41.375-121.094 -50.054  0.00  0.00    -0.267 OA
ENDROOT
BRANCH   1   9
ATOM      9  C   UNL d   1     -41.962-122.336 -49.669  0.00  0.00     0.061 A 
ATOM     10  C   UNL d   1     -42.752-122.597 -49.712  0.00  0.00     0.031 A 
ATOM     11  C   UNL d   1     -43.055-123.091 -49.123  0.00  0.00     0.118 A 
ATOM     12  C   UNL d   1     -42.578-123.325 -48.494  0.00  0.00     0.138 A 
ATOM     13  C   UNL d   1     -41.796-123.067 -48.451  0.00  0.00     0.118 A 
ATOM     14  C   UNL d   1     -41.483-122.572 -49.037  0.00  0.00     0.031 A 
BRANCH  11  15
ATOM     15  O   UNL d   1     -43.838-123.348 -49.169  0.00  0.00    -0.326 OA
ATOM     16  C   UNL d   1     -44.272-123.238 -49.861  0.00  0.00     0.181 C 
ENDBRANCH  11  15
BRANCH  12  17
ATOM     17  O   UNL d   1     -42.882-123.817 -47.909  0.00  0.00    -0.324 OA
ATOM     18  C   UNL d   1     -43.147-123.497 -47.197  0.00  0.00     0.182 C 
ENDBRANCH  12  17
BRANCH  13  19
ATOM     19  O   UNL d   1     -41.309-123.302 -47.816  0.00  0.00    -0.326 OA
ATOM     20  C   UNL d   1     -41.129-122.762 -47.220  0.00  0.00     0.181 C 
ENDBRANCH  13  19
ENDBRANCH   1   9
BRANCH   3  21
ATOM     21  C   UNL d   1     -41.568-122.869 -53.392  0.00  0.00     0.064 A 
ATOM     22  C   UNL d   1     -41.964-122.445 -53.971  0.00  0.00     0.016 A 
ATOM     23  C   UNL d   1     -41.944-122.696 -54.750  0.00  0.00     0.001 A 
ATOM     24  C   UNL d   1     -42.382-121.765 -53.765  0.00  0.00     0.002 C 
ATOM     25  C   UNL d   1     -41.521-123.384 -54.955  0.00  0.00     0.000 A 
ATOM     26  C   UNL d   1     -41.123-123.808 -54.367  0.00  0.00     0.002 A 
ATOM     27  C   UNL d   1     -41.498-123.641 -55.736  0.00  0.00     0.000 C 
ATOM     28  C   UNL d   1     -41.146-123.551 -53.586  0.00  0.00     0.018 A 
ENDBRANCH   3  21
TORSDOF 5
ENDMDL
MODEL 2
REMARK VINA RESULT:       0.7      0.664      1.529
REMARK  5 active torsions:
REMARK  status: ('A' for Active; 'I' for Inactive)
REMARK    1  A    between atoms: C_2  and  C_1 
REMARK       I    between atoms: N_3  and  C_1 
REMARK    2  A    between atoms: C_6  and  N_4 
REMARK    3  A    between atoms: O_19  and  C_5 
REMARK    4  A    between atoms: O_22  and  C_7 
REMARK    5  A    between atoms: O_23  and  C_8 
ROOT
ATOM      1  C   UNL d   1     -41.489-121.783 -50.748  0.00  0.00     0.265 C 
ATOM      2  N   UNL d   1     -41.499-121.966 -51.550  0.00  0.00    -0.269 N 
ATOM      3  N   UNL d   1     -41.520-122.335 -53.161  0.00  0.00    -0.301 N 
ATOM      4  C   UNL d   1     -41.143-121.460 -52.092  0.00  0.00     0.102 A 
ATOM      5  C   UNL d   1     -41.867-122.659 -51.817  0.00  0.00     0.102 A 
ATOM      6  C   UNL d   1     -41.876-122.841 -52.618  0.00  0.00     0.100 A 
ATOM      7  C   UNL d   1     -41.153-121.644 -52.902  0.00  0.00     0.100 A 
ATOM      8  O   UNL d   1     -41.123-121.092 -50.486  0.00  0.00    -0.267 OA
ENDROOT
BRANCH   1   9
ATOM      9  C   UNL d   1     -41.845-122.290 -50.206  0.00  0.00     0.061 A 
ATOM     10  C   UNL d   1     -41.377-122.791 -49.733  0.00  0.00     0.031 A 
ATOM     11  C   UNL d   1     -41.738-123.299 -49.189  0.00  0.00     0.118 A 
ATOM     12  C   UNL d   1     -42.558-123.309 -49.114  0.00  0.00     0.138 A 
ATOM     13  C   UNL d   1     -43.021-122.812 -49.582  0.00  0.00     0.118 A 
ATOM     14  C   UNL d   1     -42.669-122.300 -50.129  0.00  0.00     0.031 A 
BRANCH  11  15
ATOM     15  O   UNL d   1     -41.271-123.795 -48.723  0.00  0.00    -0.326 OA
ATOM     16  C   UNL d   1     -41.123-123.606 -47.934  0.00  0.00     0.181 C 
ENDBRANCH  11  15
BRANCH  12  17
ATOM     17  O   UNL d   1     -42.914-123.814 -48.572  0.00  0.00    -0.324 OA
ATOM     18  C   UNL d   1     -43.043-123.565 -47.796  0.00  0.00     0.182 C 
ENDBRANCH  12  17
BRANCH  13  19
ATOM     19  O   UNL d   1     -43.852-122.818 -49.509  0.00  0.00    -0.326 OA
ATOM     20  C   UNL d   1     -44.298-122.234 -49.881  0.00  0.00     0.181 C 
ENDBRANCH  13  19
ENDBRANCH   1   9
BRANCH   3  21
ATOM     21  C   UNL d   1     -41.531-122.520 -53.967  0.00  0.00     0.064 A 
ATOM     22  C   UNL d   1     -41.891-122.010 -54.498  0.00  0.00     0.016 A 
ATOM     23  C   UNL d   1     -41.904-122.189 -55.297  0.00  0.00     0.001 A 
ATOM     24  C   UNL d   1     -42.240-121.315 -54.223  0.00  0.00     0.002 C 
ATOM     25  C   UNL d   1     -41.551-122.892 -55.571  0.00  0.00     0.000 A 
ATOM     26  C   UNL d   1     -41.189-123.404 -55.032  0.00  0.00     0.002 A 
ATOM     27  C   UNL d   1     -41.561-123.077 -56.372  0.00  0.00     0.000 C 
ATOM     28  C   UNL d   1     -41.179-123.218 -54.230  0.00  0.00     0.018 A 
ENDBRANCH   3  21
TORSDOF 5
ENDMDL
