MODEL 1
REMARK VINA RESULT:       6.2      0.000      0.000
REMARK  3 active torsions:
REMARK  status: ('A' for Active; 'I' for Inactive)
REMARK    1  A    between atoms: N_6  and  C_1 
REMARK    2  A    between atoms: C_11  and  C_2 
REMARK    3  A    between atoms: C_5  and  C_8 
REMARK       I    between atoms: C_8  and  N_6 
ROOT
ATOM      1  N   UNL d   1     -41.486-120.686 -52.515  0.00  0.00    -0.200 NA
ATOM      2  C   UNL d   1     -41.640-120.667 -53.337  0.00  0.00     0.302 C 
ATOM      3  O   UNL d   1     -41.707-119.927 -53.726  0.00  0.00    -0.263 OA
ENDROOT
BRANCH   1   4
ATOM      4  C   UNL d   1     -41.422-121.382 -52.147  0.00  0.00     0.119 A 
ATOM      5  C   UNL d   1     -41.525-121.503 -51.390  0.00  0.00     0.084 A 
ATOM      6  C   UNL d   1     -41.409-122.275 -51.262  0.00  0.00     0.013 A 
ATOM      7  C   UNL d   1     -41.443-122.703 -50.590  0.00  0.00     0.001 A 
ATOM      8  C   UNL d   1     -41.237-122.613 -51.936  0.00  0.00     0.031 A 
ATOM      9  C   UNL d   1     -41.297-123.482 -50.630  0.00  0.00     0.001 A 
ATOM     10  C   UNL d   1     -41.123-123.817 -51.322  0.00  0.00     0.006 A 
ATOM     11  S   UNL d   1     -41.242-122.071 -52.495  0.00  0.00    -0.068 SA
BRANCH   5  12
ATOM     12  C   UNL d   1     -41.710-120.972 -50.844  0.00  0.00     0.299 C 
ATOM     13  O   UNL d   1     -42.432-120.990 -50.513  0.00  0.00    -0.264 OA
ATOM     14  N   UNL d   1     -41.196-120.422 -50.615  0.00  0.00    -0.102 N 
ENDBRANCH   5  12
ENDBRANCH   1   4
BRANCH   2  15
ATOM     15  C   UNL d   1     -41.725-121.366 -53.766  0.00  0.00     0.158 A 
ATOM     16  O   UNL d   1     -41.124-121.800 -54.135  0.00  0.00    -0.302 OA
ATOM     17  C   UNL d   1     -41.452-122.462 -54.502  0.00  0.00     0.100 A 
ATOM     18  C   UNL d   1     -41.128-123.085 -54.947  0.00  0.00     0.025 A 
ATOM     19  C   UNL d   1     -42.275-122.446 -54.363  0.00  0.00     0.025 A 
ATOM     20  C   UNL d   1     -41.607-123.684 -55.250  0.00  0.00     0.002 A 
ATOM     21  C   UNL d   1     -42.437-123.673 -55.113  0.00  0.00     0.000 A 
ATOM     22  C   UNL d   1     -42.762-123.046 -54.666  0.00  0.00     0.002 A 
ATOM     23  C   UNL d   1     -42.443-121.769 -53.909  0.00  0.00     0.032 A 
ENDBRANCH   2  15
TORSDOF 3
ENDMDL
MODEL 2
REMARK VINA RESULT:       6.7      1.559      1.982
REMARK  3 active torsions:
REMARK  status: ('A' for Active; 'I' for Inactive)
REMARK    1  A    between atoms: N_6  and  C_1 
REMARK    2  A    between atoms: C_11  and  C_2 
REMARK    3  A    between atoms: C_5  and  C_8 
REMARK       I    between atoms: C_8  and  N_6 
ROOT
ATOM      1  N   UNL d   1     -41.884-120.958 -50.581  0.00  0.00    -0.200 NA
ATOM      2  C   UNL d   1     -41.531-120.844 -51.331  0.00  0.00     0.302 C 
ATOM      3  O   UNL d   1     -41.123-120.130 -51.489  0.00  0.00    -0.263 OA
ENDROOT
BRANCH   1   4
ATOM      4  C   UNL d   1     -42.270-121.631 -50.429  0.00  0.00     0.119 A 
ATOM      5  C   UNL d   1     -42.259-122.015 -49.759  0.00  0.00     0.084 A 
ATOM      6  C   UNL d   1     -42.718-122.653 -49.852  0.00  0.00     0.013 A 
ATOM      7  C   UNL d   1     -42.906-123.239 -49.345  0.00  0.00     0.001 A 
ATOM      8  C   UNL d   1     -43.000-122.649 -50.572  0.00  0.00     0.031 A 
ATOM      9  C   UNL d   1     -43.387-123.817 -49.596  0.00  0.00     0.001 A 
ATOM     10  C   UNL d   1     -43.670-123.805 -50.331  0.00  0.00     0.006 A 
ATOM     11  S   UNL d   1     -42.731-122.021 -50.942  0.00  0.00    -0.068 SA
BRANCH   5  12
ATOM     12  C   UNL d   1     -41.873-121.822 -49.105  0.00  0.00     0.299 C 
ATOM     13  O   UNL d   1     -42.231-121.368 -48.561  0.00  0.00    -0.264 OA
ATOM     14  N   UNL d   1     -41.137-122.069 -48.975  0.00  0.00    -0.102 N 
ENDBRANCH   5  12
ENDBRANCH   1   4
BRANCH   2  15
ATOM     15  C   UNL d   1     -41.582-121.426 -51.913  0.00  0.00     0.158 A 
ATOM     16  O   UNL d   1     -41.189-122.155 -51.923  0.00  0.00    -0.302 OA
ATOM     17  C   UNL d   1     -41.398-122.567 -52.607  0.00  0.00     0.100 A 
ATOM     18  C   UNL d   1     -41.184-123.311 -52.911  0.00  0.00     0.025 A 
ATOM     19  C   UNL d   1     -41.932-122.090 -53.035  0.00  0.00     0.025 A 
ATOM     20  C   UNL d   1     -41.491-123.581 -53.626  0.00  0.00     0.002 A 
ATOM     21  C   UNL d   1     -42.030-123.105 -54.063  0.00  0.00     0.000 A 
ATOM     22  C   UNL d   1     -42.244-122.358 -53.757  0.00  0.00     0.002 A 
ATOM     23  C   UNL d   1     -42.046-121.386 -52.607  0.00  0.00     0.032 A 
ENDBRANCH   2  15
TORSDOF 3
ENDMDL
MODEL 3
REMARK VINA RESULT:       6.8      2.591      4.874
REMARK  3 active torsions:
REMARK  status: ('A' for Active; 'I' for Inactive)
REMARK    1  A    between atoms: N_6  and  C_1 
REMARK    2  A    between atoms: C_11  and  C_2 
REMARK    3  A    between atoms: C_5  and  C_8 
REMARK       I    between atoms: C_8  and  N_6 
ROOT
ATOM      1  N   UNL d   1     -43.874-122.864 -50.388  0.00  0.00    -0.200 NA
ATOM      2  C   UNL d   1     -43.939-123.341 -49.704  0.00  0.00     0.302 C 
ATOM      3  O   UNL d   1     -44.621-123.815 -49.596  0.00  0.00    -0.263 OA
ENDROOT
BRANCH   1   4
ATOM      4  C   UNL d   1     -43.232-122.416 -50.492  0.00  0.00     0.119 A 
ATOM      5  C   UNL d   1     -42.828-122.352 -51.148  0.00  0.00     0.084 A 
ATOM      6  C   UNL d   1     -42.234-121.850 -51.005  0.00  0.00     0.013 A 
ATOM      7  C   UNL d   1     -41.651-121.582 -51.480  0.00  0.00     0.001 A 
ATOM      8  C   UNL d   1     -42.282-121.615 -50.270  0.00  0.00     0.031 A 
ATOM      9  C   UNL d   1     -41.123-121.073 -51.179  0.00  0.00     0.001 A 
ATOM     10  C   UNL d   1     -41.179-120.840 -50.428  0.00  0.00     0.006 A 
ATOM     11  S   UNL d   1     -42.896-121.959 -49.939  0.00  0.00    -0.068 SA
BRANCH   5  12
ATOM     12  C   UNL d   1     -42.969-122.709 -51.832  0.00  0.00     0.299 C 
ATOM     13  O   UNL d   1     -42.665-123.431 -51.963  0.00  0.00    -0.264 OA
ATOM     14  N   UNL d   1     -43.406-122.369 -52.390  0.00  0.00    -0.102 N 
ENDBRANCH   5  12
ENDBRANCH   1   4
BRANCH   2  15
ATOM     15  C   UNL d   1     -43.338-123.349 -49.138  0.00  0.00     0.158 A 
ATOM     16  O   UNL d   1     -42.596-123.710 -49.205  0.00  0.00    -0.302 OA
ATOM     17  C   UNL d   1     -42.168-123.583 -48.511  0.00  0.00     0.100 A 
ATOM     18  C   UNL d   1     -41.407-123.807 -48.263  0.00  0.00     0.025 A 
ATOM     19  C   UNL d   1     -42.648-123.133 -47.998  0.00  0.00     0.025 A 
ATOM     20  C   UNL d   1     -41.123-123.593 -47.520  0.00  0.00     0.002 A 
ATOM     21  C   UNL d   1     -41.602-123.139 -46.998  0.00  0.00     0.000 A 
ATOM     22  C   UNL d   1     -42.367-122.914 -47.248  0.00  0.00     0.002 A 
ATOM     23  C   UNL d   1     -43.370-122.989 -48.385  0.00  0.00     0.032 A 
ENDBRANCH   2  15
TORSDOF 3
ENDMDL
