MODEL 1
REMARK VINA RESULT:     108.8      0.000      0.000
REMARK  4 active torsions:
REMARK  status: ('A' for Active; 'I' for Inactive)
REMARK    1  A    between atoms: C_2  and  C_1 
REMARK    2  A    between atoms: C_3  and  C_1 
REMARK    3  A    between atoms: C_9  and  C_1 
REMARK    4  A    between atoms: N_4  and  C_10 
ROOT
ATOM      1  C   UNL d   1     -51.568  25.823  34.530  0.00  0.00     0.012 C 
ENDROOT
BRANCH   1   2
ATOM      2  C   UNL d   1     -52.018  25.204  34.211  0.00  0.00     0.077 A 
ATOM      3  C   UNL d   1     -51.674  24.462  34.089  0.00  0.00     0.195 A 
ATOM      4  C   UNL d   1     -52.120  23.844  33.771  0.00  0.00     0.019 A 
ATOM      5  O   UNL d   1     -50.876  24.342  34.289  0.00  0.00    -0.287 OA
ATOM      6  C   UNL d   1     -52.919  23.968  33.572  0.00  0.00     0.043 A 
ATOM      7  C   UNL d   1     -53.255  24.711  33.696  0.00  0.00     0.019 A 
ATOM      8  C   UNL d   1     -53.685  23.854  33.311  0.00  0.00     0.009 C 
ATOM      9  C   UNL d   1     -52.730  23.190  33.394  0.00  0.00     0.009 C 
ATOM     10  C   UNL d   1     -52.818  25.332  34.012  0.00  0.00     0.195 A 
ATOM     11  O   UNL d   1     -53.170  26.079  34.133  0.00  0.00    -0.287 OA
ENDBRANCH   1   2
BRANCH   1  12
ATOM     12  C   UNL d   1     -51.020  26.340  34.200  0.00  0.00     0.077 A 
ATOM     13  C   UNL d   1     -51.223  27.121  34.040  0.00  0.00     0.195 A 
ATOM     14  C   UNL d   1     -50.691  27.644  33.715  0.00  0.00     0.019 A 
ATOM     15  O   UNL d   1     -51.982  27.378  34.214  0.00  0.00    -0.287 OA
ATOM     16  C   UNL d   1     -49.927  27.378  33.541  0.00  0.00     0.043 A 
ATOM     17  C   UNL d   1     -49.697  26.594  33.694  0.00  0.00     0.019 A 
ATOM     18  C   UNL d   1     -49.906  28.161  33.308  0.00  0.00     0.009 C 
ATOM     19  C   UNL d   1     -49.128  27.288  33.306  0.00  0.00     0.009 C 
ATOM     20  C   UNL d   1     -50.257  26.076  34.027  0.00  0.00     0.195 A 
ATOM     21  O   UNL d   1     -50.023  25.295  34.177  0.00  0.00    -0.287 OA
ENDBRANCH   1  12
BRANCH   1  22
ATOM     22  C   UNL d   1     -51.674  25.968  35.329  0.00  0.00     0.002 A 
ATOM     23  C   UNL d   1     -51.064  26.334  35.760  0.00  0.00     0.024 A 
ATOM     24  C   UNL d   1     -51.169  26.479  36.560  0.00  0.00     0.127 A 
ATOM     25  C   UNL d   1     -51.885  26.257  36.929  0.00  0.00     0.024 A 
ATOM     26  C   UNL d   1     -52.473  25.902  36.504  0.00  0.00     0.002 A 
ATOM     27  C   UNL d   1     -52.366  25.755  35.693  0.00  0.00     0.000 A 
BRANCH  24  28
ATOM     28  N   UNL d   1     -50.552  26.846  36.984  0.00  0.00    -0.114 N 
ATOM     29  O   UNL d   1     -50.048  26.406  37.452  0.00  0.00    -0.532 OA
ATOM     30  O   UNL d   1     -50.437  27.670  36.941  0.00  0.00    -0.532 OA
ENDBRANCH  24  28
ENDBRANCH   1  22
TORSDOF 4
ENDMDL
MODEL 2
REMARK VINA RESULT:     108.9      1.302      3.285
REMARK  4 active torsions:
REMARK  status: ('A' for Active; 'I' for Inactive)
REMARK    1  A    between atoms: C_2  and  C_1 
REMARK    2  A    between atoms: C_3  and  C_1 
REMARK    3  A    between atoms: C_9  and  C_1 
REMARK    4  A    between atoms: N_4  and  C_10 
ROOT
ATOM      1  C   UNL d   1     -51.681  24.977  34.218  0.00  0.00     0.012 C 
ENDROOT
BRANCH   1   2
ATOM      2  C   UNL d   1     -50.907  24.810  33.975  0.00  0.00     0.077 A 
ATOM      3  C   UNL d   1     -50.669  24.027  33.858  0.00  0.00     0.195 A 
ATOM      4  C   UNL d   1     -49.897  23.858  33.616  0.00  0.00     0.019 A 
ATOM      5  O   UNL d   1     -51.211  23.409  33.985  0.00  0.00    -0.287 OA
ATOM      6  C   UNL d   1     -49.356  24.479  33.490  0.00  0.00     0.043 A 
ATOM      7  C   UNL d   1     -49.602  25.257  33.609  0.00  0.00     0.019 A 
ATOM      8  C   UNL d   1     -48.679  24.900  33.311  0.00  0.00     0.009 C 
ATOM      9  C   UNL d   1     -48.972  23.771  33.333  0.00  0.00     0.009 C 
ATOM     10  C   UNL d   1     -50.368  25.434  33.850  0.00  0.00     0.195 A 
ATOM     11  O   UNL d   1     -50.602  26.226  33.967  0.00  0.00    -0.287 OA
ENDBRANCH   1   2
BRANCH   1  12
ATOM     12  C   UNL d   1     -52.406  24.624  34.050  0.00  0.00     0.077 A 
ATOM     13  C   UNL d   1     -52.568  23.859  34.306  0.00  0.00     0.195 A 
ATOM     14  C   UNL d   1     -53.279  23.497  34.148  0.00  0.00     0.019 A 
ATOM     15  O   UNL d   1     -51.997  23.452  34.731  0.00  0.00    -0.287 OA
ATOM     16  C   UNL d   1     -53.851  23.913  33.718  0.00  0.00     0.043 A 
ATOM     17  C   UNL d   1     -53.711  24.687  33.449  0.00  0.00     0.019 A 
ATOM     18  C   UNL d   1     -54.217  23.197  33.864  0.00  0.00     0.009 C 
ATOM     19  C   UNL d   1     -54.532  24.175  33.307  0.00  0.00     0.009 C 
ATOM     20  C   UNL d   1     -52.976  25.038  33.622  0.00  0.00     0.195 A 
ATOM     21  O   UNL d   1     -52.841  25.810  33.351  0.00  0.00    -0.287 OA
ENDBRANCH   1  12
BRANCH   1  22
ATOM     22  C   UNL d   1     -51.769  25.614  34.725  0.00  0.00     0.002 A 
ATOM     23  C   UNL d   1     -52.008  25.480  35.511  0.00  0.00     0.024 A 
ATOM     24  C   UNL d   1     -52.096  26.117  36.017  0.00  0.00     0.127 A 
ATOM     25  C   UNL d   1     -51.945  26.890  35.739  0.00  0.00     0.024 A 
ATOM     26  C   UNL d   1     -51.713  27.014  34.975  0.00  0.00     0.002 A 
ATOM     27  C   UNL d   1     -51.624  26.367  34.461  0.00  0.00     0.000 A 
BRANCH  24  28
ATOM     28  N   UNL d   1     -52.336  25.973  36.803  0.00  0.00    -0.114 N 
ATOM     29  O   UNL d   1     -51.796  25.996  37.415  0.00  0.00    -0.532 OA
ATOM     30  O   UNL d   1     -53.131  25.803  36.982  0.00  0.00    -0.532 OA
ENDBRANCH  24  28
ENDBRANCH   1  22
TORSDOF 4
ENDMDL
