MODEL 1
REMARK VINA RESULT:      52.4      0.000      0.000
REMARK  5 active torsions:
REMARK  status: ('A' for Active; 'I' for Inactive)
REMARK    1  A    between atoms: C_15  and  N_5 
REMARK    2  A    between atoms: S_10  and  C_6 
REMARK    3  A    between atoms: C_14  and  S_10 
REMARK    4  A    between atoms: C_11  and  C_14 
REMARK       I    between atoms: N_13  and  C_11 
REMARK    5  A    between atoms: C_17  and  C_15 
ROOT
ATOM      1  C   UNL d   1      60.648  49.695  51.484  0.00  0.00     0.081 A 
ATOM      2  C   UNL d   1      59.915  49.700  51.863  0.00  0.00     0.117 A 
ATOM      3  N   UNL d   1      59.252  49.701  51.427  0.00  0.00    -0.215 NA
ATOM      4  C   UNL d   1      60.696  49.690  50.688  0.00  0.00     0.268 A 
ATOM      5  N   UNL d   1      60.032  49.691  50.252  0.00  0.00    -0.253 N 
ATOM      6  C   UNL d   1      59.313  49.696  50.618  0.00  0.00     0.182 A 
ATOM      7  S   UNL d   1      60.023  49.704  52.643  0.00  0.00    -0.068 SA
ATOM      8  C   UNL d   1      61.220  49.696  52.086  0.00  0.00     0.013 A 
ATOM      9  C   UNL d   1      60.802  49.702  52.798  0.00  0.00     0.031 A 
ATOM     10  O   UNL d   1      61.470  49.685  50.269  0.00  0.00    -0.267 OA
ATOM     11  C   UNL d   1      61.993  49.694  52.235  0.00  0.00     0.001 A 
ATOM     12  C   UNL d   1      61.374  49.703  53.401  0.00  0.00     0.006 A 
ATOM     13  C   UNL d   1      62.066  49.698  53.061  0.00  0.00     0.001 A 
ENDROOT
BRANCH   6  14
ATOM     14  S   UNL d   1      58.603  49.696  50.147  0.00  0.00    -0.044 SA
BRANCH  14  15
ATOM     15  C   UNL d   1      57.865  49.681  50.563  0.00  0.00     0.099 C 
BRANCH  15  16
ATOM     16  C   UNL d   1      57.388  48.979  50.481  0.00  0.00     0.272 C 
ATOM     17  N   UNL d   1      56.791  48.913  49.920  0.00  0.00    -0.269 N 
ATOM     18  C   UNL d   1      56.343  48.200  49.874  0.00  0.00     0.102 C 
ATOM     19  C   UNL d   1      56.631  49.552  49.400  0.00  0.00     0.102 C 
ATOM     20  O   UNL d   1      57.553  48.337  51.008  0.00  0.00    -0.266 OA
ENDBRANCH  15  16
ENDBRANCH  14  15
ENDBRANCH   6  14
BRANCH   5  21
ATOM     21  C   UNL d   1      60.108  49.685  49.403  0.00  0.00     0.085 C 
BRANCH  21  22
ATOM     22  C   UNL d   1      60.834  49.623  49.022  0.00  0.00     0.019 C 
ATOM     23  C   UNL d   1      61.519  49.531  49.451  0.00  0.00     0.002 C 
ENDBRANCH  21  22
ENDBRANCH   5  21
TORSDOF 5
ENDMDL
