MODEL 1
REMARK VINA RESULT:      -0.7      0.000      0.000
REMARK  8 active torsions:
REMARK  status: ('A' for Active; 'I' for Inactive)
REMARK    1  A    between atoms: C_6  and  C_1 
REMARK    2  A    between atoms: C_7  and  C_3 
REMARK       I    between atoms: N_10  and  C_6 
REMARK    3  A    between atoms: O_12  and  C_7 
REMARK    4  A    between atoms: C_20  and  N_10 
REMARK    5  A    between atoms: C_23  and  O_12 
REMARK    6  A    between atoms: O_21  and  C_14 
REMARK    7  A    between atoms: C_15  and  C_22 
REMARK    8  A    between atoms: C_22  and  C_20 
ROOT
ATOM      1  C   UNL d   1      58.997  -0.356  30.068  0.00  0.00     0.075 A 
ATOM      2  C   UNL d   1      59.215  -0.970  29.562  0.00  0.00     0.027 A 
ATOM      3  C   UNL d   1      60.034  -0.967  29.489  0.00  0.00     0.121 A 
ATOM      4  N   UNL d   1      60.329  -0.341  29.956  0.00  0.00    -0.349 N 
ATOM      5  C   UNL d   1      59.686   0.031  30.310  0.00  0.00     0.061 A 
ATOM      6  C   UNL d   1      58.700  -1.498  29.193  0.00  0.00     0.002 C 
ATOM      7  C   UNL d   1      59.721   0.682  30.821  0.00  0.00     0.019 C 
ATOM      8  H   UNL d   1      61.124  -0.137  30.044  0.00  0.00     0.166 HD
ENDROOT
BRANCH   1   9
ATOM      9  C   UNL d   1      58.230  -0.163  30.291  0.00  0.00     0.281 C 
ATOM     10  O   UNL d   1      57.762   0.306  29.802  0.00  0.00    -0.265 OA
ATOM     11  N   UNL d   1      57.923  -0.438  31.007  0.00  0.00    -0.206 NA
BRANCH  11  12
ATOM     12  C   UNL d   1      57.156  -0.245  31.230  0.00  0.00     0.102 C 
BRANCH  12  13
ATOM     13  C   UNL d   1      56.743  -0.727  31.752  0.00  0.00     0.021 C 
BRANCH  13  14
ATOM     14  C   UNL d   1      56.341  -0.402  32.388  0.00  0.00     0.002 A 
ATOM     15  C   UNL d   1      55.721  -0.814  32.754  0.00  0.00     0.002 A 
ATOM     16  C   UNL d   1      55.320  -0.489  33.389  0.00  0.00     0.024 A 
ATOM     17  C   UNL d   1      55.531   0.262  33.677  0.00  0.00     0.094 A 
ATOM     18  C   UNL d   1      56.148   0.682  33.321  0.00  0.00     0.024 A 
ATOM     19  C   UNL d   1      56.552   0.348  32.676  0.00  0.00     0.002 A 
BRANCH  17  20
ATOM     20  O   UNL d   1      55.126   0.588  34.317  0.00  0.00    -0.328 OA
ATOM     21  C   UNL d   1      55.485   0.614  35.062  0.00  0.00     0.181 C 
ENDBRANCH  17  20
ENDBRANCH  13  14
ENDBRANCH  12  13
ENDBRANCH  11  12
ENDBRANCH   1   9
BRANCH   3  22
ATOM     22  C   UNL d   1      60.494  -1.486  29.037  0.00  0.00     0.316 C 
ATOM     23  O   UNL d   1      61.037  -1.194  28.490  0.00  0.00    -0.257 OA
BRANCH  22  24
ATOM     24  O   UNL d   1      60.402  -2.296  29.140  0.00  0.00    -0.270 OA
BRANCH  24  25
ATOM     25  C   UNL d   1      61.025  -2.806  28.954  0.00  0.00     0.126 C 
ATOM     26  C   UNL d   1      61.109  -3.519  29.352  0.00  0.00     0.029 C 
ENDBRANCH  24  25
ENDBRANCH  22  24
ENDBRANCH   3  22
TORSDOF 8
ENDMDL
MODEL 2
REMARK VINA RESULT:       0.6      1.166      1.687
REMARK  8 active torsions:
REMARK  status: ('A' for Active; 'I' for Inactive)
REMARK    1  A    between atoms: C_6  and  C_1 
REMARK    2  A    between atoms: C_7  and  C_3 
REMARK       I    between atoms: N_10  and  C_6 
REMARK    3  A    between atoms: O_12  and  C_7 
REMARK    4  A    between atoms: C_20  and  N_10 
REMARK    5  A    between atoms: C_23  and  O_12 
REMARK    6  A    between atoms: O_21  and  C_14 
REMARK    7  A    between atoms: C_15  and  C_22 
REMARK    8  A    between atoms: C_22  and  C_20 
ROOT
ATOM      1  C   UNL d   1      59.054  -1.430  29.382  0.00  0.00     0.075 A 
ATOM      2  C   UNL d   1      58.850  -2.201  29.169  0.00  0.00     0.027 A 
ATOM      3  C   UNL d   1      59.542  -2.628  29.047  0.00  0.00     0.121 A 
ATOM      4  N   UNL d   1      60.186  -2.116  29.187  0.00  0.00    -0.349 N 
ATOM      5  C   UNL d   1      59.880  -1.380  29.393  0.00  0.00     0.061 A 
ATOM      6  C   UNL d   1      58.083  -2.492  29.091  0.00  0.00     0.002 C 
ATOM      7  C   UNL d   1      60.321  -0.704  29.579  0.00  0.00     0.019 C 
ATOM      8  H   UNL d   1      60.985  -2.315  29.128  0.00  0.00     0.166 HD
ENDROOT
BRANCH   1   9
ATOM      9  C   UNL d   1      58.530  -0.821  29.554  0.00  0.00     0.281 C 
ATOM     10  O   UNL d   1      58.075  -0.486  28.955  0.00  0.00    -0.265 OA
ATOM     11  N   UNL d   1      58.456  -0.540  30.327  0.00  0.00    -0.206 NA
BRANCH  11  12
ATOM     12  C   UNL d   1      57.932   0.069  30.498  0.00  0.00     0.102 C 
BRANCH  12  13
ATOM     13  C   UNL d   1      58.027   0.517  31.181  0.00  0.00     0.021 C 
BRANCH  13  14
ATOM     14  C   UNL d   1      57.515   0.424  31.813  0.00  0.00     0.002 A 
ATOM     15  C   UNL d   1      57.728   0.680  32.573  0.00  0.00     0.002 A 
ATOM     16  C   UNL d   1      57.216   0.586  33.205  0.00  0.00     0.024 A 
ATOM     17  C   UNL d   1      56.473   0.232  33.091  0.00  0.00     0.094 A 
ATOM     18  C   UNL d   1      56.249  -0.027  32.339  0.00  0.00     0.024 A 
ATOM     19  C   UNL d   1      56.772   0.070  31.700  0.00  0.00     0.002 A 
BRANCH  17  20
ATOM     20  O   UNL d   1      55.958   0.139  33.729  0.00  0.00    -0.328 OA
ATOM     21  C   UNL d   1      55.312   0.648  33.816  0.00  0.00     0.181 C 
ENDBRANCH  17  20
ENDBRANCH  13  14
ENDBRANCH  12  13
ENDBRANCH  11  12
ENDBRANCH   1   9
BRANCH   3  22
ATOM     22  C   UNL d   1      59.602  -3.424  28.826  0.00  0.00     0.316 C 
ATOM     23  O   UNL d   1      58.943  -3.827  28.538  0.00  0.00    -0.257 OA
BRANCH  22  24
ATOM     24  O   UNL d   1      60.326  -3.806  28.897  0.00  0.00    -0.270 OA
BRANCH  24  25
ATOM     25  C   UNL d   1      60.399  -4.593  28.655  0.00  0.00     0.126 C 
ATOM     26  C   UNL d   1      61.133  -4.897  28.455  0.00  0.00     0.029 C 
ENDBRANCH  24  25
ENDBRANCH  22  24
ENDBRANCH   3  22
TORSDOF 8
ENDMDL
