MODEL 1
REMARK VINA RESULT:      50.2      0.000      0.000
REMARK  3 active torsions:
REMARK  status: ('A' for Active; 'I' for Inactive)
REMARK    1  A    between atoms: C_4  and  C_1 
REMARK    2  A    between atoms: C_8  and  C_3 
REMARK    3  A    between atoms: O_20  and  C_16 
ROOT
ATOM      1  C   UNL d   1     -50.765  25.249  33.569  0.00  0.00     0.107 A 
ATOM      2  N   UNL d   1     -49.967  25.364  33.389  0.00  0.00    -0.148 NA
ATOM      3  C   UNL d   1     -50.895  24.442  33.623  0.00  0.00     0.039 A 
ATOM      4  N   UNL d   1     -49.602  24.620  33.332  0.00  0.00    -0.148 NA
ATOM      5  C   UNL d   1     -50.164  24.037  33.474  0.00  0.00     0.104 A 
ATOM      6  C   UNL d   1     -50.032  23.223  33.471  0.00  0.00     0.023 C 
ENDROOT
BRANCH   1   7
ATOM      7  C   UNL d   1     -51.299  25.866  33.668  0.00  0.00     0.059 A 
ATOM      8  C   UNL d   1     -51.096  26.515  34.124  0.00  0.00     0.200 A 
ATOM      9  C   UNL d   1     -51.628  27.134  34.225  0.00  0.00     0.084 A 
ATOM     10  O   UNL d   1     -50.330  26.556  34.500  0.00  0.00    -0.286 OA
ATOM     11  C   UNL d   1     -52.379  27.089  33.853  0.00  0.00     0.199 A 
ATOM     12  C   UNL d   1     -52.581  26.441  33.398  0.00  0.00     0.042 A 
ATOM     13  O   UNL d   1     -52.946  27.720  33.945  0.00  0.00    -0.286 OA
ATOM     14  C   UNL d   1     -52.028  25.827  33.309  0.00  0.00     0.008 A 
ENDBRANCH   1   7
BRANCH   3  15
ATOM     15  C   UNL d   1     -51.676  24.150  33.805  0.00  0.00     0.003 A 
ATOM     16  C   UNL d   1     -52.315  24.324  33.318  0.00  0.00     0.002 A 
ATOM     17  C   UNL d   1     -53.078  24.027  33.513  0.00  0.00     0.024 A 
ATOM     18  C   UNL d   1     -53.168  23.569  34.186  0.00  0.00     0.094 A 
ATOM     19  C   UNL d   1     -52.528  23.384  34.690  0.00  0.00     0.024 A 
ATOM     20  C   UNL d   1     -51.765  23.681  34.495  0.00  0.00     0.002 A 
BRANCH  18  21
ATOM     21  O   UNL d   1     -53.932  23.272  34.381  0.00  0.00    -0.328 OA
ATOM     22  C   UNL d   1     -54.498  23.190  33.770  0.00  0.00     0.181 C 
ENDBRANCH  18  21
ENDBRANCH   3  15
TORSDOF 3
ENDMDL
