MODEL 1
REMARK VINA RESULT:      -3.1      0.000      0.000
REMARK  2 active torsions:
REMARK  status: ('A' for Active; 'I' for Inactive)
REMARK    1  A    between atoms: C_3  and  C_1 
REMARK       I    between atoms: C_2  and  N_4 
REMARK    2  A    between atoms: N_4  and  C_12 
ROOT
ATOM      1  C   UNL d   1      32.714  23.141 -18.141  0.00  0.00     0.072 A 
ATOM      2  C   UNL d   1      33.125  22.482 -18.423  0.00  0.00     0.005 A 
ATOM      3  C   UNL d   1      32.420  23.702 -18.671  0.00  0.00     0.005 A 
ATOM      4  C   UNL d   1      32.946  22.947 -19.764  0.00  0.00     0.100 A 
ATOM      5  C   UNL d   1      33.241  22.386 -19.234  0.00  0.00     0.020 A 
ATOM      6  C   UNL d   1      32.536  23.605 -19.482  0.00  0.00     0.020 A 
ENDROOT
BRANCH   1   7
ATOM      7  C   UNL d   1      32.598  23.239 -17.327  0.00  0.00     0.419 C 
ATOM      8  F   UNL d   1      32.492  23.328 -16.588  0.00  0.00    -0.166 F 
ATOM      9  F   UNL d   1      31.918  23.017 -16.838  0.00  0.00    -0.166 F 
ATOM     10  F   UNL d   1      33.123  23.591 -16.739  0.00  0.00    -0.166 F 
ENDBRANCH   1   7
BRANCH   4  11
ATOM     11  N   UNL d   1      33.060  22.855 -20.577  0.00  0.00    -0.056 NA
ATOM     12  C   UNL d   1      32.561  22.359 -21.016  0.00  0.00     0.787 C 
ATOM     13  N   UNL d   1      32.670  22.264 -21.828  0.00  0.00     0.064 N 
ATOM     14  N   UNL d   1      31.949  21.959 -20.631  0.00  0.00     0.064 N 
ENDBRANCH   4  11
TORSDOF 2
ENDMDL
MODEL 2
REMARK VINA RESULT:      -3.0      8.456      9.053
REMARK  2 active torsions:
REMARK  status: ('A' for Active; 'I' for Inactive)
REMARK    1  A    between atoms: C_3  and  C_1 
REMARK       I    between atoms: C_2  and  N_4 
REMARK    2  A    between atoms: N_4  and  C_12 
ROOT
ATOM      1  C   UNL d   1      28.970  16.125 -23.506  0.00  0.00     0.072 A 
ATOM      2  C   UNL d   1      29.361  16.366 -24.193  0.00  0.00     0.005 A 
ATOM      3  C   UNL d   1      29.365  15.669 -22.942  0.00  0.00     0.005 A 
ATOM      4  C   UNL d   1      30.544  15.693 -23.750  0.00  0.00     0.100 A 
ATOM      5  C   UNL d   1      30.148  16.149 -24.314  0.00  0.00     0.020 A 
ATOM      6  C   UNL d   1      30.153  15.453 -23.065  0.00  0.00     0.020 A 
ENDROOT
BRANCH   1   7
ATOM      7  C   UNL d   1      28.179  16.342 -23.383  0.00  0.00     0.419 C 
ATOM      8  F   UNL d   1      27.462  16.538 -23.271  0.00  0.00    -0.166 F 
ATOM      9  F   UNL d   1      27.854  17.088 -23.090  0.00  0.00    -0.166 F 
ATOM     10  F   UNL d   1      27.461  15.881 -23.513  0.00  0.00    -0.166 F 
ENDBRANCH   1   7
BRANCH   4  11
ATOM     11  N   UNL d   1      31.332  15.474 -23.868  0.00  0.00    -0.056 NA
ATOM     12  C   UNL d   1      31.945  16.000 -23.684  0.00  0.00     0.787 C 
ATOM     13  N   UNL d   1      32.733  15.786 -23.800  0.00  0.00     0.064 N 
ATOM     14  N   UNL d   1      31.759  16.747 -23.381  0.00  0.00     0.064 N 
ENDBRANCH   4  11
TORSDOF 2
ENDMDL
MODEL 3
REMARK VINA RESULT:      -2.2      3.662      4.527
REMARK  2 active torsions:
REMARK  status: ('A' for Active; 'I' for Inactive)
REMARK    1  A    between atoms: C_3  and  C_1 
REMARK       I    between atoms: C_2  and  N_4 
REMARK    2  A    between atoms: N_4  and  C_12 
ROOT
ATOM      1  C   UNL d   1      33.091  20.358 -22.042  0.00  0.00     0.072 A 
ATOM      2  C   UNL d   1      33.019  20.310 -21.220  0.00  0.00     0.005 A 
ATOM      3  C   UNL d   1      33.201  21.092 -22.405  0.00  0.00     0.005 A 
ATOM      4  C   UNL d   1      33.169  21.730 -21.127  0.00  0.00     0.100 A 
ATOM      5  C   UNL d   1      33.058  20.996 -20.763  0.00  0.00     0.020 A 
ATOM      6  C   UNL d   1      33.241  21.778 -21.947  0.00  0.00     0.020 A 
ENDROOT
BRANCH   1   7
ATOM      7  C   UNL d   1      33.051  19.670 -22.502  0.00  0.00     0.419 C 
ATOM      8  F   UNL d   1      33.015  19.047 -22.920  0.00  0.00    -0.166 F 
ATOM      9  F   UNL d   1      33.046  18.842 -22.252  0.00  0.00    -0.166 F 
ATOM     10  F   UNL d   1      33.004  19.591 -23.360  0.00  0.00    -0.166 F 
ENDBRANCH   1   7
BRANCH   4  11
ATOM     11  N   UNL d   1      33.209  22.419 -20.672  0.00  0.00    -0.056 NA
ATOM     12  C   UNL d   1      32.536  22.890 -20.565  0.00  0.00     0.787 C 
ATOM     13  N   UNL d   1      32.571  23.579 -20.113  0.00  0.00     0.064 N 
ATOM     14  N   UNL d   1      31.823  22.662 -20.917  0.00  0.00     0.064 N 
ENDBRANCH   4  11
TORSDOF 2
ENDMDL
MODEL 4
REMARK VINA RESULT:      -2.2      3.070      3.807
REMARK  2 active torsions:
REMARK  status: ('A' for Active; 'I' for Inactive)
REMARK    1  A    between atoms: C_3  and  C_1 
REMARK       I    between atoms: C_2  and  N_4 
REMARK    2  A    between atoms: N_4  and  C_12 
ROOT
ATOM      1  C   UNL d   1      32.733  22.666 -21.421  0.00  0.00     0.072 A 
ATOM      2  C   UNL d   1      32.224  22.313 -20.875  0.00  0.00     0.005 A 
ATOM      3  C   UNL d   1      33.135  23.360 -21.224  0.00  0.00     0.005 A 
ATOM      4  C   UNL d   1      32.519  23.351 -19.935  0.00  0.00     0.100 A 
ATOM      5  C   UNL d   1      32.117  22.656 -20.132  0.00  0.00     0.020 A 
ATOM      6  C   UNL d   1      33.027  23.702 -20.481  0.00  0.00     0.020 A 
ENDROOT
BRANCH   1   7
ATOM      7  C   UNL d   1      32.841  22.322 -22.168  0.00  0.00     0.419 C 
ATOM      8  F   UNL d   1      32.940  22.010 -22.845  0.00  0.00    -0.166 F 
ATOM      9  F   UNL d   1      32.640  22.633 -22.950  0.00  0.00    -0.166 F 
ATOM     10  F   UNL d   1      33.186  21.557 -22.371  0.00  0.00    -0.166 F 
ENDBRANCH   1   7
BRANCH   4  11
ATOM     11  N   UNL d   1      32.414  23.697 -19.192  0.00  0.00    -0.056 NA
ATOM     12  C   UNL d   1      32.737  23.343 -18.516  0.00  0.00     0.787 C 
ATOM     13  N   UNL d   1      32.636  23.686 -17.772  0.00  0.00     0.064 N 
ATOM     14  N   UNL d   1      33.164  22.639 -18.593  0.00  0.00     0.064 N 
ENDBRANCH   4  11
TORSDOF 2
ENDMDL
MODEL 5
REMARK VINA RESULT:      -2.0      4.548      5.562
REMARK  2 active torsions:
REMARK  status: ('A' for Active; 'I' for Inactive)
REMARK    1  A    between atoms: C_3  and  C_1 
REMARK       I    between atoms: C_2  and  N_4 
REMARK    2  A    between atoms: N_4  and  C_12 
ROOT
ATOM      1  C   UNL d   1      32.918  19.888 -22.325  0.00  0.00     0.072 A 
ATOM      2  C   UNL d   1      32.797  19.942 -23.141  0.00  0.00     0.005 A 
ATOM      3  C   UNL d   1      33.139  19.169 -21.986  0.00  0.00     0.005 A 
ATOM      4  C   UNL d   1      33.120  18.555 -23.276  0.00  0.00     0.100 A 
ATOM      5  C   UNL d   1      32.898  19.274 -23.615  0.00  0.00     0.020 A 
ATOM      6  C   UNL d   1      33.241  18.502 -22.462  0.00  0.00     0.020 A 
ENDROOT
BRANCH   1   7
ATOM      7  C   UNL d   1      32.816  20.558 -21.847  0.00  0.00     0.419 C 
ATOM      8  F   UNL d   1      32.724  21.164 -21.413  0.00  0.00    -0.166 F 
ATOM      9  F   UNL d   1      33.241  21.312 -21.860  0.00  0.00    -0.166 F 
ATOM     10  F   UNL d   1      32.257  20.687 -21.202  0.00  0.00    -0.166 F 
ENDBRANCH   1   7
BRANCH   4  11
ATOM     11  N   UNL d   1      33.223  17.884 -23.748  0.00  0.00    -0.056 NA
ATOM     12  C   UNL d   1      32.578  17.398 -23.931  0.00  0.00     0.787 C 
ATOM     13  N   UNL d   1      32.675  16.727 -24.402  0.00  0.00     0.064 N 
ATOM     14  N   UNL d   1      31.830  17.590 -23.635  0.00  0.00     0.064 N 
ENDBRANCH   4  11
TORSDOF 2
ENDMDL
MODEL 6
REMARK VINA RESULT:      -1.6      7.277      8.203
REMARK  2 active torsions:
REMARK  status: ('A' for Active; 'I' for Inactive)
REMARK    1  A    between atoms: C_3  and  C_1 
REMARK       I    between atoms: C_2  and  N_4 
REMARK    2  A    between atoms: N_4  and  C_12 
ROOT
ATOM      1  C   UNL d   1      31.823  17.390 -23.861  0.00  0.00     0.072 A 
ATOM      2  C   UNL d   1      31.759  16.609 -23.601  0.00  0.00     0.005 A 
ATOM      3  C   UNL d   1      31.274  17.693 -24.399  0.00  0.00     0.005 A 
ATOM      4  C   UNL d   1      30.598  16.435 -24.419  0.00  0.00     0.100 A 
ATOM      5  C   UNL d   1      31.146  16.132 -23.880  0.00  0.00     0.020 A 
ATOM      6  C   UNL d   1      30.662  17.215 -24.678  0.00  0.00     0.020 A 
ENDROOT
BRANCH   1   7
ATOM      7  C   UNL d   1      32.437  17.871 -23.581  0.00  0.00     0.419 C 
ATOM      8  F   UNL d   1      32.994  18.307 -23.326  0.00  0.00    -0.166 F 
ATOM      9  F   UNL d   1      33.199  18.057 -23.946  0.00  0.00    -0.166 F 
ATOM     10  F   UNL d   1      32.486  18.320 -22.845  0.00  0.00    -0.166 F 
ENDBRANCH   1   7
BRANCH   4  11
ATOM     11  N   UNL d   1      29.983  15.960 -24.701  0.00  0.00    -0.056 NA
ATOM     12  C   UNL d   1      29.261  15.925 -24.296  0.00  0.00     0.787 C 
ATOM     13  N   UNL d   1      28.645  15.452 -24.575  0.00  0.00     0.064 N 
ATOM     14  N   UNL d   1      29.163  16.370 -23.606  0.00  0.00     0.064 N 
ENDBRANCH   4  11
TORSDOF 2
ENDMDL
