MODEL 1
REMARK VINA RESULT:      35.9      0.000      0.000
REMARK  3 active torsions:
REMARK  status: ('A' for Active; 'I' for Inactive)
REMARK    1  A    between atoms: N_5  and  C_2 
REMARK    2  A    between atoms: C_8  and  C_3 
REMARK       I    between atoms: C_7  and  N_5 
REMARK    3  A    between atoms: C_10  and  C_7 
ROOT
ATOM      1  N   UNL d   1     -54.796-101.707 -38.705  0.00  0.00    -0.200 NA
ATOM      2  C   UNL d   1     -54.918-102.153 -39.379  0.00  0.00     0.216 A 
ATOM      3  C   UNL d   1     -55.054-102.147 -38.049  0.00  0.00     0.172 A 
ATOM      4  N   UNL d   1     -55.337-102.870 -38.331  0.00  0.00    -0.187 NA
ATOM      5  S   UNL d   1     -55.255-102.879 -39.157  0.00  0.00     0.054 SA
ENDROOT
BRANCH   2   6
ATOM      6  N   UNL d   1     -54.738-101.923 -40.150  0.00  0.00    -0.181 NA
ATOM      7  C   UNL d   1     -55.254-102.105 -40.762  0.00  0.00     0.281 C 
ATOM      8  O   UNL d   1     -55.950-102.518 -40.606  0.00  0.00    -0.265 OA
BRANCH   7   9
ATOM      9  C   UNL d   1     -55.076-101.877 -41.525  0.00  0.00     0.058 A 
ATOM     10  C   UNL d   1     -54.976-102.443 -42.121  0.00  0.00     0.005 A 
ATOM     11  C   UNL d   1     -54.796-102.213 -42.893  0.00  0.00     0.000 A 
ATOM     12  C   UNL d   1     -54.716-101.417 -43.068  0.00  0.00     0.000 A 
ATOM     13  C   UNL d   1     -54.812-100.847 -42.488  0.00  0.00     0.000 A 
ATOM     14  C   UNL d   1     -54.993-101.079 -41.709  0.00  0.00     0.005 A 
ENDBRANCH   7   9
ENDBRANCH   2   6
BRANCH   3  15
ATOM     15  C   UNL d   1     -55.035-101.912 -37.267  0.00  0.00     0.036 A 
ATOM     16  C   UNL d   1     -54.768-101.157 -37.071  0.00  0.00     0.003 A 
ATOM     17  C   UNL d   1     -54.747-100.917 -36.278  0.00  0.00     0.000 A 
ATOM     18  C   UNL d   1     -54.994-101.437 -35.684  0.00  0.00     0.000 A 
ATOM     19  C   UNL d   1     -55.263-102.196 -35.881  0.00  0.00     0.000 A 
ATOM     20  C   UNL d   1     -55.281-102.431 -36.678  0.00  0.00     0.003 A 
ENDBRANCH   3  15
TORSDOF 3
ENDMDL
