MODEL 1
REMARK VINA RESULT:      46.8      0.000      0.000
REMARK  9 active torsions:
REMARK  status: ('A' for Active; 'I' for Inactive)
REMARK       I    between atoms: C_9  and  N_1 
REMARK       I    between atoms: N_2  and  C_10 
REMARK    1  A    between atoms: C_17  and  C_9 
REMARK    2  A    between atoms: C_10  and  C_18 
REMARK    3  A    between atoms: C_21  and  C_17 
REMARK    4  A    between atoms: C_18  and  C_22 
REMARK    5  A    between atoms: C_24  and  C_21 
REMARK    6  A    between atoms: C_22  and  C_23 
REMARK    7  A    between atoms: C_23  and  C_26 
REMARK    8  A    between atoms: C_25  and  C_24 
REMARK    9  A    between atoms: C_26  and  C_25 
ROOT
ATOM      1  C   UNL d   1     -54.931-102.598 -40.595  0.00  0.00     0.000 C 
ENDROOT
BRANCH   1   2
ATOM      2  C   UNL d   1     -54.983-102.281 -39.827  0.00  0.00     0.000 C 
BRANCH   2   3
ATOM      3  C   UNL d   1     -55.346-102.716 -39.230  0.00  0.00     0.005 C 
BRANCH   3   4
ATOM      4  C   UNL d   1     -55.385-102.414 -38.463  0.00  0.00     0.063 C 
BRANCH   4   5
ATOM      5  C   UNL d   1     -55.216-101.618 -38.325  0.00  0.00     0.280 C 
ATOM      6  N   UNL d   1     -55.123-101.343 -37.556  0.00  0.00    -0.195 N 
ATOM      7  N   UNL d   1     -54.955-100.550 -37.415  0.00  0.00    -0.163 NA
ATOM      8  C   UNL d   1     -55.166-101.721 -36.824  0.00  0.00     0.088 A 
ATOM      9  C   UNL d   1     -54.893-100.437 -36.603  0.00  0.00     0.103 A 
ATOM     10  C   UNL d   1     -54.728 -99.720 -36.221  0.00  0.00     0.022 C 
ATOM     11  C   UNL d   1     -55.025-101.165 -36.240  0.00  0.00     0.040 A 
ATOM     12  C   UNL d   1     -55.324-102.522 -36.703  0.00  0.00     0.021 C 
ATOM     13  O   UNL d   1     -55.137-101.088 -38.956  0.00  0.00    -0.265 OA
ENDBRANCH   4   5
ENDBRANCH   3   4
ENDBRANCH   2   3
ENDBRANCH   1   2
BRANCH   1  14
ATOM     14  C   UNL d   1     -54.790-102.094 -41.234  0.00  0.00     0.000 C 
BRANCH  14  15
ATOM     15  C   UNL d   1     -55.293-102.109 -41.896  0.00  0.00     0.000 C 
BRANCH  15  16
ATOM     16  C   UNL d   1     -54.985-102.036 -42.655  0.00  0.00     0.005 C 
BRANCH  16  17
ATOM     17  C   UNL d   1     -54.736-101.300 -42.932  0.00  0.00     0.063 C 
BRANCH  17  18
ATOM     18  C   UNL d   1     -54.907-101.066 -43.700  0.00  0.00     0.280 C 
ATOM     19  N   UNL d   1     -55.241-100.326 -43.847  0.00  0.00    -0.195 N 
ATOM     20  N   UNL d   1     -55.442-100.015 -44.582  0.00  0.00    -0.163 NA
ATOM     21  C   UNL d   1     -55.437 -99.755 -43.275  0.00  0.00     0.088 A 
ATOM     22  C   UNL d   1     -55.759 -99.262 -44.471  0.00  0.00     0.103 A 
ATOM     23  C   UNL d   1     -56.031 -98.759 -45.068  0.00  0.00     0.022 C 
ATOM     24  C   UNL d   1     -55.754 -99.103 -43.659  0.00  0.00     0.040 A 
ATOM     25  C   UNL d   1     -55.327 -99.835 -42.456  0.00  0.00     0.021 C 
ATOM     26  O   UNL d   1     -54.744-101.575 -44.331  0.00  0.00    -0.265 OA
ENDBRANCH  17  18
ENDBRANCH  16  17
ENDBRANCH  15  16
ENDBRANCH  14  15
ENDBRANCH   1  14
TORSDOF 9
ENDMDL
