MODEL 1
REMARK VINA RESULT:      20.2      0.000      0.000
REMARK  2 active torsions:
REMARK  status: ('A' for Active; 'I' for Inactive)
REMARK    1  A    between atoms: C_5  and  N_1 
REMARK    2  A    between atoms: C_7  and  C_5 
ROOT
ATOM      1  N   UNL d   1     -57.999 -98.762 -45.101  0.00  0.00    -0.288 N 
ATOM      2  C   UNL d   1     -58.424 -98.756 -45.803  0.00  0.00     0.183 A 
ATOM      3  N   UNL d   1     -59.248 -98.756 -45.600  0.00  0.00    -0.224 NA
ATOM      4  C   UNL d   1     -58.509 -98.766 -44.478  0.00  0.00     0.083 A 
ATOM      5  C   UNL d   1     -59.302 -98.763 -44.794  0.00  0.00     0.099 A 
ATOM      6  C   UNL d   1     -58.391 -98.773 -43.662  0.00  0.00     0.019 A 
ATOM      7  C   UNL d   1     -59.933 -98.766 -44.245  0.00  0.00     0.021 A 
ATOM      8  C   UNL d   1     -59.038 -98.776 -43.151  0.00  0.00     0.002 A 
ATOM      9  C   UNL d   1     -59.805 -98.772 -43.456  0.00  0.00     0.002 A 
ENDROOT
BRANCH   1  10
ATOM     10  C   UNL d   1     -57.517 -98.768 -44.465  0.00  0.00     0.066 C 
ATOM     11  C   UNL d   1     -57.822 -98.755 -43.699  0.00  0.00     0.019 C 
BRANCH  10  12
ATOM     12  C   UNL d   1     -56.701 -98.787 -44.584  0.00  0.00     0.016 A 
ATOM     13  C   UNL d   1     -56.192 -98.828 -43.936  0.00  0.00     0.001 A 
ATOM     14  C   UNL d   1     -55.375 -98.846 -44.054  0.00  0.00     0.000 A 
ATOM     15  C   UNL d   1     -55.065 -98.824 -44.823  0.00  0.00     0.000 A 
ATOM     16  C   UNL d   1     -55.574 -98.783 -45.470  0.00  0.00     0.000 A 
ATOM     17  C   UNL d   1     -56.394 -98.764 -45.349  0.00  0.00     0.001 A 
ENDBRANCH  10  12
ENDBRANCH   1  10
TORSDOF 2
ENDMDL
