MODEL 1
REMARK VINA RESULT:      74.9      0.000      0.000
REMARK  6 active torsions:
REMARK  status: ('A' for Active; 'I' for Inactive)
REMARK    1  A    between atoms: C_4  and  S_1 
REMARK    2  A    between atoms: C_5  and  S_1 
REMARK    3  A    between atoms: C_2  and  N_7 
REMARK    4  A    between atoms: N_3  and  C_2 
REMARK    5  A    between atoms: C_8  and  N_6 
REMARK    6  A    between atoms: N_7  and  C_14 
ROOT
ATOM      1  C   UNL d   1      60.263  48.841  51.827  0.00  0.00     0.206 C 
ATOM      2  S   UNL d   1      60.110  48.790  52.638  0.00  0.00    -0.038 SA
ENDROOT
BRANCH   1   3
ATOM      3  N   UNL d   1      60.165  49.558  51.432  0.00  0.00    -0.218 NA
BRANCH   3   4
ATOM      4  C   UNL d   1      59.656  49.605  50.785  0.00  0.00     0.085 A 
ATOM      5  C   UNL d   1      58.839  49.610  50.903  0.00  0.00     0.031 A 
ATOM      6  C   UNL d   1      58.329  49.657  50.260  0.00  0.00     0.094 A 
ATOM      7  C   UNL d   1      58.638  49.700  49.489  0.00  0.00     0.012 A 
ATOM      8  C   UNL d   1      59.454  49.695  49.371  0.00  0.00     0.002 A 
ATOM      9  C   UNL d   1      59.962  49.648  50.022  0.00  0.00     0.019 A 
BRANCH   6  10
ATOM     10  S   UNL d   1      57.505  49.661  50.375  0.00  0.00     0.262 S 
ATOM     11  O   UNL d   1      57.624  49.699  51.190  0.00  0.00    -0.213 OA
ATOM     12  O   UNL d   1      57.400  49.623  49.553  0.00  0.00    -0.213 OA
BRANCH  10  13
ATOM     13  C   UNL d   1      56.687  49.666  50.485  0.00  0.00     0.364 C 
ATOM     14  F   UNL d   1      56.181  49.654  49.831  0.00  0.00    -0.159 F 
ATOM     15  F   UNL d   1      56.372  49.682  51.252  0.00  0.00    -0.159 F 
ENDBRANCH  10  13
ENDBRANCH   6  10
ENDBRANCH   3   4
ENDBRANCH   1   3
BRANCH   1  16
ATOM     16  N   UNL d   1      60.514  48.170  51.411  0.00  0.00    -0.278 N 
ATOM     17  C   UNL d   1      60.035  47.496  51.388  0.00  0.00     0.101 A 
ATOM     18  C   UNL d   1      60.287  46.833  50.975  0.00  0.00     0.100 A 
ATOM     19  N   UNL d   1      61.010  46.830  50.585  0.00  0.00    -0.301 N 
ATOM     20  C   UNL d   1      61.494  47.500  50.604  0.00  0.00     0.100 A 
ATOM     21  C   UNL d   1      61.241  48.173  51.021  0.00  0.00     0.101 A 
BRANCH  19  22
ATOM     22  C   UNL d   1      61.260  46.153  50.167  0.00  0.00     0.065 A 
ATOM     23  C   UNL d   1      61.296  45.421  50.548  0.00  0.00     0.029 A 
ATOM     24  C   UNL d   1      61.544  44.751  50.135  0.00  0.00     0.059 A 
ATOM     25 CL   UNL d   1      61.579  44.019  50.516  0.00  0.00    -0.082 Cl
ATOM     26  C   UNL d   1      61.756  44.814  49.340  0.00  0.00     0.011 A 
ATOM     27  C   UNL d   1      61.721  45.546  48.959  0.00  0.00     0.002 A 
ATOM     28  C   UNL d   1      61.473  46.217  49.372  0.00  0.00     0.018 A 
ENDBRANCH  19  22
ENDBRANCH   1  16
TORSDOF 6
ENDMDL
