MODEL 1
REMARK VINA RESULT:       1.8      0.000      0.000
REMARK  6 active torsions:
REMARK  status: ('A' for Active; 'I' for Inactive)
REMARK    1  A    between atoms: C_4  and  N_1 
REMARK    2  A    between atoms: C_7  and  C_3 
REMARK    3  A    between atoms: N_13  and  C_4 
REMARK    4  A    between atoms: C_16  and  N_13 
REMARK    5  A    between atoms: C_20  and  C_16 
REMARK    6  A    between atoms: C_17  and  C_20 
ROOT
ATOM      1  N   UNL d   1     -41.779-123.117 -49.882  0.00  0.00    -0.281 N 
ATOM      2  C   UNL d   1     -42.478-123.248 -48.657  0.00  0.00     0.080 A 
ATOM      3  C   UNL d   1     -42.454-122.994 -49.435  0.00  0.00     0.084 A 
ATOM      4  N   UNL d   1     -41.828-123.625 -48.326  0.00  0.00    -0.301 N 
ATOM      5  C   UNL d   1     -41.123-123.497 -49.549  0.00  0.00     0.101 A 
ATOM      6  C   UNL d   1     -43.069-123.204 -48.081  0.00  0.00     0.021 A 
ATOM      7  C   UNL d   1     -42.010-123.817 -47.544  0.00  0.00     0.080 A 
ATOM      8  C   UNL d   1     -41.155-123.749 -48.767  0.00  0.00     0.100 A 
ATOM      9  C   UNL d   1     -42.777-123.558 -47.388  0.00  0.00     0.021 A 
ENDROOT
BRANCH   1  10
ATOM     10  C   UNL d   1     -41.745-122.863 -50.669  0.00  0.00     0.184 C 
ATOM     11  S   UNL d   1     -41.499-122.101 -50.833  0.00  0.00    -0.040 SA
BRANCH  10  12
ATOM     12  N   UNL d   1     -41.954-123.370 -51.278  0.00  0.00    -0.330 N 
ATOM     13  H   UNL d   1     -42.636-123.830 -51.216  0.00  0.00     0.168 HD
BRANCH  12  14
ATOM     14  C   UNL d   1     -41.485-123.420 -51.950  0.00  0.00     0.074 C 
BRANCH  14  15
ATOM     15  C   UNL d   1     -41.794-123.680 -52.636  0.00  0.00     0.018 C 
BRANCH  15  16
ATOM     16  C   UNL d   1     -41.725-123.315 -53.375  0.00  0.00     0.002 A 
ATOM     17  C   UNL d   1     -41.195-123.625 -53.938  0.00  0.00     0.000 A 
ATOM     18  C   UNL d   1     -41.124-123.262 -54.676  0.00  0.00     0.000 A 
ATOM     19  C   UNL d   1     -41.577-122.592 -54.856  0.00  0.00     0.000 A 
ATOM     20  C   UNL d   1     -42.107-122.281 -54.293  0.00  0.00     0.000 A 
ATOM     21  C   UNL d   1     -42.174-122.650 -53.554  0.00  0.00     0.000 A 
ENDBRANCH  15  16
ENDBRANCH  14  15
ENDBRANCH  12  14
ENDBRANCH  10  12
ENDBRANCH   1  10
BRANCH   3  22
ATOM     22  C   UNL d   1     -43.106-122.615 -49.770  0.00  0.00     0.037 A 
ATOM     23  C   UNL d   1     -43.748-123.057 -50.038  0.00  0.00     0.100 A 
ATOM     24  N   UNL d   1     -44.394-122.672 -50.370  0.00  0.00    -0.242 NA
ATOM     25  C   UNL d   1     -44.409-121.866 -50.438  0.00  0.00     0.099 A 
ATOM     26  C   UNL d   1     -43.767-121.416 -50.171  0.00  0.00     0.021 A 
ATOM     27  C   UNL d   1     -43.116-121.795 -49.836  0.00  0.00     0.005 A 
ENDBRANCH   3  22
TORSDOF 6
ENDMDL
