MODEL 1
REMARK VINA RESULT:      25.2      0.000      0.000
REMARK  5 active torsions:
REMARK  status: ('A' for Active; 'I' for Inactive)
REMARK    1  A    between atoms: C_2  and  C_1 
REMARK       I    between atoms: N_5  and  C_1 
REMARK    2  A    between atoms: C_3  and  C_14 
REMARK    3  A    between atoms: C_12  and  N_5 
REMARK    4  A    between atoms: O_13  and  C_9 
REMARK    5  A    between atoms: C_14  and  C_12 
ROOT
ATOM      1  C   UNL d   1     -54.863-102.141 -39.464  0.00  0.00     0.279 C 
ATOM      2  O   UNL d   1     -54.737-101.431 -39.082  0.00  0.00    -0.265 OA
ATOM      3  N   UNL d   1     -54.863-102.854 -39.058  0.00  0.00    -0.206 NA
ENDROOT
BRANCH   1   4
ATOM      4  C   UNL d   1     -54.993-102.144 -40.279  0.00  0.00     0.058 A 
ATOM      5  C   UNL d   1     -54.718-101.533 -40.732  0.00  0.00     0.007 A 
ATOM      6  C   UNL d   1     -54.856-101.548 -41.557  0.00  0.00     0.024 A 
ATOM      7  C   UNL d   1     -55.250-102.148 -41.892  0.00  0.00     0.094 A 
ATOM      8  C   UNL d   1     -55.534-102.775 -41.431  0.00  0.00     0.024 A 
ATOM      9  C   UNL d   1     -55.405-102.775 -40.617  0.00  0.00     0.007 A 
BRANCH   7  10
ATOM     10  O   UNL d   1     -55.379-102.154 -42.689  0.00  0.00    -0.328 OA
ATOM     11  C   UNL d   1     -54.758-101.981 -43.212  0.00  0.00     0.181 C 
ENDBRANCH   7  10
ENDBRANCH   1   4
BRANCH   3  12
ATOM     12  C   UNL d   1     -54.731-102.838 -38.240  0.00  0.00     0.102 C 
BRANCH  12  13
ATOM     13  C   UNL d   1     -54.775-102.152 -37.830  0.00  0.00     0.021 C 
BRANCH  13  14
ATOM     14  C   UNL d   1     -54.905-102.154 -37.023  0.00  0.00     0.002 A 
ATOM     15  C   UNL d   1     -54.832-101.463 -36.588  0.00  0.00     0.000 A 
ATOM     16  C   UNL d   1     -54.963-101.465 -35.772  0.00  0.00     0.000 A 
ATOM     17  C   UNL d   1     -55.169-102.156 -35.375  0.00  0.00     0.000 A 
ATOM     18  C   UNL d   1     -55.243-102.856 -35.819  0.00  0.00     0.000 A 
ATOM     19  C   UNL d   1     -55.109-102.846 -36.643  0.00  0.00     0.000 A 
ENDBRANCH  13  14
ENDBRANCH  12  13
ENDBRANCH   3  12
TORSDOF 5
ENDMDL
