MODEL 1
REMARK VINA RESULT:      -8.8      0.000      0.000
REMARK  3 active torsions:
REMARK  status: ('A' for Active; 'I' for Inactive)
REMARK    1  A    between atoms: C_4  and  N_1 
REMARK    2  A    between atoms: C_6  and  C_4 
REMARK       I    between atoms: N_8  and  C_6 
REMARK    3  A    between atoms: C_10  and  N_8 
ROOT
ATOM      1  C   UNL d   1     -48.375  12.126  22.851  0.00  0.00     0.165 C 
ENDROOT
BRANCH   1   2
ATOM      2  N   UNL d   1     -47.627  12.378  23.104  0.00  0.00    -0.204 N 
ATOM      3  N   UNL d   1     -47.101  11.940  23.577  0.00  0.00    -0.059 NA
ATOM      4  N   UNL d   1     -46.424  12.396  23.697  0.00  0.00    -0.129 NA
ATOM      5  C   UNL d   1     -46.524  13.116  23.301  0.00  0.00     0.122 A 
ATOM      6  C   UNL d   1     -47.271  13.104  22.934  0.00  0.00     0.104 A 
ATOM      7  C   UNL d   1     -46.038  13.776  23.227  0.00  0.00     0.022 A 
ATOM      8  C   UNL d   1     -47.525  13.753  22.495  0.00  0.00     0.021 A 
ATOM      9  C   UNL d   1     -47.039  14.414  22.421  0.00  0.00     0.002 A 
ATOM     10  C   UNL d   1     -46.300  14.425  22.785  0.00  0.00     0.002 A 
ENDBRANCH   1   2
BRANCH   1  11
ATOM     11  C   UNL d   1     -48.647  11.386  22.608  0.00  0.00     0.299 C 
ATOM     12  N   UNL d   1     -49.464  11.466  22.561  0.00  0.00    -0.207 NA
ATOM     13  O   UNL d   1     -48.111  10.774  22.472  0.00  0.00    -0.263 OA
BRANCH  12  14
ATOM     14  C   UNL d   1     -49.996  12.080  22.698  0.00  0.00     0.085 A 
ATOM     15  C   UNL d   1     -50.264  12.542  22.067  0.00  0.00     0.019 A 
ATOM     16  C   UNL d   1     -50.797  13.156  22.204  0.00  0.00     0.002 A 
ATOM     17  C   UNL d   1     -51.064  13.617  21.577  0.00  0.00     0.000 C 
ATOM     18  C   UNL d   1     -51.061  13.309  22.972  0.00  0.00     0.000 A 
ATOM     19  C   UNL d   1     -50.790  12.844  23.606  0.00  0.00     0.002 A 
ATOM     20  C   UNL d   1     -50.260  12.232  23.470  0.00  0.00     0.019 A 
ENDBRANCH  12  14
ENDBRANCH   1  11
TORSDOF 3
ENDMDL
MODEL 2
REMARK VINA RESULT:      -8.5      1.855      3.584
REMARK  3 active torsions:
REMARK  status: ('A' for Active; 'I' for Inactive)
REMARK    1  A    between atoms: C_4  and  N_1 
REMARK    2  A    between atoms: C_6  and  C_4 
REMARK       I    between atoms: N_8  and  C_6 
REMARK    3  A    between atoms: C_10  and  N_8 
ROOT
ATOM      1  C   UNL d   1     -49.185  13.401  22.357  0.00  0.00     0.165 C 
ENDROOT
BRANCH   1   2
ATOM      2  N   UNL d   1     -49.850  13.714  22.742  0.00  0.00    -0.204 N 
ATOM      3  N   UNL d   1     -50.550  13.301  22.915  0.00  0.00    -0.059 NA
ATOM      4  N   UNL d   1     -51.064  13.820  23.300  0.00  0.00    -0.129 NA
ATOM      5  C   UNL d   1     -50.689  14.553  23.369  0.00  0.00     0.122 A 
ATOM      6  C   UNL d   1     -49.934  14.487  23.022  0.00  0.00     0.104 A 
ATOM      7  C   UNL d   1     -50.930  15.267  23.698  0.00  0.00     0.022 A 
ATOM      8  C   UNL d   1     -49.429  15.136  23.009  0.00  0.00     0.021 A 
ATOM      9  C   UNL d   1     -49.670  15.852  23.338  0.00  0.00     0.002 A 
ATOM     10  C   UNL d   1     -50.417  15.917  23.681  0.00  0.00     0.002 A 
ENDBRANCH   1   2
BRANCH   1  11
ATOM     11  C   UNL d   1     -49.117  12.946  21.673  0.00  0.00     0.299 C 
ATOM     12  N   UNL d   1     -48.374  12.598  21.723  0.00  0.00    -0.207 NA
ATOM     13  O   UNL d   1     -49.736  12.926  21.127  0.00  0.00    -0.263 OA
BRANCH  12  14
ATOM     14  C   UNL d   1     -47.759  12.620  22.270  0.00  0.00     0.085 A 
ATOM     15  C   UNL d   1     -47.129  13.144  22.161  0.00  0.00     0.019 A 
ATOM     16  C   UNL d   1     -46.512  13.167  22.709  0.00  0.00     0.002 A 
ATOM     17  C   UNL d   1     -45.884  13.687  22.601  0.00  0.00     0.000 C 
ATOM     18  C   UNL d   1     -46.527  12.665  23.366  0.00  0.00     0.000 A 
ATOM     19  C   UNL d   1     -47.161  12.139  23.474  0.00  0.00     0.002 A 
ATOM     20  C   UNL d   1     -47.775  12.116  22.929  0.00  0.00     0.019 A 
ENDBRANCH  12  14
ENDBRANCH   1  11
TORSDOF 3
ENDMDL
MODEL 3
REMARK VINA RESULT:      -8.5      1.532      2.047
REMARK  3 active torsions:
REMARK  status: ('A' for Active; 'I' for Inactive)
REMARK    1  A    between atoms: C_4  and  N_1 
REMARK    2  A    between atoms: C_6  and  C_4 
REMARK       I    between atoms: N_8  and  C_6 
REMARK    3  A    between atoms: C_10  and  N_8 
ROOT
ATOM      1  C   UNL d   1     -48.988  12.915  22.369  0.00  0.00     0.165 C 
ENDROOT
BRANCH   1   2
ATOM      2  N   UNL d   1     -48.548  12.277  22.664  0.00  0.00    -0.204 N 
ATOM      3  N   UNL d   1     -48.794  11.482  22.675  0.00  0.00    -0.059 NA
ATOM      4  N   UNL d   1     -48.190  11.033  23.015  0.00  0.00    -0.129 NA
ATOM      5  C   UNL d   1     -47.570  11.542  23.216  0.00  0.00     0.122 A 
ATOM      6  C   UNL d   1     -47.793  12.315  22.998  0.00  0.00     0.104 A 
ATOM      7  C   UNL d   1     -46.838  11.408  23.566  0.00  0.00     0.022 A 
ATOM      8  C   UNL d   1     -47.281  12.945  23.132  0.00  0.00     0.021 A 
ATOM      9  C   UNL d   1     -46.548  12.810  23.482  0.00  0.00     0.002 A 
ATOM     10  C   UNL d   1     -46.327  12.046  23.698  0.00  0.00     0.002 A 
ENDBRANCH   1   2
BRANCH   1  11
ATOM     11  C   UNL d   1     -49.288  13.068  21.616  0.00  0.00     0.299 C 
ATOM     12  N   UNL d   1     -49.860  13.646  21.730  0.00  0.00    -0.207 NA
ATOM     13  O   UNL d   1     -48.994  12.658  20.964  0.00  0.00    -0.263 OA
BRANCH  12  14
ATOM     14  C   UNL d   1     -50.152  14.053  22.385  0.00  0.00     0.085 A 
ATOM     15  C   UNL d   1     -49.825  14.783  22.596  0.00  0.00     0.019 A 
ATOM     16  C   UNL d   1     -50.118  15.190  23.251  0.00  0.00     0.002 A 
ATOM     17  C   UNL d   1     -49.794  15.916  23.462  0.00  0.00     0.000 C 
ATOM     18  C   UNL d   1     -50.736  14.868  23.694  0.00  0.00     0.000 A 
ATOM     19  C   UNL d   1     -51.064  14.134  23.481  0.00  0.00     0.002 A 
ATOM     20  C   UNL d   1     -50.773  13.728  22.829  0.00  0.00     0.019 A 
ENDBRANCH  12  14
ENDBRANCH   1  11
TORSDOF 3
ENDMDL
MODEL 4
REMARK VINA RESULT:      -7.7      0.984      3.675
REMARK  3 active torsions:
REMARK  status: ('A' for Active; 'I' for Inactive)
REMARK    1  A    between atoms: C_4  and  N_1 
REMARK    2  A    between atoms: C_6  and  C_4 
REMARK       I    between atoms: N_8  and  C_6 
REMARK    3  A    between atoms: C_10  and  N_8 
ROOT
ATOM      1  C   UNL d   1     -48.452  12.520  22.895  0.00  0.00     0.165 C 
ENDROOT
BRANCH   1   2
ATOM      2  N   UNL d   1     -49.109  12.531  22.389  0.00  0.00    -0.204 N 
ATOM      3  N   UNL d   1     -49.327  11.925  21.862  0.00  0.00    -0.059 NA
ATOM      4  N   UNL d   1     -50.012  12.163  21.468  0.00  0.00    -0.129 NA
ATOM      5  C   UNL d   1     -50.224  12.913  21.746  0.00  0.00     0.122 A 
ATOM      6  C   UNL d   1     -49.663  13.142  22.318  0.00  0.00     0.104 A 
ATOM      7  C   UNL d   1     -50.847  13.415  21.556  0.00  0.00     0.022 A 
ATOM      8  C   UNL d   1     -49.731  13.870  22.694  0.00  0.00     0.021 A 
ATOM      9  C   UNL d   1     -50.355  14.373  22.505  0.00  0.00     0.002 A 
ATOM     10  C   UNL d   1     -50.910  14.147  21.939  0.00  0.00     0.002 A 
ENDBRANCH   1   2
BRANCH   1  11
ATOM     11  C   UNL d   1     -48.176  11.944  23.415  0.00  0.00     0.299 C 
ATOM     12  N   UNL d   1     -47.381  12.121  23.524  0.00  0.00    -0.207 NA
ATOM     13  O   UNL d   1     -48.688  11.362  23.698  0.00  0.00    -0.263 OA
BRANCH  12  14
ATOM     14  C   UNL d   1     -46.872  12.703  23.240  0.00  0.00     0.085 A 
ATOM     15  C   UNL d   1     -46.333  12.522  22.639  0.00  0.00     0.019 A 
ATOM     16  C   UNL d   1     -45.824  13.105  22.354  0.00  0.00     0.002 A 
ATOM     17  C   UNL d   1     -45.287  12.927  21.756  0.00  0.00     0.000 C 
ATOM     18  C   UNL d   1     -45.853  13.869  22.671  0.00  0.00     0.000 A 
ATOM     19  C   UNL d   1     -46.395  14.049  23.275  0.00  0.00     0.002 A 
ATOM     20  C   UNL d   1     -46.902  13.469  23.559  0.00  0.00     0.019 A 
ENDBRANCH  12  14
ENDBRANCH   1  11
TORSDOF 3
ENDMDL
MODEL 5
REMARK VINA RESULT:      -7.2      1.875      4.089
REMARK  3 active torsions:
REMARK  status: ('A' for Active; 'I' for Inactive)
REMARK    1  A    between atoms: C_4  and  N_1 
REMARK    2  A    between atoms: C_6  and  C_4 
REMARK       I    between atoms: N_8  and  C_6 
REMARK    3  A    between atoms: C_10  and  N_8 
ROOT
ATOM      1  C   UNL d   1     -48.307  14.230  22.642  0.00  0.00     0.165 C 
ENDROOT
BRANCH   1   2
ATOM      2  N   UNL d   1     -49.110  14.050  22.749  0.00  0.00    -0.204 N 
ATOM      3  N   UNL d   1     -49.601  14.358  23.345  0.00  0.00    -0.059 NA
ATOM      4  N   UNL d   1     -50.354  14.034  23.248  0.00  0.00    -0.129 NA
ATOM      5  C   UNL d   1     -50.335  13.526  22.595  0.00  0.00     0.122 A 
ATOM      6  C   UNL d   1     -49.562  13.537  22.285  0.00  0.00     0.104 A 
ATOM      7  C   UNL d   1     -50.914  13.059  22.244  0.00  0.00     0.022 A 
ATOM      8  C   UNL d   1     -49.376  13.080  21.627  0.00  0.00     0.021 A 
ATOM      9  C   UNL d   1     -49.955  12.612  21.275  0.00  0.00     0.002 A 
ATOM     10  C   UNL d   1     -50.719  12.602  21.581  0.00  0.00     0.002 A 
ENDBRANCH   1   2
BRANCH   1  11
ATOM     11  C   UNL d   1     -47.904  14.950  22.656  0.00  0.00     0.299 C 
ATOM     12  N   UNL d   1     -47.115  14.748  22.767  0.00  0.00    -0.207 NA
ATOM     13  O   UNL d   1     -48.319  15.657  22.567  0.00  0.00    -0.263 OA
BRANCH  12  14
ATOM     14  C   UNL d   1     -46.704  14.039  22.855  0.00  0.00     0.085 A 
ATOM     15  C   UNL d   1     -46.199  13.778  22.255  0.00  0.00     0.019 A 
ATOM     16  C   UNL d   1     -45.787  13.068  22.344  0.00  0.00     0.002 A 
ATOM     17  C   UNL d   1     -45.284  12.806  21.748  0.00  0.00     0.000 C 
ATOM     18  C   UNL d   1     -45.881  12.621  23.033  0.00  0.00     0.000 A 
ATOM     19  C   UNL d   1     -46.390  12.885  23.636  0.00  0.00     0.002 A 
ATOM     20  C   UNL d   1     -46.799  13.591  23.547  0.00  0.00     0.019 A 
ENDBRANCH  12  14
ENDBRANCH   1  11
TORSDOF 3
ENDMDL
MODEL 6
REMARK VINA RESULT:      -7.2      1.853      2.736
REMARK  3 active torsions:
REMARK  status: ('A' for Active; 'I' for Inactive)
REMARK    1  A    between atoms: C_4  and  N_1 
REMARK    2  A    between atoms: C_6  and  C_4 
REMARK       I    between atoms: N_8  and  C_6 
REMARK    3  A    between atoms: C_10  and  N_8 
ROOT
ATOM      1  C   UNL d   1     -46.714  13.143  22.774  0.00  0.00     0.165 C 
ENDROOT
BRANCH   1   2
ATOM      2  N   UNL d   1     -45.961  12.803  22.699  0.00  0.00    -0.204 N 
ATOM      3  N   UNL d   1     -45.316  13.137  22.294  0.00  0.00    -0.059 NA
ATOM      4  N   UNL d   1     -44.678  12.617  22.358  0.00  0.00    -0.129 NA
ATOM      5  C   UNL d   1     -44.920  11.962  22.801  0.00  0.00     0.122 A 
ATOM      6  C   UNL d   1     -45.718  12.078  23.013  0.00  0.00     0.104 A 
ATOM      7  C   UNL d   1     -44.526  11.280  23.038  0.00  0.00     0.022 A 
ATOM      8  C   UNL d   1     -46.112  11.511  23.459  0.00  0.00     0.021 A 
ATOM      9  C   UNL d   1     -45.717  10.828  23.697  0.00  0.00     0.002 A 
ATOM     10  C   UNL d   1     -44.928  10.713  23.487  0.00  0.00     0.002 A 
ENDBRANCH   1   2
BRANCH   1  11
ATOM     11  C   UNL d   1     -46.950  13.900  23.000  0.00  0.00     0.299 C 
ATOM     12  N   UNL d   1     -47.743  13.946  22.788  0.00  0.00    -0.207 NA
ATOM     13  O   UNL d   1     -46.410  14.411  23.357  0.00  0.00    -0.263 OA
BRANCH  12  14
ATOM     14  C   UNL d   1     -48.279  13.433  22.431  0.00  0.00     0.085 A 
ATOM     15  C   UNL d   1     -48.817  13.011  22.896  0.00  0.00     0.019 A 
ATOM     16  C   UNL d   1     -49.355  12.497  22.539  0.00  0.00     0.002 A 
ATOM     17  C   UNL d   1     -49.891  12.076  23.000  0.00  0.00     0.000 C 
ATOM     18  C   UNL d   1     -49.354  12.406  21.717  0.00  0.00     0.000 A 
ATOM     19  C   UNL d   1     -48.812  12.831  21.251  0.00  0.00     0.002 A 
ATOM     20  C   UNL d   1     -48.277  13.342  21.606  0.00  0.00     0.019 A 
ENDBRANCH  12  14
ENDBRANCH   1  11
TORSDOF 3
ENDMDL
MODEL 7
REMARK VINA RESULT:      -6.6      8.859     10.545
REMARK  3 active torsions:
REMARK  status: ('A' for Active; 'I' for Inactive)
REMARK    1  A    between atoms: C_4  and  N_1 
REMARK    2  A    between atoms: C_6  and  C_4 
REMARK       I    between atoms: N_8  and  C_6 
REMARK    3  A    between atoms: C_10  and  N_8 
ROOT
ATOM      1  C   UNL d   1     -40.008  14.747  17.916  0.00  0.00     0.165 C 
ENDROOT
BRANCH   1   2
ATOM      2  N   UNL d   1     -39.443  14.581  17.332  0.00  0.00    -0.204 N 
ATOM      3  N   UNL d   1     -39.236  15.081  16.701  0.00  0.00    -0.059 NA
ATOM      4  N   UNL d   1     -38.655  14.701  16.254  0.00  0.00    -0.129 NA
ATOM      5  C   UNL d   1     -38.499  13.967  16.602  0.00  0.00     0.122 A 
ATOM      6  C   UNL d   1     -38.989  13.893  17.272  0.00  0.00     0.104 A 
ATOM      7  C   UNL d   1     -37.980  13.361  16.402  0.00  0.00     0.022 A 
ATOM      8  C   UNL d   1     -38.955  13.213  17.733  0.00  0.00     0.021 A 
ATOM      9  C   UNL d   1     -38.436  12.605  17.533  0.00  0.00     0.002 A 
ATOM     10  C   UNL d   1     -37.951  12.679  16.871  0.00  0.00     0.002 A 
ENDBRANCH   1   2
BRANCH   1  11
ATOM     11  C   UNL d   1     -40.774  15.048  17.863  0.00  0.00     0.299 C 
ATOM     12  N   UNL d   1     -40.959  15.289  18.626  0.00  0.00    -0.207 NA
ATOM     13  O   UNL d   1     -41.167  15.051  17.138  0.00  0.00    -0.263 OA
BRANCH  12  14
ATOM     14  C   UNL d   1     -40.564  15.285  19.349  0.00  0.00     0.085 A 
ATOM     15  C   UNL d   1     -40.705  14.678  19.893  0.00  0.00     0.019 A 
ATOM     16  C   UNL d   1     -40.309  14.673  20.616  0.00  0.00     0.002 A 
ATOM     17  C   UNL d   1     -40.448  14.070  21.158  0.00  0.00     0.000 C 
ATOM     18  C   UNL d   1     -39.772  15.276  20.796  0.00  0.00     0.000 A 
ATOM     19  C   UNL d   1     -39.631  15.885  20.248  0.00  0.00     0.002 A 
ATOM     20  C   UNL d   1     -40.025  15.890  19.528  0.00  0.00     0.019 A 
ENDBRANCH  12  14
ENDBRANCH   1  11
TORSDOF 3
ENDMDL
MODEL 8
REMARK VINA RESULT:      -6.2      8.568     10.012
REMARK  3 active torsions:
REMARK  status: ('A' for Active; 'I' for Inactive)
REMARK    1  A    between atoms: C_4  and  N_1 
REMARK    2  A    between atoms: C_6  and  C_4 
REMARK       I    between atoms: N_8  and  C_6 
REMARK    3  A    between atoms: C_10  and  N_8 
ROOT
ATOM      1  C   UNL d   1     -40.303  14.854  20.086  0.00  0.00     0.165 C 
ENDROOT
BRANCH   1   2
ATOM      2  N   UNL d   1     -40.453  14.605  19.309  0.00  0.00    -0.204 N 
ATOM      3  N   UNL d   1     -40.909  13.944  19.091  0.00  0.00    -0.059 NA
ATOM      4  N   UNL d   1     -40.914  13.899  18.266  0.00  0.00    -0.129 NA
ATOM      5  C   UNL d   1     -40.465  14.527  17.970  0.00  0.00     0.122 A 
ATOM      6  C   UNL d   1     -40.179  14.965  18.618  0.00  0.00     0.104 A 
ATOM      7  C   UNL d   1     -40.279  14.757  17.202  0.00  0.00     0.022 A 
ATOM      8  C   UNL d   1     -39.710  15.629  18.491  0.00  0.00     0.021 A 
ATOM      9  C   UNL d   1     -39.523  15.860  17.723  0.00  0.00     0.002 A 
ATOM     10  C   UNL d   1     -39.807  15.426  17.082  0.00  0.00     0.002 A 
ENDBRANCH   1   2
BRANCH   1  11
ATOM     11  C   UNL d   1     -40.812  15.008  20.716  0.00  0.00     0.299 C 
ATOM     12  N   UNL d   1     -40.339  14.963  21.386  0.00  0.00    -0.207 NA
ATOM     13  O   UNL d   1     -41.611  15.161  20.574  0.00  0.00    -0.263 OA
BRANCH  12  14
ATOM     14  C   UNL d   1     -39.541  14.810  21.524  0.00  0.00     0.085 A 
ATOM     15  C   UNL d   1     -39.289  14.035  21.664  0.00  0.00     0.019 A 
ATOM     16  C   UNL d   1     -38.490  13.881  21.802  0.00  0.00     0.002 A 
ATOM     17  C   UNL d   1     -38.236  13.111  21.942  0.00  0.00     0.000 C 
ATOM     18  C   UNL d   1     -37.945  14.503  21.800  0.00  0.00     0.000 A 
ATOM     19  C   UNL d   1     -38.200  15.282  21.659  0.00  0.00     0.002 A 
ATOM     20  C   UNL d   1     -38.995  15.434  21.522  0.00  0.00     0.019 A 
ENDBRANCH  12  14
ENDBRANCH   1  11
TORSDOF 3
ENDMDL
MODEL 9
REMARK VINA RESULT:      -6.2      8.817     10.050
REMARK  3 active torsions:
REMARK  status: ('A' for Active; 'I' for Inactive)
REMARK    1  A    between atoms: C_4  and  N_1 
REMARK    2  A    between atoms: C_6  and  C_4 
REMARK       I    between atoms: N_8  and  C_6 
REMARK    3  A    between atoms: C_10  and  N_8 
ROOT
ATOM      1  C   UNL d   1     -40.378  14.639  19.232  0.00  0.00     0.165 C 
ENDROOT
BRANCH   1   2
ATOM      2  N   UNL d   1     -40.354  15.092  19.926  0.00  0.00    -0.204 N 
ATOM      3  N   UNL d   1     -40.994  15.505  20.259  0.00  0.00    -0.059 NA
ATOM      4  N   UNL d   1     -40.728  15.880  20.945  0.00  0.00    -0.129 NA
ATOM      5  C   UNL d   1     -39.926  15.703  21.042  0.00  0.00     0.122 A 
ATOM      6  C   UNL d   1     -39.694  15.213  20.409  0.00  0.00     0.104 A 
ATOM      7  C   UNL d   1     -39.380  15.920  21.617  0.00  0.00     0.022 A 
ATOM      8  C   UNL d   1     -38.918  14.946  20.359  0.00  0.00     0.021 A 
ATOM      9  C   UNL d   1     -38.370  15.163  20.934  0.00  0.00     0.002 A 
ATOM     10  C   UNL d   1     -38.600  15.647  21.560  0.00  0.00     0.002 A 
ENDBRANCH   1   2
BRANCH   1  11
ATOM     11  C   UNL d   1     -40.921  14.078  18.967  0.00  0.00     0.299 C 
ATOM     12  N   UNL d   1     -40.790  14.023  18.157  0.00  0.00    -0.207 NA
ATOM     13  O   UNL d   1     -41.435  13.716  19.501  0.00  0.00    -0.263 OA
BRANCH  12  14
ATOM     14  C   UNL d   1     -40.275  14.386  17.627  0.00  0.00     0.085 A 
ATOM     15  C   UNL d   1     -39.573  14.007  17.409  0.00  0.00     0.019 A 
ATOM     16  C   UNL d   1     -39.057  14.371  16.878  0.00  0.00     0.002 A 
ATOM     17  C   UNL d   1     -38.358  13.996  16.660  0.00  0.00     0.000 C 
ATOM     18  C   UNL d   1     -39.244  15.113  16.565  0.00  0.00     0.000 A 
ATOM     19  C   UNL d   1     -39.951  15.492  16.784  0.00  0.00     0.002 A 
ATOM     20  C   UNL d   1     -40.464  15.131  17.313  0.00  0.00     0.019 A 
ENDBRANCH  12  14
ENDBRANCH   1  11
TORSDOF 3
ENDMDL
