MODEL 1
REMARK VINA RESULT:      25.5      0.000      0.000
REMARK  4 active torsions:
REMARK  status: ('A' for Active; 'I' for Inactive)
REMARK    1  A    between atoms: N_5  and  C_1 
REMARK    2  A    between atoms: C_10  and  C_2 
REMARK    3  A    between atoms: C_12  and  N_3 
REMARK       I    between atoms: C_8  and  N_5 
REMARK    4  A    between atoms: C_9  and  C_8 
ROOT
ATOM      1  C   UNL d   1     -41.750-120.846 -52.634  0.00  0.00     0.170 A 
ATOM      2  C   UNL d   1     -41.638-120.793 -51.817  0.00  0.00     0.076 A 
ATOM      3  N   UNL d   1     -41.653-120.172 -53.109  0.00  0.00    -0.212 N 
ATOM      4  N   UNL d   1     -41.445-119.453 -52.759  0.00  0.00    -0.161 NA
ATOM      5  C   UNL d   1     -41.429-120.068 -51.472  0.00  0.00     0.218 A 
ATOM      6  C   UNL d   1     -41.333-119.400 -51.942  0.00  0.00     0.140 A 
ATOM      7  O   UNL d   1     -41.317-120.015 -50.655  0.00  0.00    -0.285 OA
ATOM      8  C   UNL d   1     -41.124-118.679 -51.589  0.00  0.00     0.026 C 
ENDROOT
BRANCH   1   9
ATOM      9  N   UNL d   1     -41.956-121.558 -52.977  0.00  0.00    -0.188 NA
ATOM     10  C   UNL d   1     -42.511-122.159 -53.109  0.00  0.00     0.286 C 
ATOM     11  O   UNL d   1     -43.254-122.097 -52.763  0.00  0.00    -0.265 OA
BRANCH  10  12
ATOM     12  C   UNL d   1     -42.316-122.802 -53.577  0.00  0.00     0.087 A 
ATOM     13  S   UNL d   1     -41.577-123.171 -53.627  0.00  0.00    -0.082 SA
ATOM     14  C   UNL d   1     -41.642-123.789 -54.165  0.00  0.00     0.036 A 
ATOM     15  C   UNL d   1     -42.409-123.813 -54.452  0.00  0.00     0.008 A 
ATOM     16  C   UNL d   1     -42.832-123.197 -54.086  0.00  0.00     0.012 A 
ENDBRANCH  10  12
ENDBRANCH   1   9
BRANCH   2  17
ATOM     17  C   UNL d   1     -41.734-121.458 -51.343  0.00  0.00     0.006 A 
ATOM     18  C   UNL d   1     -41.126-122.005 -51.278  0.00  0.00     0.001 A 
ATOM     19  C   UNL d   1     -41.222-122.677 -50.799  0.00  0.00     0.011 A 
ATOM     20  C   UNL d   1     -41.929-122.789 -50.393  0.00  0.00     0.058 A 
ATOM     21  C   UNL d   1     -42.545-122.237 -50.458  0.00  0.00     0.011 A 
ATOM     22 CL   UNL d   1     -42.022-123.458 -49.919  0.00  0.00    -0.082 Cl
ATOM     23  C   UNL d   1     -42.441-121.573 -50.935  0.00  0.00     0.001 A 
ENDBRANCH   2  17
BRANCH   3  24
ATOM     24  C   UNL d   1     -41.764-120.223 -53.923  0.00  0.00     0.085 A 
ATOM     25  C   UNL d   1     -42.521-120.125 -54.239  0.00  0.00     0.019 A 
ATOM     26  C   UNL d   1     -42.632-120.177 -55.063  0.00  0.00     0.002 A 
ATOM     27  C   UNL d   1     -41.994-120.323 -55.554  0.00  0.00     0.000 A 
ATOM     28  C   UNL d   1     -41.237-120.420 -55.228  0.00  0.00     0.002 A 
ATOM     29  C   UNL d   1     -41.126-120.369 -54.414  0.00  0.00     0.019 A 
ENDBRANCH   3  24
TORSDOF 4
ENDMDL
