MODEL 1
REMARK VINA RESULT:      -3.5      0.000      0.000
REMARK  3 active torsions:
REMARK  status: ('A' for Active; 'I' for Inactive)
REMARK    1  A    between atoms: N_4  and  C_1 
REMARK    2  A    between atoms: C_5  and  C_3 
REMARK       I    between atoms: C_8  and  N_4 
REMARK    3  A    between atoms: C_9  and  C_8 
ROOT
ATOM      1  C   UNL d   1      33.004  20.865 -22.321  0.00  0.00     0.204 A 
ATOM      2  S   UNL d   1      32.886  20.137 -22.183  0.00  0.00    -0.031 SA
ATOM      3  C   UNL d   1      33.028  19.677 -22.934  0.00  0.00     0.119 A 
ATOM      4  N   UNL d   1      33.233  20.979 -23.152  0.00  0.00    -0.123 NA
ATOM      5  N   UNL d   1      33.239  20.269 -23.490  0.00  0.00    -0.143 NA
ENDROOT
BRANCH   3   6
ATOM      6  C   UNL d   1      32.963  18.901 -23.025  0.00  0.00     0.081 A 
ATOM      7  C   UNL d   1      32.410  18.897 -23.929  0.00  0.00     0.023 A 
ATOM      8  C   UNL d   1      32.225  18.145 -24.216  0.00  0.00     0.045 A 
ATOM      9  C   UNL d   1      32.502  17.463 -23.751  0.00  0.00    -0.022 A 
ATOM     10  C   UNL d   1      32.410  17.001 -23.894  0.00  0.00    -0.022 A 
ATOM     11  C   UNL d   1      32.919  17.443 -23.070  0.00  0.00    -0.008 A 
ATOM     12  C   UNL d   1      33.241  18.284 -22.560  0.00  0.00    -0.017 A 
ATOM     13  C   UNL d   1      33.162  16.808 -22.661  0.00  0.00    -0.001 A 
ATOM     14  C   UNL d   1      32.817  17.274 -23.233  0.00  0.00    -0.008 A 
ATOM     15  C   UNL d   1      33.001  18.026 -22.946  0.00  0.00    -0.017 A 
ENDBRANCH   3   6
BRANCH   1  16
ATOM     16  N   UNL d   1      32.960  21.538 -21.854  0.00  0.00    -0.248 N 
ATOM     17  C   UNL d   1      32.638  21.551 -21.095  0.00  0.00     0.289 C 
ATOM     18  O   UNL d   1      32.335  20.837 -20.774  0.00  0.00    -0.264 OA
ATOM     19  C   UNL d   1      33.241  22.216 -22.142  0.00  0.00     0.104 C 
BRANCH  17  20
ATOM     20  C   UNL d   1      32.610  22.249 -20.651  0.00  0.00     0.156 A 
ATOM     21  O   UNL d   1      32.268  22.991 -20.795  0.00  0.00    -0.300 OA
ATOM     22  C   UNL d   1      32.437  23.479 -20.113  0.00  0.00     0.123 A 
ATOM     23  C   UNL d   1      32.854  23.057 -19.589  0.00  0.00     0.029 A 
ATOM     24  C   UNL d   1      32.970  22.305 -19.897  0.00  0.00     0.032 A 
ENDBRANCH  17  20
ENDBRANCH   1  16
TORSDOF 3
ENDMDL
MODEL 2
REMARK VINA RESULT:      -3.4      1.754      4.943
REMARK  3 active torsions:
REMARK  status: ('A' for Active; 'I' for Inactive)
REMARK    1  A    between atoms: N_4  and  C_1 
REMARK    2  A    between atoms: C_5  and  C_3 
REMARK       I    between atoms: C_8  and  N_4 
REMARK    3  A    between atoms: C_9  and  C_8 
ROOT
ATOM      1  C   UNL d   1      32.817  18.588 -23.130  0.00  0.00     0.204 A 
ATOM      2  S   UNL d   1      32.736  18.955 -22.481  0.00  0.00    -0.031 SA
ATOM      3  C   UNL d   1      33.005  19.798 -22.593  0.00  0.00     0.119 A 
ATOM      4  N   UNL d   1      33.140  19.120 -23.737  0.00  0.00    -0.123 NA
ATOM      5  N   UNL d   1      33.241  19.823 -23.399  0.00  0.00    -0.143 NA
ENDROOT
BRANCH   3   6
ATOM      6  C   UNL d   1      33.009  20.364 -22.050  0.00  0.00     0.081 A 
ATOM      7  C   UNL d   1      33.141  21.195 -22.693  0.00  0.00     0.023 A 
ATOM      8  C   UNL d   1      33.174  21.925 -22.309  0.00  0.00     0.045 A 
ATOM      9  C   UNL d   1      33.099  21.922 -21.442  0.00  0.00    -0.022 A 
ATOM     10  C   UNL d   1      33.114  22.339 -21.181  0.00  0.00    -0.022 A 
ATOM     11  C   UNL d   1      32.999  21.309 -20.938  0.00  0.00    -0.008 A 
ATOM     12  C   UNL d   1      32.935  20.319 -21.233  0.00  0.00    -0.017 A 
ATOM     13  C   UNL d   1      32.933  21.328 -20.148  0.00  0.00    -0.001 A 
ATOM     14  C   UNL d   1      33.021  21.563 -20.923  0.00  0.00    -0.008 A 
ATOM     15  C   UNL d   1      32.988  20.833 -21.307  0.00  0.00    -0.017 A 
ENDBRANCH   3   6
BRANCH   1  16
ATOM     16  N   UNL d   1      32.665  17.815 -23.359  0.00  0.00    -0.248 N 
ATOM     17  C   UNL d   1      31.947  17.562 -23.675  0.00  0.00     0.289 C 
ATOM     18  O   UNL d   1      31.330  18.122 -23.771  0.00  0.00    -0.264 OA
ATOM     19  C   UNL d   1      33.236  17.278 -23.274  0.00  0.00     0.104 C 
BRANCH  17  20
ATOM     20  C   UNL d   1      31.828  16.772 -23.895  0.00  0.00     0.156 A 
ATOM     21  O   UNL d   1      32.330  16.112 -23.905  0.00  0.00    -0.300 OA
ATOM     22  C   UNL d   1      31.867  15.453 -24.195  0.00  0.00     0.123 A 
ATOM     23  C   UNL d   1      31.132  15.701 -24.350  0.00  0.00     0.029 A 
ATOM     24  C   UNL d   1      31.087  16.501 -24.175  0.00  0.00     0.032 A 
ENDBRANCH  17  20
ENDBRANCH   1  16
TORSDOF 3
ENDMDL
MODEL 3
REMARK VINA RESULT:      -3.1      1.523      4.987
REMARK  3 active torsions:
REMARK  status: ('A' for Active; 'I' for Inactive)
REMARK    1  A    between atoms: N_4  and  C_1 
REMARK    2  A    between atoms: C_5  and  C_3 
REMARK       I    between atoms: C_8  and  N_4 
REMARK    3  A    between atoms: C_9  and  C_8 
ROOT
ATOM      1  C   UNL d   1      32.890  19.635 -22.176  0.00  0.00     0.204 A 
ATOM      2  S   UNL d   1      32.861  20.344 -22.421  0.00  0.00    -0.031 SA
ATOM      3  C   UNL d   1      32.868  20.891 -21.717  0.00  0.00     0.119 A 
ATOM      4  N   UNL d   1      32.918  19.620 -21.308  0.00  0.00    -0.123 NA
ATOM      5  N   UNL d   1      32.904  20.366 -21.062  0.00  0.00    -0.143 NA
ENDROOT
BRANCH   3   6
ATOM      6  C   UNL d   1      32.844  21.675 -21.733  0.00  0.00     0.081 A 
ATOM      7  C   UNL d   1      32.173  21.827 -20.927  0.00  0.00     0.023 A 
ATOM      8  C   UNL d   1      32.002  22.618 -20.766  0.00  0.00     0.045 A 
ATOM      9  C   UNL d   1      32.387  23.217 -21.267  0.00  0.00    -0.022 A 
ATOM     10  C   UNL d   1      32.307  23.698 -21.199  0.00  0.00    -0.022 A 
ATOM     11  C   UNL d   1      32.894  23.126 -21.878  0.00  0.00    -0.008 A 
ATOM     12  C   UNL d   1      33.225  22.209 -22.226  0.00  0.00    -0.017 A 
ATOM     13  C   UNL d   1      33.234  23.688 -22.323  0.00  0.00    -0.001 A 
ATOM     14  C   UNL d   1      32.783  23.319 -21.754  0.00  0.00    -0.008 A 
ATOM     15  C   UNL d   1      32.953  22.528 -21.914  0.00  0.00    -0.017 A 
ENDBRANCH   3   6
BRANCH   1  16
ATOM     16  N   UNL d   1      32.900  18.910 -22.560  0.00  0.00    -0.248 N 
ATOM     17  C   UNL d   1      32.686  18.805 -23.349  0.00  0.00     0.289 C 
ATOM     18  O   UNL d   1      32.444  19.474 -23.794  0.00  0.00    -0.264 OA
ATOM     19  C   UNL d   1      33.125  18.273 -22.154  0.00  0.00     0.104 C 
BRANCH  17  20
ATOM     20  C   UNL d   1      32.708  18.057 -23.705  0.00  0.00     0.156 A 
ATOM     21  O   UNL d   1      32.299  17.352 -23.551  0.00  0.00    -0.300 OA
ATOM     22  C   UNL d   1      32.574  16.776 -24.120  0.00  0.00     0.123 A 
ATOM     23  C   UNL d   1      33.116  17.113 -24.588  0.00  0.00     0.029 A 
ATOM     24  C   UNL d   1      33.213  17.893 -24.352  0.00  0.00     0.032 A 
ENDBRANCH  17  20
ENDBRANCH   1  16
TORSDOF 3
ENDMDL
MODEL 4
REMARK VINA RESULT:      -2.7      0.854      1.167
REMARK  3 active torsions:
REMARK  status: ('A' for Active; 'I' for Inactive)
REMARK    1  A    between atoms: N_4  and  C_1 
REMARK    2  A    between atoms: C_5  and  C_3 
REMARK       I    between atoms: C_8  and  N_4 
REMARK    3  A    between atoms: C_9  and  C_8 
ROOT
ATOM      1  C   UNL d   1      32.940  21.525 -21.474  0.00  0.00     0.204 A 
ATOM      2  S   UNL d   1      33.002  20.778 -21.461  0.00  0.00    -0.031 SA
ATOM      3  C   UNL d   1      33.021  20.476 -22.300  0.00  0.00     0.119 A 
ATOM      4  N   UNL d   1      32.911  21.808 -22.296  0.00  0.00    -0.123 NA
ATOM      5  N   UNL d   1      32.960  21.176 -22.761  0.00  0.00    -0.143 NA
ENDROOT
BRANCH   3   6
ATOM      6  C   UNL d   1      33.081  19.728 -22.527  0.00  0.00     0.081 A 
ATOM      7  C   UNL d   1      33.100  19.884 -23.574  0.00  0.00     0.023 A 
ATOM      8  C   UNL d   1      33.162  19.194 -24.023  0.00  0.00     0.045 A 
ATOM      9  C   UNL d   1      33.203  18.441 -23.591  0.00  0.00    -0.022 A 
ATOM     10  C   UNL d   1      33.241  18.010 -23.827  0.00  0.00    -0.022 A 
ATOM     11  C   UNL d   1      33.191  18.300 -22.804  0.00  0.00    -0.008 A 
ATOM     12  C   UNL d   1      33.117  19.038 -22.082  0.00  0.00    -0.017 A 
ATOM     13  C   UNL d   1      33.229  17.602 -22.429  0.00  0.00    -0.001 A 
ATOM     14  C   UNL d   1      33.207  18.163 -23.019  0.00  0.00    -0.008 A 
ATOM     15  C   UNL d   1      33.144  18.852 -22.570  0.00  0.00    -0.017 A 
ENDBRANCH   3   6
BRANCH   1  16
ATOM     16  N   UNL d   1      32.898  22.095 -20.885  0.00  0.00    -0.248 N 
ATOM     17  C   UNL d   1      33.040  21.943 -20.088  0.00  0.00     0.289 C 
ATOM     18  O   UNL d   1      33.241  21.162 -19.856  0.00  0.00    -0.264 OA
ATOM     19  C   UNL d   1      32.710  22.833 -21.088  0.00  0.00     0.104 C 
BRANCH  17  20
ATOM     20  C   UNL d   1      32.988  22.543 -19.519  0.00  0.00     0.156 A 
ATOM     21  O   UNL d   1      32.720  23.327 -19.556  0.00  0.00    -0.300 OA
ATOM     22  C   UNL d   1      32.812  23.657 -18.772  0.00  0.00     0.123 A 
ATOM     23  C   UNL d   1      33.117  23.106 -18.293  0.00  0.00     0.029 A 
ATOM     24  C   UNL d   1      33.232  22.420 -18.728  0.00  0.00     0.032 A 
ENDBRANCH  17  20
ENDBRANCH   1  16
TORSDOF 3
ENDMDL
MODEL 5
REMARK VINA RESULT:      -2.5      2.192      3.427
REMARK  3 active torsions:
REMARK  status: ('A' for Active; 'I' for Inactive)
REMARK    1  A    between atoms: N_4  and  C_1 
REMARK    2  A    between atoms: C_5  and  C_3 
REMARK       I    between atoms: C_8  and  N_4 
REMARK    3  A    between atoms: C_9  and  C_8 
ROOT
ATOM      1  C   UNL d   1      32.602  22.545 -19.400  0.00  0.00     0.204 A 
ATOM      2  S   UNL d   1      32.933  21.968 -19.746  0.00  0.00    -0.031 SA
ATOM      3  C   UNL d   1      32.562  21.863 -20.550  0.00  0.00     0.119 A 
ATOM      4  N   UNL d   1      31.988  22.888 -19.912  0.00  0.00    -0.123 NA
ATOM      5  N   UNL d   1      31.984  22.472 -20.579  0.00  0.00    -0.143 NA
ENDROOT
BRANCH   3   6
ATOM      6  C   UNL d   1      32.750  21.322 -21.085  0.00  0.00     0.081 A 
ATOM      7  C   UNL d   1      32.788  21.951 -21.936  0.00  0.00     0.023 A 
ATOM      8  C   UNL d   1      32.978  21.565 -22.641  0.00  0.00     0.045 A 
ATOM      9  C   UNL d   1      33.120  20.708 -22.599  0.00  0.00    -0.022 A 
ATOM     10  C   UNL d   1      33.236  20.447 -23.000  0.00  0.00    -0.022 A 
ATOM     11  C   UNL d   1      33.097  20.215 -21.970  0.00  0.00    -0.008 A 
ATOM     12  C   UNL d   1      32.877  20.514 -21.004  0.00  0.00    -0.017 A 
ATOM     13  C   UNL d   1      33.231  19.433 -21.953  0.00  0.00    -0.001 A 
ATOM     14  C   UNL d   1      33.144  20.197 -22.221  0.00  0.00    -0.008 A 
ATOM     15  C   UNL d   1      32.954  20.583 -21.516  0.00  0.00    -0.017 A 
ENDBRANCH   3   6
BRANCH   1  16
ATOM     16  N   UNL d   1      32.708  22.894 -18.665  0.00  0.00    -0.248 N 
ATOM     17  C   UNL d   1      32.958  22.485 -17.994  0.00  0.00     0.289 C 
ATOM     18  O   UNL d   1      33.116  21.664 -18.059  0.00  0.00    -0.264 OA
ATOM     19  C   UNL d   1      32.563  23.665 -18.590  0.00  0.00     0.104 C 
BRANCH  17  20
ATOM     20  C   UNL d   1      33.054  22.870 -17.267  0.00  0.00     0.156 A 
ATOM     21  O   UNL d   1      33.074  23.672 -17.056  0.00  0.00    -0.300 OA
ATOM     22  C   UNL d   1      33.191  23.702 -16.209  0.00  0.00     0.123 A 
ATOM     23  C   UNL d   1      33.240  22.965 -15.927  0.00  0.00     0.029 A 
ATOM     24  C   UNL d   1      33.159  22.442 -16.555  0.00  0.00     0.032 A 
ENDBRANCH  17  20
ENDBRANCH   1  16
TORSDOF 3
ENDMDL
MODEL 6
REMARK VINA RESULT:      -1.4      3.034      5.376
REMARK  3 active torsions:
REMARK  status: ('A' for Active; 'I' for Inactive)
REMARK    1  A    between atoms: N_4  and  C_1 
REMARK    2  A    between atoms: C_5  and  C_3 
REMARK       I    between atoms: C_8  and  N_4 
REMARK    3  A    between atoms: C_9  and  C_8 
ROOT
ATOM      1  C   UNL d   1      31.216  17.135 -23.781  0.00  0.00     0.204 A 
ATOM      2  S   UNL d   1      31.289  17.881 -23.782  0.00  0.00    -0.031 SA
ATOM      3  C   UNL d   1      32.141  18.086 -23.616  0.00  0.00     0.119 A 
ATOM      4  N   UNL d   1      31.983  16.759 -23.620  0.00  0.00    -0.123 NA
ATOM      5  N   UNL d   1      32.509  17.336 -23.526  0.00  0.00    -0.143 NA
ENDROOT
BRANCH   3   6
ATOM      6  C   UNL d   1      32.449  18.806 -23.569  0.00  0.00     0.081 A 
ATOM      7  C   UNL d   1      32.505  18.883 -22.514  0.00  0.00     0.023 A 
ATOM      8  C   UNL d   1      32.815  19.596 -22.238  0.00  0.00     0.045 A 
ATOM      9  C   UNL d   1      33.052  20.184 -22.834  0.00  0.00    -0.022 A 
ATOM     10  C   UNL d   1      33.241  20.620 -22.704  0.00  0.00    -0.022 A 
ATOM     11  C   UNL d   1      33.018  20.148 -23.631  0.00  0.00    -0.008 A 
ATOM     12  C   UNL d   1      32.660  19.334 -24.162  0.00  0.00    -0.017 A 
ATOM     13  C   UNL d   1      33.241  20.698 -24.159  0.00  0.00    -0.001 A 
ATOM     14  C   UNL d   1      33.094  20.316 -23.454  0.00  0.00    -0.008 A 
ATOM     15  C   UNL d   1      32.784  19.602 -23.731  0.00  0.00    -0.017 A 
ENDBRANCH   3   6
BRANCH   1  16
ATOM     16  N   UNL d   1      30.576  16.635 -23.899  0.00  0.00    -0.248 N 
ATOM     17  C   UNL d   1      29.834  16.889 -24.151  0.00  0.00     0.289 C 
ATOM     18  O   UNL d   1      29.717  17.706 -24.299  0.00  0.00    -0.264 OA
ATOM     19  C   UNL d   1      30.671  15.864 -23.763  0.00  0.00     0.104 C 
BRANCH  17  20
ATOM     20  C   UNL d   1      29.210  16.355 -24.260  0.00  0.00     0.156 A 
ATOM     21  O   UNL d   1      28.967  15.902 -24.911  0.00  0.00    -0.300 OA
ATOM     22  C   UNL d   1      28.278  15.461 -24.662  0.00  0.00     0.123 A 
ATOM     23  C   UNL d   1      28.115  15.637 -23.908  0.00  0.00     0.029 A 
ATOM     24  C   UNL d   1      28.670  16.180 -23.644  0.00  0.00     0.032 A 
ENDBRANCH  17  20
ENDBRANCH   1  16
TORSDOF 3
ENDMDL
