MODEL 1
REMARK VINA RESULT:      23.6      0.000      0.000
REMARK  2 active torsions:
REMARK  status: ('A' for Active; 'I' for Inactive)
REMARK    1  A    between atoms: N_2  and  C_1 
REMARK    2  A    between atoms: C_4  and  C_1 
ROOT
ATOM      1  C   UNL d   1      58.494  49.623  51.294  0.00  0.00     0.120 C 
ATOM      2  S   UNL d   1      58.315  49.609  52.100  0.00  0.00    -0.059 SA
ENDROOT
BRANCH   1   3
ATOM      3  N   UNL d   1      59.288  49.632  51.047  0.00  0.00    -0.293 N 
ATOM      4  C   UNL d   1      59.892  49.653  51.610  0.00  0.00     0.100 A 
ATOM      5  C   UNL d   1      60.681  49.662  51.368  0.00  0.00     0.100 A 
ATOM      6  N   UNL d   1      60.864  49.651  50.565  0.00  0.00    -0.299 N 
ATOM      7  C   UNL d   1      60.260  49.630  50.003  0.00  0.00     0.100 A 
ATOM      8  C   UNL d   1      61.655  49.660  50.321  0.00  0.00     0.100 C 
ATOM      9  C   UNL d   1      59.466  49.621  50.250  0.00  0.00     0.100 A 
ENDBRANCH   1   3
BRANCH   1  10
ATOM     10  C   UNL d   1      57.890  49.627  50.728  0.00  0.00     0.027 A 
ATOM     11  C   UNL d   1      58.069  49.586  49.918  0.00  0.00     0.003 A 
ATOM     12  C   UNL d   1      57.461  49.591  49.361  0.00  0.00     0.007 A 
ATOM     13  C   UNL d   1      56.677  49.637  49.608  0.00  0.00     0.035 A 
ATOM     14  C   UNL d   1      56.498  49.678  50.418  0.00  0.00     0.007 A 
ATOM     15 BR   UNL d   1      56.066  49.642  49.050  0.00  0.00    -0.049 Br
ATOM     16  C   UNL d   1      57.104  49.673  50.975  0.00  0.00     0.003 A 
ENDBRANCH   1  10
TORSDOF 2
ENDMDL
