MODEL 1
REMARK VINA RESULT:      -4.4      0.000      0.000
REMARK  3 active torsions:
REMARK  status: ('A' for Active; 'I' for Inactive)
REMARK    1  A    between atoms: C_10  and  N_1 
REMARK       I    between atoms: N_3  and  C_4 
REMARK    2  A    between atoms: C_4  and  C_10 
REMARK    3  A    between atoms: O_17  and  C_13 
ROOT
ATOM      1  N   UNL d   1     -41.865-122.375 -50.782  0.00  0.00    -0.268 N 
ATOM      2  C   UNL d   1     -42.573-122.663 -50.457  0.00  0.00     0.265 A 
ATOM      3  C   UNL d   1     -42.569-123.020 -49.713  0.00  0.00     0.059 A 
ATOM      4  C   UNL d   1     -41.866-123.091 -49.290  0.00  0.00     0.028 A 
ATOM      5  C   UNL d   1     -41.155-122.808 -49.604  0.00  0.00     0.021 A 
ATOM      6  C   UNL d   1     -41.158-122.447 -50.357  0.00  0.00     0.083 A 
ATOM      7  O   UNL d   1     -43.277-122.592 -50.881  0.00  0.00    -0.267 OA
ATOM      8  C   UNL d   1     -41.865-123.447 -48.548  0.00  0.00     0.094 A 
ATOM      9  C   UNL d   1     -43.277-123.303 -49.397  0.00  0.00     0.005 A 
ATOM     10  C   UNL d   1     -43.276-123.659 -48.655  0.00  0.00     0.002 A 
ATOM     11  C   UNL d   1     -42.572-123.731 -48.232  0.00  0.00     0.024 A 
ENDROOT
BRANCH   1  12
ATOM     12  C   UNL d   1     -41.866-122.019 -51.524  0.00  0.00     0.144 C 
BRANCH  12  13
ATOM     13  C   UNL d   1     -41.681-122.465 -52.195  0.00  0.00     0.283 C 
ATOM     14  N   UNL d   1     -41.850-122.178 -52.949  0.00  0.00    -0.272 N 
ATOM     15  C   UNL d   1     -41.664-122.625 -53.607  0.00  0.00     0.067 A 
ATOM     16  C   UNL d   1     -42.210-121.431 -53.031  0.00  0.00     0.083 A 
ATOM     17  C   UNL d   1     -41.835-122.332 -54.363  0.00  0.00     0.016 A 
ATOM     18  C   UNL d   1     -41.311-123.356 -53.522  0.00  0.00     0.018 A 
ATOM     19  C   UNL d   1     -41.651-122.776 -55.028  0.00  0.00     0.001 A 
ATOM     20  C   UNL d   1     -42.194-121.590 -54.455  0.00  0.00     0.003 A 
ATOM     21  C   UNL d   1     -41.296-123.514 -54.946  0.00  0.00     0.000 A 
ATOM     22  C   UNL d   1     -41.123-123.808 -54.186  0.00  0.00     0.002 A 
ATOM     23  C   UNL d   1     -42.379-121.145 -53.794  0.00  0.00     0.019 A 
ATOM     24  O   UNL d   1     -41.323-123.206 -52.106  0.00  0.00    -0.265 OA
ENDBRANCH  12  13
ENDBRANCH   1  12
BRANCH   8  25
ATOM     25  O   UNL d   1     -41.163-123.521 -48.121  0.00  0.00    -0.328 OA
ATOM     26  C   UNL d   1     -41.185-123.606 -47.306  0.00  0.00     0.181 C 
ENDBRANCH   8  25
TORSDOF 3
ENDMDL
MODEL 2
REMARK VINA RESULT:      -3.9      0.905      4.950
REMARK  3 active torsions:
REMARK  status: ('A' for Active; 'I' for Inactive)
REMARK    1  A    between atoms: C_10  and  N_1 
REMARK       I    between atoms: N_3  and  C_4 
REMARK    2  A    between atoms: C_4  and  C_10 
REMARK    3  A    between atoms: O_17  and  C_13 
ROOT
ATOM      1  N   UNL d   1     -41.607-122.456 -51.777  0.00  0.00    -0.268 N 
ATOM      2  C   UNL d   1     -41.411-123.114 -52.245  0.00  0.00     0.265 A 
ATOM      3  C   UNL d   1     -41.506-123.077 -53.064  0.00  0.00     0.059 A 
ATOM      4  C   UNL d   1     -41.793-122.392 -53.420  0.00  0.00     0.028 A 
ATOM      5  C   UNL d   1     -41.991-121.731 -52.963  0.00  0.00     0.021 A 
ATOM      6  C   UNL d   1     -41.896-121.767 -52.134  0.00  0.00     0.083 A 
ATOM      7  O   UNL d   1     -41.124-123.799 -51.889  0.00  0.00    -0.267 OA
ATOM      8  C   UNL d   1     -41.886-122.359 -54.237  0.00  0.00     0.094 A 
ATOM      9  C   UNL d   1     -41.309-123.735 -53.523  0.00  0.00     0.005 A 
ATOM     10  C   UNL d   1     -41.402-123.701 -54.340  0.00  0.00     0.002 A 
ATOM     11  C   UNL d   1     -41.690-123.016 -54.696  0.00  0.00     0.024 A 
ENDROOT
BRANCH   1  12
ATOM     12  C   UNL d   1     -41.514-122.489 -50.960  0.00  0.00     0.144 C 
BRANCH  12  13
ATOM     13  C   UNL d   1     -42.125-122.783 -50.487  0.00  0.00     0.283 C 
ATOM     14  N   UNL d   1     -41.999-122.940 -49.688  0.00  0.00    -0.272 N 
ATOM     15  C   UNL d   1     -42.608-123.230 -49.228  0.00  0.00     0.067 A 
ATOM     16  C   UNL d   1     -41.247-122.800 -49.357  0.00  0.00     0.083 A 
ATOM     17  C   UNL d   1     -42.476-123.386 -48.424  0.00  0.00     0.016 A 
ATOM     18  C   UNL d   1     -43.343-123.366 -49.555  0.00  0.00     0.018 A 
ATOM     19  C   UNL d   1     -43.084-123.678 -47.957  0.00  0.00     0.001 A 
ATOM     20  C   UNL d   1     -41.732-123.250 -48.086  0.00  0.00     0.003 A 
ATOM     21  C   UNL d   1     -43.826-123.816 -48.284  0.00  0.00     0.000 A 
ATOM     22  C   UNL d   1     -43.959-123.659 -49.091  0.00  0.00     0.002 A 
ATOM     23  C   UNL d   1     -41.123-122.960 -48.550  0.00  0.00     0.019 A 
ATOM     24  O   UNL d   1     -42.869-122.920 -50.822  0.00  0.00    -0.265 OA
ENDBRANCH  12  13
ENDBRANCH   1  12
BRANCH   8  25
ATOM     25  O   UNL d   1     -42.173-121.675 -54.597  0.00  0.00    -0.328 OA
ATOM     26  C   UNL d   1     -42.196-121.619 -55.415  0.00  0.00     0.181 C 
ENDBRANCH   8  25
TORSDOF 3
ENDMDL
