MODEL 1
REMARK VINA RESULT:      -7.9      0.000      0.000
REMARK  6 active torsions:
REMARK  status: ('A' for Active; 'I' for Inactive)
REMARK    1  A    between atoms: S_6  and  C_1 
REMARK    2  A    between atoms: C_15  and  S_6 
REMARK    3  A    between atoms: C_8  and  O_11 
REMARK    4  A    between atoms: C_10  and  C_15 
REMARK    5  A    between atoms: C_16  and  C_10 
REMARK    6  A    between atoms: O_11  and  C_16 
ROOT
ATOM      1  C   UNL d   1      50.932  34.185  53.076  0.00  0.00     0.040 C 
ENDROOT
BRANCH   1   2
ATOM      2  C   UNL d   1      50.316  34.338  52.551  0.00  0.00     0.034 C 
BRANCH   2   3
ATOM      3  C   UNL d   1      49.663  34.780  52.802  0.00  0.00     0.123 C 
BRANCH   3   4
ATOM      4  O   UNL d   1      49.132  35.063  52.237  0.00  0.00    -0.305 OA
BRANCH   4   5
ATOM      5  C   UNL d   1      48.464  35.482  52.472  0.00  0.00     0.100 A 
ATOM      6  C   UNL d   1      47.814  35.540  51.968  0.00  0.00     0.025 A 
ATOM      7  C   UNL d   1      47.140  35.967  52.212  0.00  0.00     0.002 A 
ATOM      8  C   UNL d   1      46.491  36.025  51.709  0.00  0.00     0.000 C 
ATOM      9  C   UNL d   1      47.127  36.328  52.954  0.00  0.00     0.000 A 
ATOM     10  C   UNL d   1      47.788  36.265  53.457  0.00  0.00     0.002 A 
ATOM     11  C   UNL d   1      48.457  35.843  53.219  0.00  0.00     0.025 A 
ENDBRANCH   4   5
ENDBRANCH   3   4
ENDBRANCH   2   3
ENDBRANCH   1   2
BRANCH   1  12
ATOM     12  S   UNL d   1      51.671  33.965  52.783  0.00  0.00    -0.048 SA
BRANCH  12  13
ATOM     13  C   UNL d   1      52.289  33.791  53.300  0.00  0.00     0.194 A 
ATOM     14  N   UNL d   1      52.704  34.331  53.776  0.00  0.00    -0.220 NA
ATOM     15  C   UNL d   1      53.277  33.908  54.204  0.00  0.00     0.101 A 
ATOM     16  C   UNL d   1      53.841  34.156  54.755  0.00  0.00     0.021 A 
ATOM     17  C   UNL d   1      53.224  33.103  53.998  0.00  0.00     0.101 A 
ATOM     18  C   UNL d   1      54.349  33.607  55.100  0.00  0.00     0.002 A 
ATOM     19  C   UNL d   1      54.296  32.810  54.896  0.00  0.00     0.002 A 
ATOM     20  C   UNL d   1      53.735  32.562  54.347  0.00  0.00     0.021 A 
ATOM     21  N   UNL d   1      52.608  33.029  53.435  0.00  0.00    -0.220 NA
ENDBRANCH  12  13
ENDBRANCH   1  12
TORSDOF 6
ENDMDL
MODEL 2
REMARK VINA RESULT:      -7.8      1.647      5.893
REMARK  6 active torsions:
REMARK  status: ('A' for Active; 'I' for Inactive)
REMARK    1  A    between atoms: S_6  and  C_1 
REMARK    2  A    between atoms: C_15  and  S_6 
REMARK    3  A    between atoms: C_8  and  O_11 
REMARK    4  A    between atoms: C_10  and  C_15 
REMARK    5  A    between atoms: C_16  and  C_10 
REMARK    6  A    between atoms: O_11  and  C_16 
ROOT
ATOM      1  C   UNL d   1      50.566  34.423  52.910  0.00  0.00     0.040 C 
ENDROOT
BRANCH   1   2
ATOM      2  C   UNL d   1      51.291  34.138  52.642  0.00  0.00     0.034 C 
BRANCH   2   3
ATOM      3  C   UNL d   1      51.789  33.729  53.162  0.00  0.00     0.123 C 
BRANCH   3   4
ATOM      4  O   UNL d   1      52.591  33.669  52.981  0.00  0.00    -0.305 OA
BRANCH   4   5
ATOM      5  C   UNL d   1      53.080  33.184  53.431  0.00  0.00     0.100 A 
ATOM      6  C   UNL d   1      53.518  33.502  54.053  0.00  0.00     0.025 A 
ATOM      7  C   UNL d   1      54.012  33.006  54.506  0.00  0.00     0.002 A 
ATOM      8  C   UNL d   1      54.449  33.323  55.128  0.00  0.00     0.000 C 
ATOM      9  C   UNL d   1      54.061  32.201  54.330  0.00  0.00     0.000 A 
ATOM     10  C   UNL d   1      53.615  31.888  53.700  0.00  0.00     0.002 A 
ATOM     11  C   UNL d   1      53.125  32.377  53.249  0.00  0.00     0.025 A 
ENDBRANCH   4   5
ENDBRANCH   3   4
ENDBRANCH   2   3
ENDBRANCH   1   2
BRANCH   1  12
ATOM     12  S   UNL d   1      49.926  34.462  52.390  0.00  0.00    -0.048 SA
BRANCH  12  13
ATOM     13  C   UNL d   1      49.290  34.961  52.548  0.00  0.00     0.194 A 
ATOM     14  N   UNL d   1      49.164  35.399  53.242  0.00  0.00    -0.220 NA
ATOM     15  C   UNL d   1      48.454  35.820  53.155  0.00  0.00     0.101 A 
ATOM     16  C   UNL d   1      48.060  36.339  53.663  0.00  0.00     0.021 A 
ATOM     17  C   UNL d   1      48.132  35.647  52.406  0.00  0.00     0.101 A 
ATOM     18  C   UNL d   1      47.350  36.685  53.430  0.00  0.00     0.002 A 
ATOM     19  C   UNL d   1      47.031  36.514  52.689  0.00  0.00     0.002 A 
ATOM     20  C   UNL d   1      47.422  35.997  52.181  0.00  0.00     0.021 A 
ATOM     21  N   UNL d   1      48.652  35.112  52.028  0.00  0.00    -0.220 NA
ENDBRANCH  12  13
ENDBRANCH   1  12
TORSDOF 6
ENDMDL
MODEL 3
REMARK VINA RESULT:      -6.8      1.301      1.867
REMARK  6 active torsions:
REMARK  status: ('A' for Active; 'I' for Inactive)
REMARK    1  A    between atoms: S_6  and  C_1 
REMARK    2  A    between atoms: C_15  and  S_6 
REMARK    3  A    between atoms: C_8  and  O_11 
REMARK    4  A    between atoms: C_10  and  C_15 
REMARK    5  A    between atoms: C_16  and  C_10 
REMARK    6  A    between atoms: O_11  and  C_16 
ROOT
ATOM      1  C   UNL d   1      51.362  33.618  52.879  0.00  0.00     0.040 C 
ENDROOT
BRANCH   1   2
ATOM      2  C   UNL d   1      51.066  34.387  52.863  0.00  0.00     0.034 C 
BRANCH   2   3
ATOM      3  C   UNL d   1      50.343  34.541  52.491  0.00  0.00     0.123 C 
BRANCH   3   4
ATOM      4  O   UNL d   1      49.672  34.659  52.957  0.00  0.00    -0.305 OA
BRANCH   4   5
ATOM      5  C   UNL d   1      49.015  35.043  52.645  0.00  0.00     0.100 A 
ATOM      6  C   UNL d   1      48.716  34.818  51.910  0.00  0.00     0.025 A 
ATOM      7  C   UNL d   1      48.050  35.211  51.598  0.00  0.00     0.002 A 
ATOM      8  C   UNL d   1      47.751  34.986  50.864  0.00  0.00     0.000 C 
ATOM      9  C   UNL d   1      47.693  35.821  52.024  0.00  0.00     0.000 A 
ATOM     10  C   UNL d   1      48.002  36.042  52.766  0.00  0.00     0.002 A 
ATOM     11  C   UNL d   1      48.662  35.655  53.078  0.00  0.00     0.025 A 
ENDBRANCH   4   5
ENDBRANCH   3   4
ENDBRANCH   2   3
ENDBRANCH   1   2
BRANCH   1  12
ATOM     12  S   UNL d   1      52.173  33.493  52.792  0.00  0.00    -0.048 SA
BRANCH  12  13
ATOM     13  C   UNL d   1      52.500  32.754  52.956  0.00  0.00     0.194 A 
ATOM     14  N   UNL d   1      52.234  32.020  52.673  0.00  0.00    -0.220 NA
ATOM     15  C   UNL d   1      52.731  31.431  52.982  0.00  0.00     0.101 A 
ATOM     16  C   UNL d   1      52.729  30.610  52.889  0.00  0.00     0.021 A 
ATOM     17  C   UNL d   1      53.309  31.793  53.460  0.00  0.00     0.101 A 
ATOM     18  C   UNL d   1      53.298  30.150  53.267  0.00  0.00     0.002 A 
ATOM     19  C   UNL d   1      53.871  30.509  53.740  0.00  0.00     0.002 A 
ATOM     20  C   UNL d   1      53.874  31.327  53.834  0.00  0.00     0.021 A 
ATOM     21  N   UNL d   1      53.166  32.617  53.444  0.00  0.00    -0.220 NA
ENDBRANCH  12  13
ENDBRANCH   1  12
TORSDOF 6
ENDMDL
MODEL 4
REMARK VINA RESULT:      -5.8      2.364      6.004
REMARK  6 active torsions:
REMARK  status: ('A' for Active; 'I' for Inactive)
REMARK    1  A    between atoms: S_6  and  C_1 
REMARK    2  A    between atoms: C_15  and  S_6 
REMARK    3  A    between atoms: C_8  and  O_11 
REMARK    4  A    between atoms: C_10  and  C_15 
REMARK    5  A    between atoms: C_16  and  C_10 
REMARK    6  A    between atoms: O_11  and  C_16 
ROOT
ATOM      1  C   UNL d   1      52.425  33.140  52.772  0.00  0.00     0.040 C 
ENDROOT
BRANCH   1   2
ATOM      2  C   UNL d   1      52.994  32.780  53.247  0.00  0.00     0.034 C 
BRANCH   2   3
ATOM      3  C   UNL d   1      53.201  31.989  53.111  0.00  0.00     0.123 C 
BRANCH   3   4
ATOM      4  O   UNL d   1      53.343  31.498  53.759  0.00  0.00    -0.305 OA
BRANCH   4   5
ATOM      5  C   UNL d   1      53.239  30.685  53.690  0.00  0.00     0.100 A 
ATOM      6  C   UNL d   1      53.409  30.191  54.328  0.00  0.00     0.025 A 
ATOM      7  C   UNL d   1      53.301  29.368  54.252  0.00  0.00     0.002 A 
ATOM      8  C   UNL d   1      53.470  28.874  54.890  0.00  0.00     0.000 C 
ATOM      9  C   UNL d   1      53.026  29.051  53.542  0.00  0.00     0.000 A 
ATOM     10  C   UNL d   1      52.857  29.557  52.902  0.00  0.00     0.002 A 
ATOM     11  C   UNL d   1      52.962  30.373  52.973  0.00  0.00     0.025 A 
ENDBRANCH   4   5
ENDBRANCH   3   4
ENDBRANCH   2   3
ENDBRANCH   1   2
BRANCH   1  12
ATOM     12  S   UNL d   1      52.137  33.885  52.979  0.00  0.00    -0.048 SA
BRANCH  12  13
ATOM     13  C   UNL d   1      51.382  34.119  52.745  0.00  0.00     0.194 A 
ATOM     14  N   UNL d   1      50.813  34.499  53.215  0.00  0.00    -0.220 NA
ATOM     15  C   UNL d   1      50.138  34.626  52.749  0.00  0.00     0.101 A 
ATOM     16  C   UNL d   1      49.411  34.978  52.923  0.00  0.00     0.021 A 
ATOM     17  C   UNL d   1      50.281  34.327  51.985  0.00  0.00     0.101 A 
ATOM     18  C   UNL d   1      48.828  35.031  52.344  0.00  0.00     0.002 A 
ATOM     19  C   UNL d   1      48.970  34.734  51.587  0.00  0.00     0.002 A 
ATOM     20  C   UNL d   1      49.695  34.384  51.411  0.00  0.00     0.021 A 
ATOM     21  N   UNL d   1      51.056  34.010  51.982  0.00  0.00    -0.220 NA
ENDBRANCH  12  13
ENDBRANCH   1  12
TORSDOF 6
ENDMDL
MODEL 5
REMARK VINA RESULT:      -5.4      2.103      6.083
REMARK  6 active torsions:
REMARK  status: ('A' for Active; 'I' for Inactive)
REMARK    1  A    between atoms: S_6  and  C_1 
REMARK    2  A    between atoms: C_15  and  S_6 
REMARK    3  A    between atoms: C_8  and  O_11 
REMARK    4  A    between atoms: C_10  and  C_15 
REMARK    5  A    between atoms: C_16  and  C_10 
REMARK    6  A    between atoms: O_11  and  C_16 
ROOT
ATOM      1  C   UNL d   1      49.229  35.186  52.357  0.00  0.00     0.040 C 
ENDROOT
BRANCH   1   2
ATOM      2  C   UNL d   1      49.773  34.576  52.456  0.00  0.00     0.034 C 
BRANCH   2   3
ATOM      3  C   UNL d   1      50.509  34.734  52.803  0.00  0.00     0.123 C 
BRANCH   3   4
ATOM      4  O   UNL d   1      51.183  34.378  52.486  0.00  0.00    -0.305 OA
BRANCH   4   5
ATOM      5  C   UNL d   1      51.863  34.305  52.944  0.00  0.00     0.100 A 
ATOM      6  C   UNL d   1      52.134  33.557  53.163  0.00  0.00     0.025 A 
ATOM      7  C   UNL d   1      52.824  33.489  53.627  0.00  0.00     0.002 A 
ATOM      8  C   UNL d   1      53.095  32.743  53.846  0.00  0.00     0.000 C 
ATOM      9  C   UNL d   1      53.231  34.167  53.863  0.00  0.00     0.000 A 
ATOM     10  C   UNL d   1      52.950  34.918  53.638  0.00  0.00     0.002 A 
ATOM     11  C   UNL d   1      52.267  34.990  53.179  0.00  0.00     0.025 A 
ENDBRANCH   4   5
ENDBRANCH   3   4
ENDBRANCH   2   3
ENDBRANCH   1   2
BRANCH   1  12
ATOM     12  S   UNL d   1      48.554  35.058  51.900  0.00  0.00    -0.048 SA
BRANCH  12  13
ATOM     13  C   UNL d   1      47.847  35.439  52.085  0.00  0.00     0.194 A 
ATOM     14  N   UNL d   1      47.601  35.689  52.838  0.00  0.00    -0.220 NA
ATOM     15  C   UNL d   1      46.854  36.044  52.759  0.00  0.00     0.101 A 
ATOM     16  C   UNL d   1      46.351  36.388  53.317  0.00  0.00     0.021 A 
ATOM     17  C   UNL d   1      46.629  36.017  51.958  0.00  0.00     0.101 A 
ATOM     18  C   UNL d   1      45.628  36.704  53.081  0.00  0.00     0.002 A 
ATOM     19  C   UNL d   1      45.406  36.678  52.287  0.00  0.00     0.002 A 
ATOM     20  C   UNL d   1      45.906  36.335  51.730  0.00  0.00     0.021 A 
ATOM     21  N   UNL d   1      47.247  35.640  51.537  0.00  0.00    -0.220 NA
ENDBRANCH  12  13
ENDBRANCH   1  12
TORSDOF 6
ENDMDL
MODEL 6
REMARK VINA RESULT:      -5.1     10.309     10.858
REMARK  6 active torsions:
REMARK  status: ('A' for Active; 'I' for Inactive)
REMARK    1  A    between atoms: S_6  and  C_1 
REMARK    2  A    between atoms: C_15  and  S_6 
REMARK    3  A    between atoms: C_8  and  O_11 
REMARK    4  A    between atoms: C_10  and  C_15 
REMARK    5  A    between atoms: C_16  and  C_10 
REMARK    6  A    between atoms: O_11  and  C_16 
ROOT
ATOM      1  C   UNL d   1      44.940  26.947  56.978  0.00  0.00     0.040 C 
ENDROOT
BRANCH   1   2
ATOM      2  C   UNL d   1      45.203  27.410  57.606  0.00  0.00     0.034 C 
BRANCH   2   3
ATOM      3  C   UNL d   1      45.008  28.215  57.633  0.00  0.00     0.123 C 
BRANCH   3   4
ATOM      4  O   UNL d   1      45.466  28.721  58.097  0.00  0.00    -0.305 OA
BRANCH   4   5
ATOM      5  C   UNL d   1      45.197  29.479  58.267  0.00  0.00     0.100 A 
ATOM      6  C   UNL d   1      45.130  29.727  59.051  0.00  0.00     0.025 A 
ATOM      7  C   UNL d   1      44.857  30.497  59.218  0.00  0.00     0.002 A 
ATOM      8  C   UNL d   1      44.790  30.745  60.001  0.00  0.00     0.000 C 
ATOM      9  C   UNL d   1      44.655  31.006  58.601  0.00  0.00     0.000 A 
ATOM     10  C   UNL d   1      44.726  30.748  57.812  0.00  0.00     0.002 A 
ATOM     11  C   UNL d   1      44.996  29.986  57.642  0.00  0.00     0.025 A 
ENDBRANCH   4   5
ENDBRANCH   3   4
ENDBRANCH   2   3
ENDBRANCH   1   2
BRANCH   1  12
ATOM     12  S   UNL d   1      44.679  26.177  57.122  0.00  0.00    -0.048 SA
BRANCH  12  13
ATOM     13  C   UNL d   1      44.677  25.618  56.517  0.00  0.00     0.194 A 
ATOM     14  N   UNL d   1      44.381  25.720  55.748  0.00  0.00    -0.220 NA
ATOM     15  C   UNL d   1      44.498  25.010  55.332  0.00  0.00     0.101 A 
ATOM     16  C   UNL d   1      44.314  24.795  54.556  0.00  0.00     0.021 A 
ATOM     17  C   UNL d   1      44.866  24.461  55.839  0.00  0.00     0.101 A 
ATOM     18  C   UNL d   1      44.495  24.040  54.283  0.00  0.00     0.002 A 
ATOM     19  C   UNL d   1      44.860  23.496  54.785  0.00  0.00     0.002 A 
ATOM     20  C   UNL d   1      45.044  23.709  55.559  0.00  0.00     0.021 A 
ATOM     21  N   UNL d   1      44.978  24.839  56.577  0.00  0.00    -0.220 NA
ENDBRANCH  12  13
ENDBRANCH   1  12
TORSDOF 6
ENDMDL
MODEL 7
REMARK VINA RESULT:      -5.0     10.329     10.844
REMARK  6 active torsions:
REMARK  status: ('A' for Active; 'I' for Inactive)
REMARK    1  A    between atoms: S_6  and  C_1 
REMARK    2  A    between atoms: C_15  and  S_6 
REMARK    3  A    between atoms: C_8  and  O_11 
REMARK    4  A    between atoms: C_10  and  C_15 
REMARK    5  A    between atoms: C_16  and  C_10 
REMARK    6  A    between atoms: O_11  and  C_16 
ROOT
ATOM      1  C   UNL d   1      45.012  27.526  57.445  0.00  0.00     0.040 C 
ENDROOT
BRANCH   1   2
ATOM      2  C   UNL d   1      45.300  28.294  57.526  0.00  0.00     0.034 C 
BRANCH   2   3
ATOM      3  C   UNL d   1      44.975  28.795  58.100  0.00  0.00     0.123 C 
BRANCH   3   4
ATOM      4  O   UNL d   1      45.429  29.423  58.384  0.00  0.00    -0.305 OA
BRANCH   4   5
ATOM      5  C   UNL d   1      45.070  30.041  58.789  0.00  0.00     0.100 A 
ATOM      6  C   UNL d   1      45.061  30.045  59.614  0.00  0.00     0.025 A 
ATOM      7  C   UNL d   1      44.695  30.675  60.019  0.00  0.00     0.002 A 
ATOM      8  C   UNL d   1      44.686  30.679  60.843  0.00  0.00     0.000 C 
ATOM      9  C   UNL d   1      44.344  31.290  59.596  0.00  0.00     0.000 A 
ATOM     10  C   UNL d   1      44.357  31.279  58.763  0.00  0.00     0.002 A 
ATOM     11  C   UNL d   1      44.719  30.656  58.358  0.00  0.00     0.025 A 
ENDBRANCH   4   5
ENDBRANCH   3   4
ENDBRANCH   2   3
ENDBRANCH   1   2
BRANCH   1  12
ATOM     12  S   UNL d   1      45.079  27.142  56.718  0.00  0.00    -0.048 SA
BRANCH  12  13
ATOM     13  C   UNL d   1      44.930  26.333  56.659  0.00  0.00     0.194 A 
ATOM     14  N   UNL d   1      45.040  25.857  55.988  0.00  0.00    -0.220 NA
ATOM     15  C   UNL d   1      44.819  25.081  56.185  0.00  0.00     0.101 A 
ATOM     16  C   UNL d   1      44.813  24.384  55.741  0.00  0.00     0.021 A 
ATOM     17  C   UNL d   1      44.569  25.068  56.980  0.00  0.00     0.101 A 
ATOM     18  C   UNL d   1      44.561  23.679  56.083  0.00  0.00     0.002 A 
ATOM     19  C   UNL d   1      44.314  23.667  56.870  0.00  0.00     0.002 A 
ATOM     20  C   UNL d   1      44.319  24.360  57.314  0.00  0.00     0.021 A 
ATOM     21  N   UNL d   1      44.638  25.849  57.276  0.00  0.00    -0.220 NA
ENDBRANCH  12  13
ENDBRANCH   1  12
TORSDOF 6
ENDMDL
MODEL 8
REMARK VINA RESULT:      -4.9     10.606     11.288
REMARK  6 active torsions:
REMARK  status: ('A' for Active; 'I' for Inactive)
REMARK    1  A    between atoms: S_6  and  C_1 
REMARK    2  A    between atoms: C_15  and  S_6 
REMARK    3  A    between atoms: C_8  and  O_11 
REMARK    4  A    between atoms: C_10  and  C_15 
REMARK    5  A    between atoms: C_16  and  C_10 
REMARK    6  A    between atoms: O_11  and  C_16 
ROOT
ATOM      1  C   UNL d   1      44.965  30.083  59.942  0.00  0.00     0.040 C 
ENDROOT
BRANCH   1   2
ATOM      2  C   UNL d   1      44.808  29.798  59.184  0.00  0.00     0.034 C 
BRANCH   2   3
ATOM      3  C   UNL d   1      44.921  28.996  59.016  0.00  0.00     0.123 C 
BRANCH   3   4
ATOM      4  O   UNL d   1      45.146  28.777  58.253  0.00  0.00    -0.305 OA
BRANCH   4   5
ATOM      5  C   UNL d   1      45.064  27.996  58.007  0.00  0.00     0.100 A 
ATOM      6  C   UNL d   1      44.904  27.826  57.216  0.00  0.00     0.025 A 
ATOM      7  C   UNL d   1      44.822  27.032  56.974  0.00  0.00     0.002 A 
ATOM      8  C   UNL d   1      44.662  26.862  56.184  0.00  0.00     0.000 C 
ATOM      9  C   UNL d   1      44.903  26.422  57.524  0.00  0.00     0.000 A 
ATOM     10  C   UNL d   1      45.065  26.602  58.320  0.00  0.00     0.002 A 
ATOM     11  C   UNL d   1      45.146  27.387  58.565  0.00  0.00     0.025 A 
ENDBRANCH   4   5
ENDBRANCH   3   4
ENDBRANCH   2   3
ENDBRANCH   1   2
BRANCH   1  12
ATOM     12  S   UNL d   1      44.501  30.690  60.252  0.00  0.00    -0.048 SA
BRANCH  12  13
ATOM     13  C   UNL d   1      44.458  30.806  61.067  0.00  0.00     0.194 A 
ATOM     14  N   UNL d   1      44.431  31.535  61.464  0.00  0.00    -0.220 NA
ATOM     15  C   UNL d   1      44.390  31.382  62.279  0.00  0.00     0.101 A 
ATOM     16  C   UNL d   1      44.352  31.891  62.929  0.00  0.00     0.021 A 
ATOM     17  C   UNL d   1      44.391  30.558  62.396  0.00  0.00     0.101 A 
ATOM     18  C   UNL d   1      44.314  31.583  63.692  0.00  0.00     0.002 A 
ATOM     19  C   UNL d   1      44.315  30.766  63.808  0.00  0.00     0.002 A 
ATOM     20  C   UNL d   1      44.353  30.258  63.161  0.00  0.00     0.021 A 
ATOM     21  N   UNL d   1      44.433  30.198  61.642  0.00  0.00    -0.220 NA
ENDBRANCH  12  13
ENDBRANCH   1  12
TORSDOF 6
ENDMDL
MODEL 9
REMARK VINA RESULT:      -4.9     10.450     10.940
REMARK  6 active torsions:
REMARK  status: ('A' for Active; 'I' for Inactive)
REMARK    1  A    between atoms: S_6  and  C_1 
REMARK    2  A    between atoms: C_15  and  S_6 
REMARK    3  A    between atoms: C_8  and  O_11 
REMARK    4  A    between atoms: C_10  and  C_15 
REMARK    5  A    between atoms: C_16  and  C_10 
REMARK    6  A    between atoms: O_11  and  C_16 
ROOT
ATOM      1  C   UNL d   1      44.734  26.214  56.215  0.00  0.00     0.040 C 
ENDROOT
BRANCH   1   2
ATOM      2  C   UNL d   1      44.992  26.726  56.807  0.00  0.00     0.034 C 
BRANCH   2   3
ATOM      3  C   UNL d   1      44.773  27.524  56.784  0.00  0.00     0.123 C 
BRANCH   3   4
ATOM      4  O   UNL d   1      45.321  28.095  57.017  0.00  0.00    -0.305 OA
BRANCH   4   5
ATOM      5  C   UNL d   1      45.078  28.870  57.149  0.00  0.00     0.100 A 
ATOM      6  C   UNL d   1      44.865  29.350  56.513  0.00  0.00     0.025 A 
ATOM      7  C   UNL d   1      44.619  30.134  56.654  0.00  0.00     0.002 A 
ATOM      8  C   UNL d   1      44.406  30.614  56.019  0.00  0.00     0.000 C 
ATOM      9  C   UNL d   1      44.591  30.427  57.425  0.00  0.00     0.000 A 
ATOM     10  C   UNL d   1      44.808  29.935  58.061  0.00  0.00     0.002 A 
ATOM     11  C   UNL d   1      45.052  29.157  57.927  0.00  0.00     0.025 A 
ENDBRANCH   4   5
ENDBRANCH   3   4
ENDBRANCH   2   3
ENDBRANCH   1   2
BRANCH   1  12
ATOM     12  S   UNL d   1      44.706  25.403  56.362  0.00  0.00    -0.048 SA
BRANCH  12  13
ATOM     13  C   UNL d   1      44.718  24.865  55.738  0.00  0.00     0.194 A 
ATOM     14  N   UNL d   1      44.370  24.965  54.991  0.00  0.00    -0.220 NA
ATOM     15  C   UNL d   1      44.524  24.282  54.543  0.00  0.00     0.101 A 
ATOM     16  C   UNL d   1      44.314  24.077  53.771  0.00  0.00     0.021 A 
ATOM     17  C   UNL d   1      44.969  23.753  55.007  0.00  0.00     0.101 A 
ATOM     18  C   UNL d   1      44.545  23.350  53.460  0.00  0.00     0.002 A 
ATOM     19  C   UNL d   1      44.986  22.826  53.920  0.00  0.00     0.002 A 
ATOM     20  C   UNL d   1      45.196  23.029  54.690  0.00  0.00     0.021 A 
ATOM     21  N   UNL d   1      45.090  24.116  55.752  0.00  0.00    -0.220 NA
ENDBRANCH  12  13
ENDBRANCH   1  12
TORSDOF 6
ENDMDL
