MODEL 1
REMARK VINA RESULT:      70.5      0.000      0.000
REMARK  3 active torsions:
REMARK  status: ('A' for Active; 'I' for Inactive)
REMARK    1  A    between atoms: N_2  and  S_1 
REMARK    2  A    between atoms: C_3  and  S_1 
REMARK    3  A    between atoms: C_5  and  N_4 
ROOT
ATOM      1  N   UNL d   1     -49.965  26.859  34.068  0.00  0.00    -0.226 N 
ATOM      2  N   UNL d   1     -50.809  25.473  33.766  0.00  0.00    -0.301 N 
ATOM      3  C   UNL d   1     -50.753  26.790  34.328  0.00  0.00     0.111 A 
ATOM      4  C   UNL d   1     -49.611  26.239  33.663  0.00  0.00     0.111 A 
ATOM      5  C   UNL d   1     -50.033  25.547  33.512  0.00  0.00     0.100 A 
ATOM      6  C   UNL d   1     -51.175  26.097  34.177  0.00  0.00     0.100 A 
ENDROOT
BRANCH   1   7
ATOM      7  S   UNL d   1     -49.543  27.551  34.219  0.00  0.00     0.271 S 
ATOM      8  O   UNL d   1     -49.675  27.801  33.445  0.00  0.00    -0.200 OA
ATOM      9  O   UNL d   1     -49.411  27.301  34.995  0.00  0.00    -0.200 OA
BRANCH   7  10
ATOM     10  C   UNL d   1     -49.121  28.244  34.371  0.00  0.00     0.104 A 
ATOM     11  C   UNL d   1     -48.561  28.263  34.969  0.00  0.00     0.015 A 
ATOM     12  C   UNL d   1     -48.139  28.954  35.120  0.00  0.00     0.028 A 
ATOM     13  C   UNL d   1     -47.575  28.969  35.724  0.00  0.00     0.002 C 
ATOM     14  C   UNL d   1     -48.279  29.628  34.673  0.00  0.00     0.140 A 
ATOM     15  C   UNL d   1     -48.846  29.615  34.064  0.00  0.00     0.030 A 
ATOM     16  F   UNL d   1     -47.857  30.320  34.824  0.00  0.00    -0.204 F 
ATOM     17  C   UNL d   1     -49.268  28.924  33.913  0.00  0.00     0.015 A 
ENDBRANCH   7  10
ENDBRANCH   1   7
BRANCH   2  18
ATOM     18  C   UNL d   1     -51.229  24.784  33.615  0.00  0.00     0.064 A 
ATOM     19  C   UNL d   1     -52.047  24.803  33.555  0.00  0.00     0.016 A 
ATOM     20  C   UNL d   1     -52.469  24.111  33.404  0.00  0.00     0.001 A 
ATOM     21  C   UNL d   1     -52.449  25.520  33.647  0.00  0.00     0.002 C 
ATOM     22  C   UNL d   1     -52.071  23.400  33.313  0.00  0.00     0.000 A 
ATOM     23  C   UNL d   1     -51.243  23.371  33.372  0.00  0.00     0.001 A 
ATOM     24  C   UNL d   1     -50.821  24.064  33.523  0.00  0.00     0.016 A 
ATOM     25  C   UNL d   1     -50.002  24.044  33.582  0.00  0.00     0.002 C 
ENDBRANCH   2  18
TORSDOF 3
ENDMDL
