MODEL 1
REMARK VINA RESULT:       1.6      0.000      0.000
REMARK  1 active torsions:
REMARK  status: ('A' for Active; 'I' for Inactive)
REMARK       I    between atoms: N_2  and  C_1 
REMARK    1  A    between atoms: C_5  and  N_2 
ROOT
ATOM      1  C   UNL d   1      44.529 -15.644  36.896  0.00  0.00     0.100 A 
ATOM      2  C   UNL d   1      42.883 -15.526  36.883  0.00  0.00     0.000 A 
ATOM      3  C   UNL d   1      44.143 -15.162  37.447  0.00  0.00     0.020 A 
ATOM      4  C   UNL d   1      44.091 -16.067  36.340  0.00  0.00     0.020 A 
ATOM      5  C   UNL d   1      43.321 -15.103  37.440  0.00  0.00     0.002 A 
ATOM      6  C   UNL d   1      43.269 -16.008  36.332  0.00  0.00     0.002 A 
ATOM      7  C   UNL d   1      42.057 -15.468  36.874  0.00  0.00     0.000 C 
ENDROOT
BRANCH   1   8
ATOM      8  N   UNL d   1      45.353 -15.705  36.901  0.00  0.00    -0.056 NA
ATOM      9  C   UNL d   1      45.817 -15.035  36.798  0.00  0.00     0.787 C 
ATOM     10  N   UNL d   1      46.647 -15.089  36.802  0.00  0.00     0.064 N 
ATOM     11  N   UNL d   1      45.454 -14.300  36.691  0.00  0.00     0.064 N 
ENDBRANCH   1   8
TORSDOF 1
ENDMDL
MODEL 2
REMARK VINA RESULT:       3.3      7.269      7.872
REMARK  1 active torsions:
REMARK  status: ('A' for Active; 'I' for Inactive)
REMARK       I    between atoms: N_2  and  C_1 
REMARK    1  A    between atoms: C_5  and  N_2 
ROOT
ATOM      1  C   UNL d   1      45.297 -14.282  44.578  0.00  0.00     0.100 A 
ATOM      2  C   UNL d   1      45.371 -12.816  43.824  0.00  0.00     0.000 A 
ATOM      3  C   UNL d   1      45.860 -13.723  44.813  0.00  0.00     0.020 A 
ATOM      4  C   UNL d   1      44.772 -14.107  43.967  0.00  0.00     0.020 A 
ATOM      5  C   UNL d   1      45.896 -12.990  44.436  0.00  0.00     0.002 A 
ATOM      6  C   UNL d   1      44.809 -13.375  43.589  0.00  0.00     0.002 A 
ATOM      7  C   UNL d   1      45.406 -12.081  43.444  0.00  0.00     0.000 C 
ENDROOT
BRANCH   1   8
ATOM      8  N   UNL d   1      45.258 -15.017  44.955  0.00  0.00    -0.056 NA
ATOM      9  C   UNL d   1      45.551 -15.687  44.582  0.00  0.00     0.787 C 
ATOM     10  N   UNL d   1      45.515 -16.430  44.955  0.00  0.00     0.064 N 
ATOM     11  N   UNL d   1      45.886 -15.621  43.829  0.00  0.00     0.064 N 
ENDBRANCH   1   8
TORSDOF 1
ENDMDL
MODEL 3
REMARK VINA RESULT:       3.5      7.242      7.826
REMARK  1 active torsions:
REMARK  status: ('A' for Active; 'I' for Inactive)
REMARK       I    between atoms: N_2  and  C_1 
REMARK    1  A    between atoms: C_5  and  N_2 
ROOT
ATOM      1  C   UNL d   1      45.529 -13.978  44.413  0.00  0.00     0.100 A 
ATOM      2  C   UNL d   1      45.513 -15.588  44.774  0.00  0.00     0.000 A 
ATOM      3  C   UNL d   1      44.845 -14.327  44.719  0.00  0.00     0.020 A 
ATOM      4  C   UNL d   1      46.205 -14.434  44.288  0.00  0.00     0.020 A 
ATOM      5  C   UNL d   1      44.837 -15.132  44.899  0.00  0.00     0.002 A 
ATOM      6  C   UNL d   1      46.197 -15.239  44.469  0.00  0.00     0.002 A 
ATOM      7  C   UNL d   1      45.507 -16.396  44.955  0.00  0.00     0.000 C 
ENDROOT
BRANCH   1   8
ATOM      8  N   UNL d   1      45.540 -13.171  44.232  0.00  0.00    -0.056 NA
ATOM      9  C   UNL d   1      45.128 -12.890  43.580  0.00  0.00     0.787 C 
ATOM     10  N   UNL d   1      45.134 -12.080  43.391  0.00  0.00     0.064 N 
ATOM     11  N   UNL d   1      44.702 -13.418  43.107  0.00  0.00     0.064 N 
ENDBRANCH   1   8
TORSDOF 1
ENDMDL
