MODEL 1
REMARK VINA RESULT:      -3.9      0.000      0.000
REMARK  4 active torsions:
REMARK  status: ('A' for Active; 'I' for Inactive)
REMARK    1  A    between atoms: C_7  and  N_1 
REMARK    2  A    between atoms: C_6  and  C_4 
REMARK    3  A    between atoms: C_12  and  C_6 
REMARK    4  A    between atoms: C_8  and  C_7 
ROOT
ATOM      1  N   UNL d   1      58.904   0.484  30.178  0.00  0.00    -0.229 N 
ATOM      2  C   UNL d   1      59.099   0.601  30.971  0.00  0.00     0.299 A 
ATOM      3  C   UNL d   1      58.074   0.492  30.106  0.00  0.00     0.274 A 
ATOM      4  C   UNL d   1      57.752   0.614  30.863  0.00  0.00     0.090 A 
ATOM      5  S   UNL d   1      58.385   0.682  31.396  0.00  0.00    -0.022 SA
ATOM      6  O   UNL d   1      59.862   0.633  31.290  0.00  0.00    -0.259 OA
ATOM      7  O   UNL d   1      57.649   0.394  29.403  0.00  0.00    -0.266 OA
ENDROOT
BRANCH   4   8
ATOM      8  C   UNL d   1      56.953   0.660  31.050  0.00  0.00     0.011 C 
BRANCH   8   9
ATOM      9  C   UNL d   1      56.770   0.180  31.699  0.00  0.00     0.001 A 
ATOM     10  C   UNL d   1      56.703   0.514  32.453  0.00  0.00     0.003 A 
ATOM     11  C   UNL d   1      56.522   0.033  33.096  0.00  0.00     0.042 A 
ATOM     12  C   UNL d   1      56.407  -0.776  32.991  0.00  0.00     0.196 A 
ATOM     13  C   UNL d   1      56.475  -1.101  32.239  0.00  0.00     0.042 A 
ATOM     14  O   UNL d   1      56.224  -1.261  33.639  0.00  0.00    -0.287 OA
ATOM     15  C   UNL d   1      56.656  -0.630  31.594  0.00  0.00     0.003 A 
ENDBRANCH   8   9
ENDBRANCH   4   8
BRANCH   1  16
ATOM     16  C   UNL d   1      59.562   0.395  29.689  0.00  0.00     0.157 C 
BRANCH  16  17
ATOM     17  C   UNL d   1      59.672  -0.307  29.262  0.00  0.00     0.230 C 
ATOM     18  O   UNL d   1      59.480  -0.340  28.457  0.00  0.00    -0.643 OA
ATOM     19  O   UNL d   1      59.973  -0.978  29.637  0.00  0.00    -0.643 OA
ENDBRANCH  16  17
ENDBRANCH   1  16
TORSDOF 4
ENDMDL
MODEL 2
REMARK VINA RESULT:      -2.8      1.470      4.096
REMARK  4 active torsions:
REMARK  status: ('A' for Active; 'I' for Inactive)
REMARK    1  A    between atoms: C_7  and  N_1 
REMARK    2  A    between atoms: C_6  and  C_4 
REMARK    3  A    between atoms: C_12  and  C_6 
REMARK    4  A    between atoms: C_8  and  C_7 
ROOT
ATOM      1  N   UNL d   1      56.615  -0.428  32.739  0.00  0.00    -0.229 N 
ATOM      2  C   UNL d   1      56.527  -0.819  32.018  0.00  0.00     0.299 A 
ATOM      3  C   UNL d   1      57.196   0.163  32.650  0.00  0.00     0.274 A 
ATOM      4  C   UNL d   1      57.471   0.136  31.865  0.00  0.00     0.090 A 
ATOM      5  S   UNL d   1      57.058  -0.469  31.476  0.00  0.00    -0.022 SA
ATOM      6  O   UNL d   1      56.009  -1.444  31.858  0.00  0.00    -0.259 OA
ATOM      7  O   UNL d   1      57.453   0.682  33.240  0.00  0.00    -0.266 OA
ENDROOT
BRANCH   4   8
ATOM      8  C   UNL d   1      58.047   0.621  31.534  0.00  0.00     0.011 C 
BRANCH   8   9
ATOM      9  C   UNL d   1      58.231   0.382  30.764  0.00  0.00     0.001 A 
ATOM     10  C   UNL d   1      57.798   0.682  30.125  0.00  0.00     0.003 A 
ATOM     11  C   UNL d   1      57.983   0.443  29.360  0.00  0.00     0.042 A 
ATOM     12  C   UNL d   1      58.595  -0.093  29.228  0.00  0.00     0.196 A 
ATOM     13  C   UNL d   1      59.021  -0.387  29.867  0.00  0.00     0.042 A 
ATOM     14  O   UNL d   1      58.782  -0.334  28.457  0.00  0.00    -0.287 OA
ATOM     15  C   UNL d   1      58.843  -0.153  30.632  0.00  0.00     0.003 A 
ENDBRANCH   8   9
ENDBRANCH   4   8
BRANCH   1  16
ATOM     16  C   UNL d   1      56.120  -0.717  33.331  0.00  0.00     0.157 C 
BRANCH  16  17
ATOM     17  C   UNL d   1      55.561  -0.220  33.688  0.00  0.00     0.230 C 
ATOM     18  O   UNL d   1      54.770  -0.241  33.445  0.00  0.00    -0.643 OA
ATOM     19  O   UNL d   1      55.791   0.299  34.287  0.00  0.00    -0.643 OA
ENDBRANCH  16  17
ENDBRANCH   1  16
TORSDOF 4
ENDMDL
MODEL 3
REMARK VINA RESULT:      -2.3      1.504      2.139
REMARK  4 active torsions:
REMARK  status: ('A' for Active; 'I' for Inactive)
REMARK    1  A    between atoms: C_7  and  N_1 
REMARK    2  A    between atoms: C_6  and  C_4 
REMARK    3  A    between atoms: C_12  and  C_6 
REMARK    4  A    between atoms: C_8  and  C_7 
ROOT
ATOM      1  N   UNL d   1      59.618  -1.293  29.155  0.00  0.00    -0.229 N 
ATOM      2  C   UNL d   1      59.959  -0.633  29.513  0.00  0.00     0.299 A 
ATOM      3  C   UNL d   1      58.790  -1.206  29.177  0.00  0.00     0.274 A 
ATOM      4  C   UNL d   1      58.617  -0.484  29.552  0.00  0.00     0.090 A 
ATOM      5  S   UNL d   1      59.339  -0.131  29.759  0.00  0.00    -0.022 SA
ATOM      6  O   UNL d   1      60.769  -0.491  29.611  0.00  0.00    -0.259 OA
ATOM      7  O   UNL d   1      58.239  -1.745  28.877  0.00  0.00    -0.266 OA
ENDROOT
BRANCH   4   8
ATOM      8  C   UNL d   1      57.868  -0.175  29.693  0.00  0.00     0.011 C 
BRANCH   8   9
ATOM      9  C   UNL d   1      57.735  -0.072  30.503  0.00  0.00     0.001 A 
ATOM     10  C   UNL d   1      57.291  -0.631  30.921  0.00  0.00     0.003 A 
ATOM     11  C   UNL d   1      57.161  -0.527  31.727  0.00  0.00     0.042 A 
ATOM     12  C   UNL d   1      57.469   0.130  32.116  0.00  0.00     0.196 A 
ATOM     13  C   UNL d   1      57.910   0.682  31.695  0.00  0.00     0.042 A 
ATOM     14  O   UNL d   1      57.338   0.236  32.929  0.00  0.00    -0.287 OA
ATOM     15  C   UNL d   1      58.044   0.585  30.892  0.00  0.00     0.003 A 
ENDBRANCH   8   9
ENDBRANCH   4   8
BRANCH   1  16
ATOM     16  C   UNL d   1      60.171  -1.840  28.884  0.00  0.00     0.157 C 
BRANCH  16  17
ATOM     17  C   UNL d   1      60.080  -2.646  29.058  0.00  0.00     0.230 C 
ATOM     18  O   UNL d   1      60.263  -2.932  29.813  0.00  0.00    -0.643 OA
ATOM     19  O   UNL d   1      59.807  -3.167  28.479  0.00  0.00    -0.643 OA
ENDBRANCH  16  17
ENDBRANCH   1  16
TORSDOF 4
ENDMDL
MODEL 4
REMARK VINA RESULT:      -1.3      2.051      4.105
REMARK  4 active torsions:
REMARK  status: ('A' for Active; 'I' for Inactive)
REMARK    1  A    between atoms: C_7  and  N_1 
REMARK    2  A    between atoms: C_6  and  C_4 
REMARK    3  A    between atoms: C_12  and  C_6 
REMARK    4  A    between atoms: C_8  and  C_7 
ROOT
ATOM      1  N   UNL d   1      58.472  -0.276  29.988  0.00  0.00    -0.229 N 
ATOM      2  C   UNL d   1      58.110  -1.014  30.049  0.00  0.00     0.299 A 
ATOM      3  C   UNL d   1      59.112  -0.338  29.458  0.00  0.00     0.274 A 
ATOM      4  C   UNL d   1      59.146  -1.124  29.188  0.00  0.00     0.090 A 
ATOM      5  S   UNL d   1      58.528  -1.541  29.553  0.00  0.00    -0.022 SA
ATOM      6  O   UNL d   1      57.453  -1.203  30.515  0.00  0.00    -0.259 OA
ATOM      7  O   UNL d   1      59.622   0.275  29.241  0.00  0.00    -0.266 OA
ENDROOT
BRANCH   4   8
ATOM      8  C   UNL d   1      59.692  -1.434  28.657  0.00  0.00     0.011 C 
BRANCH   8   9
ATOM      9  C   UNL d   1      60.052  -2.114  28.961  0.00  0.00     0.001 A 
ATOM     10  C   UNL d   1      59.682  -2.849  28.875  0.00  0.00     0.003 A 
ATOM     11  C   UNL d   1      60.042  -3.524  29.178  0.00  0.00     0.042 A 
ATOM     12  C   UNL d   1      60.767  -3.469  29.566  0.00  0.00     0.196 A 
ATOM     13  C   UNL d   1      61.129  -2.736  29.648  0.00  0.00     0.042 A 
ATOM     14  O   UNL d   1      61.131  -4.149  29.872  0.00  0.00    -0.287 OA
ATOM     15  C   UNL d   1      60.777  -2.059  29.349  0.00  0.00     0.003 A 
ENDBRANCH   8   9
ENDBRANCH   4   8
BRANCH   1  16
ATOM     16  C   UNL d   1      58.115   0.303  30.453  0.00  0.00     0.157 C 
BRANCH  16  17
ATOM     17  C   UNL d   1      58.450   0.519  31.180  0.00  0.00     0.230 C 
ATOM     18  O   UNL d   1      59.266   0.645  31.242  0.00  0.00    -0.643 OA
ATOM     19  O   UNL d   1      57.972   0.611  31.846  0.00  0.00    -0.643 OA
ENDBRANCH  16  17
ENDBRANCH   1  16
TORSDOF 4
ENDMDL
