MODEL 1
REMARK VINA RESULT:      -3.9      0.000      0.000
REMARK  5 active torsions:
REMARK  status: ('A' for Active; 'I' for Inactive)
REMARK    1  A    between atoms: C_7  and  N_1 
REMARK    2  A    between atoms: C_23  and  C_5 
REMARK    3  A    between atoms: C_22  and  C_6 
REMARK    4  A    between atoms: C_8  and  C_7 
REMARK       I    between atoms: N_11  and  C_8 
REMARK    5  A    between atoms: C_17  and  N_11 
ROOT
ATOM      1  C   UNL d   1      57.888  -0.477  29.700  0.00  0.00     0.148 C 
ENDROOT
BRANCH   1   2
ATOM      2  N   UNL d   1      58.616  -0.734  29.408  0.00  0.00    -0.235 N 
ATOM      3  C   UNL d   1      58.815  -1.539  29.447  0.00  0.00     0.273 A 
ATOM      4  C   UNL d   1      59.536  -1.794  29.157  0.00  0.00     0.086 A 
ATOM      5  O   UNL d   1      58.283  -2.080  29.778  0.00  0.00    -0.266 OA
ATOM      6  S   UNL d   1      60.070  -1.266  28.827  0.00  0.00    -0.077 SA
ATOM      7  C   UNL d   1      59.877  -0.468  28.786  0.00  0.00     0.086 A 
ATOM      8  C   UNL d   1      59.153  -0.195  29.075  0.00  0.00     0.273 A 
ATOM      9  O   UNL d   1      58.956   0.605  29.035  0.00  0.00    -0.266 OA
BRANCH   4  10
ATOM     10  C   UNL d   1      59.734  -2.603  29.197  0.00  0.00     0.011 C 
ATOM     11  C   UNL d   1      60.007  -2.994  28.523  0.00  0.00     0.001 C 
ENDBRANCH   4  10
BRANCH   7  12
ATOM     12  C   UNL d   1      60.409   0.069  28.455  0.00  0.00     0.011 C 
ATOM     13  C   UNL d   1      61.132   0.215  28.827  0.00  0.00     0.001 C 
ENDBRANCH   7  12
ENDBRANCH   1   2
BRANCH   1  14
ATOM     14  C   UNL d   1      57.816  -0.270  30.495  0.00  0.00     0.297 C 
ATOM     15  N   UNL d   1      57.077  -0.266  30.845  0.00  0.00    -0.207 NA
ATOM     16  O   UNL d   1      58.491  -0.070  30.926  0.00  0.00    -0.264 OA
BRANCH  15  17
ATOM     17  C   UNL d   1      57.005  -0.059  31.640  0.00  0.00     0.087 A 
ATOM     18  C   UNL d   1      56.409  -0.396  32.099  0.00  0.00     0.045 A 
ATOM     19  C   UNL d   1      56.328  -0.198  32.888  0.00  0.00     0.121 A 
ATOM     20  O   UNL d   1      55.794  -0.440  33.476  0.00  0.00    -0.299 OA
ATOM     21  C   UNL d   1      56.847   0.345  33.231  0.00  0.00     0.119 A 
ATOM     22  C   UNL d   1      55.991  -0.043  34.178  0.00  0.00     0.304 A 
ATOM     23  O   UNL d   1      56.638   0.436  34.016  0.00  0.00    -0.300 OA
ATOM     24  C   UNL d   1      57.445   0.680  32.763  0.00  0.00     0.028 A 
ATOM     25  C   UNL d   1      57.523   0.479  31.972  0.00  0.00     0.021 A 
ENDBRANCH  15  17
ENDBRANCH   1  14
TORSDOF 5
ENDMDL
MODEL 2
REMARK VINA RESULT:      -3.7      0.419      1.634
REMARK  5 active torsions:
REMARK  status: ('A' for Active; 'I' for Inactive)
REMARK    1  A    between atoms: C_7  and  N_1 
REMARK    2  A    between atoms: C_23  and  C_5 
REMARK    3  A    between atoms: C_22  and  C_6 
REMARK    4  A    between atoms: C_8  and  C_7 
REMARK       I    between atoms: N_11  and  C_8 
REMARK    5  A    between atoms: C_17  and  N_11 
ROOT
ATOM      1  C   UNL d   1      58.048  -0.642  29.522  0.00  0.00     0.148 C 
ENDROOT
BRANCH   1   2
ATOM      2  N   UNL d   1      58.817  -0.798  29.263  0.00  0.00    -0.235 N 
ATOM      3  C   UNL d   1      59.294  -0.177  28.990  0.00  0.00     0.273 A 
ATOM      4  C   UNL d   1      60.055  -0.332  28.734  0.00  0.00     0.086 A 
ATOM      5  O   UNL d   1      58.999   0.596  28.978  0.00  0.00    -0.266 OA
ATOM      6  S   UNL d   1      60.357  -1.094  28.742  0.00  0.00    -0.077 SA
ATOM      7  C   UNL d   1      59.888  -1.713  29.012  0.00  0.00     0.086 A 
ATOM      8  C   UNL d   1      59.117  -1.573  29.274  0.00  0.00     0.273 A 
ATOM      9  O   UNL d   1      58.644  -2.191  29.545  0.00  0.00    -0.266 OA
BRANCH   4  10
ATOM     10  C   UNL d   1      60.533   0.293  28.459  0.00  0.00     0.011 C 
ATOM     11  C   UNL d   1      61.133   0.595  28.940  0.00  0.00     0.001 C 
ENDBRANCH   4  10
BRANCH   7  12
ATOM     12  C   UNL d   1      60.185  -2.483  29.023  0.00  0.00     0.011 C 
ATOM     13  C   UNL d   1      60.814  -2.675  29.522  0.00  0.00     0.001 C 
ENDBRANCH   7  12
ENDBRANCH   1   2
BRANCH   1  14
ATOM     14  C   UNL d   1      57.917  -0.418  30.304  0.00  0.00     0.297 C 
ATOM     15  N   UNL d   1      57.167  -0.481  30.622  0.00  0.00    -0.207 NA
ATOM     16  O   UNL d   1      58.546  -0.132  30.757  0.00  0.00    -0.264 OA
BRANCH  15  17
ATOM     17  C   UNL d   1      57.035  -0.257  31.404  0.00  0.00     0.087 A 
ATOM     18  C   UNL d   1      56.629  -0.762  31.913  0.00  0.00     0.045 A 
ATOM     19  C   UNL d   1      56.493  -0.549  32.692  0.00  0.00     0.121 A 
ATOM     20  O   UNL d   1      56.110  -0.933  33.319  0.00  0.00    -0.299 OA
ATOM     21  C   UNL d   1      56.765   0.179  32.972  0.00  0.00     0.119 A 
ATOM     22  C   UNL d   1      56.150  -0.436  33.984  0.00  0.00     0.304 A 
ATOM     23  O   UNL d   1      56.553   0.242  33.759  0.00  0.00    -0.300 OA
ATOM     24  C   UNL d   1      57.173   0.682  32.454  0.00  0.00     0.028 A 
ATOM     25  C   UNL d   1      57.307   0.466  31.675  0.00  0.00     0.021 A 
ENDBRANCH  15  17
ENDBRANCH   1  14
TORSDOF 5
ENDMDL
MODEL 3
REMARK VINA RESULT:      -1.6      1.892      5.233
REMARK  5 active torsions:
REMARK  status: ('A' for Active; 'I' for Inactive)
REMARK    1  A    between atoms: C_7  and  N_1 
REMARK    2  A    between atoms: C_23  and  C_5 
REMARK    3  A    between atoms: C_22  and  C_6 
REMARK    4  A    between atoms: C_8  and  C_7 
REMARK       I    between atoms: N_11  and  C_8 
REMARK    5  A    between atoms: C_17  and  N_11 
ROOT
ATOM      1  C   UNL d   1      56.702  -0.697  32.203  0.00  0.00     0.148 C 
ENDROOT
BRANCH   1   2
ATOM      2  N   UNL d   1      56.470  -0.238  32.850  0.00  0.00    -0.235 N 
ATOM      3  C   UNL d   1      57.033  -0.005  33.413  0.00  0.00     0.273 A 
ATOM      4  C   UNL d   1      56.804   0.449  34.053  0.00  0.00     0.086 A 
ATOM      5  O   UNL d   1      57.824  -0.234  33.325  0.00  0.00    -0.266 OA
ATOM      6  S   UNL d   1      56.022   0.681  34.149  0.00  0.00    -0.077 SA
ATOM      7  C   UNL d   1      55.461   0.452  33.593  0.00  0.00     0.086 A 
ATOM      8  C   UNL d   1      55.678  -0.006  32.941  0.00  0.00     0.273 A 
ATOM      9  O   UNL d   1      55.117  -0.237  32.382  0.00  0.00    -0.266 OA
BRANCH   4  10
ATOM     10  C   UNL d   1      57.370   0.682  34.618  0.00  0.00     0.011 C 
ATOM     11  C   UNL d   1      57.180   0.670  35.422  0.00  0.00     0.001 C 
ENDBRANCH   4  10
BRANCH   7  12
ATOM     12  C   UNL d   1      54.673   0.682  33.684  0.00  0.00     0.011 C 
ATOM     13  C   UNL d   1      54.266   0.491  34.376  0.00  0.00     0.001 C 
ENDBRANCH   7  12
ENDBRANCH   1   2
BRANCH   1  14
ATOM     14  C   UNL d   1      57.106  -0.346  31.576  0.00  0.00     0.297 C 
ATOM     15  N   UNL d   1      57.396  -0.814  30.972  0.00  0.00    -0.207 NA
ATOM     16  O   UNL d   1      57.212   0.473  31.567  0.00  0.00    -0.264 OA
BRANCH  15  17
ATOM     17  C   UNL d   1      57.800  -0.464  30.344  0.00  0.00     0.087 A 
ATOM     18  C   UNL d   1      58.553  -0.731  30.141  0.00  0.00     0.045 A 
ATOM     19  C   UNL d   1      58.963  -0.391  29.520  0.00  0.00     0.121 A 
ATOM     20  O   UNL d   1      59.711  -0.538  29.194  0.00  0.00    -0.299 OA
ATOM     21  C   UNL d   1      58.621   0.227  29.091  0.00  0.00     0.119 A 
ATOM     22  C   UNL d   1      59.824  -0.008  28.564  0.00  0.00     0.304 A 
ATOM     23  O   UNL d   1      59.149   0.456  28.511  0.00  0.00    -0.300 OA
ATOM     24  C   UNL d   1      57.863   0.491  29.302  0.00  0.00     0.028 A 
ATOM     25  C   UNL d   1      57.455   0.148  29.924  0.00  0.00     0.021 A 
ENDBRANCH  15  17
ENDBRANCH   1  14
TORSDOF 5
ENDMDL
MODEL 4
REMARK VINA RESULT:      -1.6      1.951      5.203
REMARK  5 active torsions:
REMARK  status: ('A' for Active; 'I' for Inactive)
REMARK    1  A    between atoms: C_7  and  N_1 
REMARK    2  A    between atoms: C_23  and  C_5 
REMARK    3  A    between atoms: C_22  and  C_6 
REMARK    4  A    between atoms: C_8  and  C_7 
REMARK       I    between atoms: N_11  and  C_8 
REMARK    5  A    between atoms: C_17  and  N_11 
ROOT
ATOM      1  C   UNL d   1      56.681  -0.620  32.319  0.00  0.00     0.148 C 
ENDROOT
BRANCH   1   2
ATOM      2  N   UNL d   1      56.509  -0.187  33.001  0.00  0.00    -0.235 N 
ATOM      3  C   UNL d   1      55.725   0.033  33.163  0.00  0.00     0.273 A 
ATOM      4  C   UNL d   1      55.554   0.461  33.838  0.00  0.00     0.086 A 
ATOM      5  O   UNL d   1      55.120  -0.183  32.641  0.00  0.00    -0.266 OA
ATOM      6  S   UNL d   1      56.147   0.680  34.361  0.00  0.00    -0.077 SA
ATOM      7  C   UNL d   1      56.925   0.465  34.205  0.00  0.00     0.086 A 
ATOM      8  C   UNL d   1      57.113   0.032  33.527  0.00  0.00     0.273 A 
ATOM      9  O   UNL d   1      57.892  -0.186  33.367  0.00  0.00    -0.266 OA
BRANCH   4  10
ATOM     10  C   UNL d   1      54.767   0.681  33.999  0.00  0.00     0.011 C 
ATOM     11  C   UNL d   1      54.458   0.581  34.759  0.00  0.00     0.001 C 
ENDBRANCH   4  10
BRANCH   7  12
ATOM     12  C   UNL d   1      57.526   0.681  34.727  0.00  0.00     0.011 C 
ATOM     13  C   UNL d   1      57.414   0.601  35.541  0.00  0.00     0.001 C 
ENDBRANCH   7  12
ENDBRANCH   1   2
BRANCH   1  14
ATOM     14  C   UNL d   1      57.065  -0.254  31.688  0.00  0.00     0.297 C 
ATOM     15  N   UNL d   1      57.340  -0.708  31.066  0.00  0.00    -0.207 NA
ATOM     16  O   UNL d   1      57.165   0.565  31.692  0.00  0.00    -0.264 OA
BRANCH  15  17
ATOM     17  C   UNL d   1      57.724  -0.342  30.434  0.00  0.00     0.087 A 
ATOM     18  C   UNL d   1      58.487  -0.575  30.227  0.00  0.00     0.045 A 
ATOM     19  C   UNL d   1      58.876  -0.219  29.602  0.00  0.00     0.121 A 
ATOM     20  O   UNL d   1      59.629  -0.333  29.272  0.00  0.00    -0.299 OA
ATOM     21  C   UNL d   1      58.503   0.380  29.173  0.00  0.00     0.119 A 
ATOM     22  C   UNL d   1      59.713   0.199  28.639  0.00  0.00     0.304 A 
ATOM     23  O   UNL d   1      59.017   0.630  28.588  0.00  0.00    -0.300 OA
ATOM     24  C   UNL d   1      57.735   0.609  29.387  0.00  0.00     0.028 A 
ATOM     25  C   UNL d   1      57.348   0.250  30.014  0.00  0.00     0.021 A 
ENDBRANCH  15  17
ENDBRANCH   1  14
TORSDOF 5
ENDMDL
