MODEL 1
REMARK VINA RESULT:      78.3      0.000      0.000
REMARK  4 active torsions:
REMARK  status: ('A' for Active; 'I' for Inactive)
REMARK    1  A    between atoms: C_11  and  N_2 
REMARK    2  A    between atoms: C_9  and  C_3 
REMARK    3  A    between atoms: C_12  and  C_11 
REMARK    4  A    between atoms: O_19  and  C_16 
ROOT
ATOM      1  N   UNL d   1     -50.417  25.709  33.332  0.00  0.00    -0.206 NA
ATOM      2  N   UNL d   1     -50.980  25.961  34.513  0.00  0.00    -0.273 N 
ATOM      3  C   UNL d   1     -51.026  25.485  33.840  0.00  0.00     0.151 A 
ATOM      4  C   UNL d   1     -50.347  26.474  34.422  0.00  0.00     0.185 A 
ATOM      5  C   UNL d   1     -49.993  26.321  33.688  0.00  0.00     0.199 A 
ATOM      6  N   UNL d   1     -50.029  27.077  34.911  0.00  0.00    -0.224 NA
ATOM      7  N   UNL d   1     -49.344  26.753  33.449  0.00  0.00    -0.223 NA
ATOM      8  C   UNL d   1     -49.372  27.507  34.658  0.00  0.00     0.101 A 
ATOM      9  C   UNL d   1     -49.030  27.344  33.926  0.00  0.00     0.101 A 
ATOM     10  C   UNL d   1     -49.062  28.100  35.143  0.00  0.00     0.021 A 
ATOM     11  C   UNL d   1     -48.377  27.776  33.680  0.00  0.00     0.021 A 
ATOM     12  C   UNL d   1     -48.062  28.365  34.154  0.00  0.00     0.002 A 
ATOM     13  C   UNL d   1     -48.405  28.530  34.890  0.00  0.00     0.002 A 
ENDROOT
BRANCH   3  14
ATOM     14  C   UNL d   1     -51.581  24.899  33.707  0.00  0.00     0.035 A 
ATOM     15  C   UNL d   1     -51.395  24.122  33.834  0.00  0.00     0.005 A 
ATOM     16  C   UNL d   1     -51.947  23.562  33.700  0.00  0.00     0.024 A 
ATOM     17  C   UNL d   1     -52.704  23.771  33.432  0.00  0.00     0.094 A 
ATOM     18  C   UNL d   1     -52.889  24.535  33.306  0.00  0.00     0.024 A 
ATOM     19  C   UNL d   1     -52.337  25.107  33.439  0.00  0.00     0.005 A 
BRANCH  17  20
ATOM     20  O   UNL d   1     -53.232  23.190  33.307  0.00  0.00    -0.328 OA
ATOM     21  C   UNL d   1     -54.234  23.364  33.334  0.00  0.00     0.181 C 
ENDBRANCH  17  20
ENDBRANCH   3  14
BRANCH   2  22
ATOM     22  C   UNL d   1     -51.486  25.926  35.168  0.00  0.00     0.083 C 
BRANCH  22  23
ATOM     23  C   UNL d   1     -51.315  26.359  35.846  0.00  0.00     0.019 C 
ATOM     24  C   UNL d   1     -51.861  26.401  36.463  0.00  0.00     0.002 C 
ENDBRANCH  22  23
ENDBRANCH   2  22
TORSDOF 4
ENDMDL
MODEL 2
REMARK VINA RESULT:      78.8      1.278      2.014
REMARK  4 active torsions:
REMARK  status: ('A' for Active; 'I' for Inactive)
REMARK    1  A    between atoms: C_11  and  N_2 
REMARK    2  A    between atoms: C_9  and  C_3 
REMARK    3  A    between atoms: C_12  and  C_11 
REMARK    4  A    between atoms: O_19  and  C_16 
ROOT
ATOM      1  N   UNL d   1     -49.396  26.593  34.496  0.00  0.00    -0.206 NA
ATOM      2  N   UNL d   1     -50.240  27.415  33.874  0.00  0.00    -0.273 N 
ATOM      3  C   UNL d   1     -50.112  26.629  34.091  0.00  0.00     0.151 A 
ATOM      4  C   UNL d   1     -49.606  27.861  34.142  0.00  0.00     0.185 A 
ATOM      5  C   UNL d   1     -49.078  27.354  34.529  0.00  0.00     0.199 A 
ATOM      6  N   UNL d   1     -49.424  28.678  34.090  0.00  0.00    -0.224 NA
ATOM      7  N   UNL d   1     -48.391  27.649  34.855  0.00  0.00    -0.223 NA
ATOM      8  C   UNL d   1     -48.726  28.966  34.423  0.00  0.00     0.101 A 
ATOM      9  C   UNL d   1     -48.209  28.449  34.806  0.00  0.00     0.101 A 
ATOM     10  C   UNL d   1     -48.550  29.771  34.370  0.00  0.00     0.021 A 
ATOM     11  C   UNL d   1     -47.517  28.742  35.135  0.00  0.00     0.021 A 
ATOM     12  C   UNL d   1     -47.334  29.538  35.088  0.00  0.00     0.002 A 
ATOM     13  C   UNL d   1     -47.852  30.058  34.704  0.00  0.00     0.002 A 
ENDROOT
BRANCH   3  14
ATOM     14  C   UNL d   1     -50.613  26.002  33.931  0.00  0.00     0.035 A 
ATOM     15  C   UNL d   1     -51.373  26.003  34.206  0.00  0.00     0.005 A 
ATOM     16  C   UNL d   1     -51.849  25.385  34.041  0.00  0.00     0.024 A 
ATOM     17  C   UNL d   1     -51.570  24.746  33.592  0.00  0.00     0.094 A 
ATOM     18  C   UNL d   1     -50.822  24.742  33.320  0.00  0.00     0.024 A 
ATOM     19  C   UNL d   1     -50.334  25.363  33.482  0.00  0.00     0.005 A 
BRANCH  17  20
ATOM     20  O   UNL d   1     -52.068  24.144  33.444  0.00  0.00    -0.328 OA
ATOM     21  C   UNL d   1     -51.732  23.194  33.307  0.00  0.00     0.181 C 
ENDBRANCH  17  20
ENDBRANCH   3  14
BRANCH   2  22
ATOM     22  C   UNL d   1     -50.895  27.704  33.457  0.00  0.00     0.083 C 
BRANCH  22  23
ATOM     23  C   UNL d   1     -51.348  28.314  33.771  0.00  0.00     0.019 C 
ATOM     24  C   UNL d   1     -51.923  28.686  33.310  0.00  0.00     0.002 C 
ENDBRANCH  22  23
ENDBRANCH   2  22
TORSDOF 4
ENDMDL
