MODEL 1
REMARK VINA RESULT:      65.8      0.000      0.000
REMARK  4 active torsions:
REMARK  status: ('A' for Active; 'I' for Inactive)
REMARK    1  A    between atoms: N_4  and  C_2 
REMARK       I    between atoms: C_3  and  N_4 
REMARK    2  A    between atoms: C_10  and  C_3 
REMARK    3  A    between atoms: C_12  and  N_4 
REMARK    4  A    between atoms: O_18  and  C_15 
ROOT
ATOM      1  C   UNL d   1      58.964  49.190  50.588  0.00  0.00     0.265 C 
ATOM      2  N   UNL d   1      57.724  49.232  50.744  0.00  0.00    -0.274 N 
ATOM      3  O   UNL d   1      59.167  49.048  49.827  0.00  0.00    -0.267 OA
ENDROOT
BRANCH   2   4
ATOM      4  C   UNL d   1      57.478  49.369  51.478  0.00  0.00     0.079 A 
ATOM      5  C   UNL d   1      57.935  49.444  52.113  0.00  0.00     0.116 A 
ATOM      6  S   UNL d   1      57.471  49.576  52.729  0.00  0.00     0.213 S 
ATOM      7  C   UNL d   1      56.729  49.581  52.472  0.00  0.00     0.100 A 
ATOM      8  O   UNL d   1      57.006  49.707  53.346  0.00  0.00    -0.217 OA
ATOM      9  O   UNL d   1      58.193  49.577  53.018  0.00  0.00    -0.217 OA
ATOM     10  C   UNL d   1      56.735  49.454  51.704  0.00  0.00     0.030 A 
ENDBRANCH   2   4
BRANCH   2  11
ATOM     11  C   UNL d   1      57.202  49.124  50.118  0.00  0.00     0.067 A 
ATOM     12  C   UNL d   1      57.233  49.631  49.478  0.00  0.00     0.018 A 
ATOM     13  C   UNL d   1      56.702  49.523  48.838  0.00  0.00     0.002 A 
ATOM     14  C   UNL d   1      56.153  48.909  48.856  0.00  0.00     0.000 A 
ATOM     15  C   UNL d   1      56.123  48.398  49.503  0.00  0.00     0.002 A 
ATOM     16  C   UNL d   1      56.642  48.498  50.136  0.00  0.00     0.018 A 
ENDBRANCH   2  11
BRANCH   1  17
ATOM     17  C   UNL d   1      59.507  49.295  51.201  0.00  0.00     0.057 A 
ATOM     18  C   UNL d   1      59.294  49.129  51.993  0.00  0.00     0.007 A 
ATOM     19  C   UNL d   1      59.843  49.238  52.597  0.00  0.00     0.024 A 
ATOM     20  C   UNL d   1      60.607  49.511  52.428  0.00  0.00     0.094 A 
ATOM     21  C   UNL d   1      60.825  49.678  51.650  0.00  0.00     0.024 A 
ATOM     22  C   UNL d   1      60.277  49.572  51.024  0.00  0.00     0.007 A 
BRANCH  20  23
ATOM     23  O   UNL d   1      61.157  49.619  53.046  0.00  0.00    -0.328 OA
ATOM     24  C   UNL d   1      61.979  49.593  52.893  0.00  0.00     0.181 C 
ENDBRANCH  20  23
ENDBRANCH   1  17
TORSDOF 4
ENDMDL
