MODEL 1
REMARK VINA RESULT:      -8.8      0.000      0.000
REMARK  9 active torsions:
REMARK  status: ('A' for Active; 'I' for Inactive)
REMARK    1  A    between atoms: C_9  and  N_1 
REMARK    2  A    between atoms: S_8  and  C_2 
REMARK    3  A    between atoms: C_7  and  C_12 
REMARK       I    between atoms: N_13  and  C_7 
REMARK    4  A    between atoms: C_26  and  S_8 
REMARK    5  A    between atoms: C_27  and  N_13 
REMARK    6  A    between atoms: C_15  and  C_27 
REMARK    7  A    between atoms: C_16  and  C_26 
REMARK    8  A    between atoms: O_31  and  C_16 
REMARK    9  A    between atoms: C_33  and  O_31 
ROOT
ATOM      1  N   UNL d   1      52.740  33.494  53.595  0.00  0.00    -0.254 N 
ATOM      2  C   UNL d   1      52.414  32.826  53.259  0.00  0.00     0.182 A 
ATOM      3  C   UNL d   1      52.376  34.225  53.506  0.00  0.00     0.268 A 
ATOM      4  N   UNL d   1      51.719  32.892  52.831  0.00  0.00    -0.222 NA
ATOM      5  C   UNL d   1      51.685  34.291  53.079  0.00  0.00     0.074 A 
ATOM      6  C   UNL d   1      51.347  33.618  52.734  0.00  0.00     0.088 A 
ATOM      7  C   UNL d   1      50.645  33.678  52.299  0.00  0.00     0.024 A 
ATOM      8  C   UNL d   1      51.311  35.020  52.983  0.00  0.00     0.006 A 
ATOM      9  C   UNL d   1      50.279  34.412  52.209  0.00  0.00     0.059 A 
ATOM     10  O   UNL d   1      52.714  34.898  53.851  0.00  0.00    -0.267 OA
ATOM     11  C   UNL d   1      50.617  35.086  52.554  0.00  0.00     0.005 A 
ENDROOT
BRANCH   9  12
ATOM     12  C   UNL d   1      49.574  34.476  51.774  0.00  0.00     0.279 C 
ATOM     13  N   UNL d   1      48.945  34.867  52.102  0.00  0.00    -0.204 NA
ATOM     14  O   UNL d   1      49.538  34.143  51.024  0.00  0.00    -0.265 OA
BRANCH  13  15
ATOM     15  C   UNL d   1      49.000  35.194  52.853  0.00  0.00     0.127 C 
BRANCH  15  16
ATOM     16  C   UNL d   1      48.375  35.634  53.159  0.00  0.00     0.119 A 
ATOM     17  O   UNL d   1      47.696  35.930  52.831  0.00  0.00    -0.304 OA
ATOM     18  C   UNL d   1      47.265  36.331  53.400  0.00  0.00     0.123 A 
ATOM     19  C   UNL d   1      47.703  36.274  54.101  0.00  0.00     0.029 A 
ATOM     20  C   UNL d   1      48.379  35.852  53.960  0.00  0.00     0.028 A 
ENDBRANCH  15  16
ENDBRANCH  13  15
ENDBRANCH   9  12
BRANCH   2  21
ATOM     21  S   UNL d   1      52.779  32.092  53.349  0.00  0.00    -0.044 SA
BRANCH  21  22
ATOM     22  C   UNL d   1      52.405  31.412  53.092  0.00  0.00     0.107 C 
BRANCH  22  23
ATOM     23  C   UNL d   1      52.823  30.700  53.079  0.00  0.00     0.307 C 
ATOM     24  O   UNL d   1      53.207  30.447  52.391  0.00  0.00    -0.258 OA
BRANCH  23  25
ATOM     25  O   UNL d   1      52.852  30.239  53.768  0.00  0.00    -0.271 OA
BRANCH  25  26
ATOM     26  C   UNL d   1      53.272  29.529  53.753  0.00  0.00     0.126 C 
ATOM     27  C   UNL d   1      53.314  29.088  54.435  0.00  0.00     0.029 C 
ENDBRANCH  25  26
ENDBRANCH  23  25
ENDBRANCH  22  23
ENDBRANCH  21  22
ENDBRANCH   2  21
BRANCH   1  28
ATOM     28  C   UNL d   1      53.440  33.431  54.028  0.00  0.00     0.069 A 
ATOM     29  C   UNL d   1      53.412  33.348  54.849  0.00  0.00     0.020 A 
ATOM     30  C   UNL d   1      54.098  33.286  55.280  0.00  0.00     0.031 A 
ATOM     31  C   UNL d   1      54.825  33.307  54.893  0.00  0.00     0.140 A 
ATOM     32  C   UNL d   1      54.853  33.391  54.073  0.00  0.00     0.031 A 
ATOM     33  F   UNL d   1      55.529  33.243  55.337  0.00  0.00    -0.204 F 
ATOM     34  C   UNL d   1      54.165  33.453  53.640  0.00  0.00     0.020 A 
ENDBRANCH   1  28
TORSDOF 9
ENDMDL
MODEL 2
REMARK VINA RESULT:      -8.2      1.760      5.299
REMARK  9 active torsions:
REMARK  status: ('A' for Active; 'I' for Inactive)
REMARK    1  A    between atoms: C_9  and  N_1 
REMARK    2  A    between atoms: S_8  and  C_2 
REMARK    3  A    between atoms: C_7  and  C_12 
REMARK       I    between atoms: N_13  and  C_7 
REMARK    4  A    between atoms: C_26  and  S_8 
REMARK    5  A    between atoms: C_27  and  N_13 
REMARK    6  A    between atoms: C_15  and  C_27 
REMARK    7  A    between atoms: C_16  and  C_26 
REMARK    8  A    between atoms: O_31  and  C_16 
REMARK    9  A    between atoms: C_33  and  O_31 
ROOT
ATOM      1  N   UNL d   1      52.871  33.621  53.712  0.00  0.00    -0.254 N 
ATOM      2  C   UNL d   1      52.153  33.400  53.396  0.00  0.00     0.182 A 
ATOM      3  C   UNL d   1      53.486  33.080  53.766  0.00  0.00     0.268 A 
ATOM      4  N   UNL d   1      52.050  32.631  53.133  0.00  0.00    -0.222 NA
ATOM      5  C   UNL d   1      53.385  32.315  53.504  0.00  0.00     0.074 A 
ATOM      6  C   UNL d   1      52.658  32.082  53.182  0.00  0.00     0.088 A 
ATOM      7  C   UNL d   1      52.548  31.305  52.913  0.00  0.00     0.024 A 
ATOM      8  C   UNL d   1      53.996  31.762  53.553  0.00  0.00     0.006 A 
ATOM      9  C   UNL d   1      53.166  30.761  52.968  0.00  0.00     0.059 A 
ATOM     10  O   UNL d   1      54.213  33.313  54.088  0.00  0.00    -0.267 OA
ATOM     11  C   UNL d   1      53.894  30.994  53.290  0.00  0.00     0.005 A 
ENDROOT
BRANCH   9  12
ATOM     12  C   UNL d   1      53.060  29.982  52.700  0.00  0.00     0.279 C 
ATOM     13  N   UNL d   1      53.054  29.379  53.241  0.00  0.00    -0.204 NA
ATOM     14  O   UNL d   1      52.965  29.847  51.895  0.00  0.00    -0.265 OA
BRANCH  13  15
ATOM     15  C   UNL d   1      53.151  29.533  54.042  0.00  0.00     0.127 C 
BRANCH  15  16
ATOM     16  C   UNL d   1      53.284  28.914  54.568  0.00  0.00     0.119 A 
ATOM     17  O   UNL d   1      53.565  28.160  54.474  0.00  0.00    -0.304 OA
ATOM     18  C   UNL d   1      53.582  27.778  55.199  0.00  0.00     0.123 A 
ATOM     19  C   UNL d   1      53.300  28.326  55.753  0.00  0.00     0.029 A 
ATOM     20  C   UNL d   1      53.117  29.018  55.375  0.00  0.00     0.028 A 
ENDBRANCH  15  16
ENDBRANCH  13  15
ENDBRANCH   9  12
BRANCH   2  21
ATOM     21  S   UNL d   1      51.535  33.944  53.342  0.00  0.00    -0.044 SA
BRANCH  21  22
ATOM     22  C   UNL d   1      50.805  33.711  53.054  0.00  0.00     0.107 C 
BRANCH  22  23
ATOM     23  C   UNL d   1      50.261  34.285  52.817  0.00  0.00     0.307 C 
ATOM     24  O   UNL d   1      49.904  34.785  53.373  0.00  0.00    -0.258 OA
BRANCH  23  25
ATOM     25  O   UNL d   1      50.076  34.356  52.012  0.00  0.00    -0.271 OA
BRANCH  25  26
ATOM     26  C   UNL d   1      49.299  34.531  51.797  0.00  0.00     0.126 C 
ATOM     27  C   UNL d   1      49.089  34.467  51.014  0.00  0.00     0.029 C 
ENDBRANCH  25  26
ENDBRANCH  23  25
ENDBRANCH  22  23
ENDBRANCH  21  22
ENDBRANCH   2  21
BRANCH   1  28
ATOM     28  C   UNL d   1      52.978  34.395  53.978  0.00  0.00     0.069 A 
ATOM     29  C   UNL d   1      52.853  34.579  54.773  0.00  0.00     0.020 A 
ATOM     30  C   UNL d   1      52.956  35.339  55.041  0.00  0.00     0.031 A 
ATOM     31  C   UNL d   1      53.188  35.928  54.513  0.00  0.00     0.140 A 
ATOM     32  C   UNL d   1      53.313  35.744  53.719  0.00  0.00     0.031 A 
ATOM     33  F   UNL d   1      53.294  36.709  54.790  0.00  0.00    -0.204 F 
ATOM     34  C   UNL d   1      53.209  34.982  53.450  0.00  0.00     0.020 A 
ENDBRANCH   1  28
TORSDOF 9
ENDMDL
