MODEL 1
REMARK VINA RESULT:      -5.6      0.000      0.000
REMARK  4 active torsions:
REMARK  status: ('A' for Active; 'I' for Inactive)
REMARK    1  A    between atoms: C_6  and  C_1 
REMARK    2  A    between atoms: C_7  and  C_4 
REMARK       I    between atoms: N_9  and  C_6 
REMARK    3  A    between atoms: C_23  and  N_9 
REMARK    4  A    between atoms: C_11  and  C_23 
ROOT
ATOM      1  C   UNL d   1     -41.961-122.718 -51.252  0.00  0.00     0.168 A 
ATOM      2  N   UNL d   1     -42.453-122.116 -51.011  0.00  0.00    -0.121 NA
ATOM      3  C   UNL d   1     -41.702-123.120 -50.572  0.00  0.00     0.053 A 
ATOM      4  C   UNL d   1     -42.041-122.755 -49.924  0.00  0.00     0.127 A 
ATOM      5  O   UNL d   1     -42.506-122.134 -50.200  0.00  0.00    -0.211 OA
ENDROOT
BRANCH   1   6
ATOM      6  C   UNL d   1     -41.521-123.122 -52.755  0.00  0.00     0.299 C 
ATOM      7  N   UNL d   1     -41.712-122.586 -53.397  0.00  0.00    -0.203 NA
ATOM      8  O   UNL d   1     -41.123-123.816 -52.933  0.00  0.00    -0.263 OA
BRANCH   7   9
ATOM      9  C   UNL d   1     -41.487-122.782 -54.205  0.00  0.00     0.127 C 
BRANCH   9  10
ATOM     10  C   UNL d   1     -41.784-122.317 -54.867  0.00  0.00     0.119 A 
ATOM     11  O   UNL d   1     -41.315-121.890 -55.440  0.00  0.00    -0.304 OA
ATOM     12  C   UNL d   1     -41.846-121.515 -55.987  0.00  0.00     0.123 A 
ATOM     13  C   UNL d   1     -42.663-121.710 -55.753  0.00  0.00     0.029 A 
ATOM     14  C   UNL d   1     -42.617-122.213 -55.051  0.00  0.00     0.028 A 
ENDBRANCH   9  10
ENDBRANCH   7   9
ENDBRANCH   1   6
BRANCH   4  15
ATOM     15  C   UNL d   1     -41.959-122.941 -49.145  0.00  0.00     0.027 A 
ATOM     16  C   UNL d   1     -42.601-123.219 -48.717  0.00  0.00     0.028 A 
ATOM     17  C   UNL d   1     -42.511-123.404 -47.936  0.00  0.00     0.119 A 
ATOM     18  O   UNL d   1     -43.041-123.686 -47.383  0.00  0.00    -0.300 OA
ATOM     19  C   UNL d   1     -41.796-123.322 -47.558  0.00  0.00     0.119 A 
ATOM     20  C   UNL d   1     -42.653-123.775 -46.676  0.00  0.00     0.304 A 
ATOM     21  O   UNL d   1     -41.880-123.550 -46.782  0.00  0.00    -0.300 OA
ATOM     22  C   UNL d   1     -41.145-123.043 -47.981  0.00  0.00     0.026 A 
ATOM     23  C   UNL d   1     -41.230-122.858 -48.758  0.00  0.00     0.004 A 
ENDBRANCH   4  15
TORSDOF 4
ENDMDL
