MODEL 1
REMARK VINA RESULT:      -2.6      0.000      0.000
REMARK  5 active torsions:
REMARK  status: ('A' for Active; 'I' for Inactive)
REMARK    1  A    between atoms: N_2  and  S_1 
REMARK    2  A    between atoms: C_9  and  S_1 
REMARK    3  A    between atoms: C_4  and  N_11 
REMARK    4  A    between atoms: C_8  and  C_16 
REMARK       I    between atoms: N_10  and  C_8 
REMARK    5  A    between atoms: N_11  and  N_10 
ROOT
ATOM      1  C   UNL d   1      32.777  19.324 -23.081  0.00  0.00     0.104 A 
ATOM      2  C   UNL d   1      32.629  18.049 -24.110  0.00  0.00     0.059 A 
ATOM      3  C   UNL d   1      33.155  18.610 -22.907  0.00  0.00     0.013 A 
ATOM      4  C   UNL d   1      32.327  19.397 -23.769  0.00  0.00     0.013 A 
ATOM      5  C   UNL d   1      32.255  18.755 -24.283  0.00  0.00     0.006 A 
ATOM      6  C   UNL d   1      33.079  17.976 -23.423  0.00  0.00     0.006 A 
ENDROOT
BRANCH   2   7
ATOM      7  C   UNL d   1      32.554  17.414 -24.626  0.00  0.00     0.297 C 
ATOM      8  N   UNL d   1      31.835  17.025 -24.574  0.00  0.00    -0.104 NA
ATOM      9  O   UNL d   1      33.231  17.300 -25.097  0.00  0.00    -0.264 OA
BRANCH   8  10
ATOM     10  N   UNL d   1      31.272  17.285 -24.039  0.00  0.00    -0.118 NA
BRANCH  10  11
ATOM     11  C   UNL d   1      30.553  16.874 -23.953  0.00  0.00     0.215 A 
ATOM     12  N   UNL d   1      30.292  16.493 -23.275  0.00  0.00    -0.219 NA
ATOM     13  C   UNL d   1      29.559  16.158 -23.422  0.00  0.00     0.090 A 
ATOM     14  C   UNL d   1      29.043  15.720 -22.960  0.00  0.00     0.018 A 
ATOM     15  C   UNL d   1      29.363  16.337 -24.211  0.00  0.00     0.050 A 
ATOM     16  C   UNL d   1      28.328  15.456 -23.278  0.00  0.00     0.002 A 
ATOM     17  C   UNL d   1      29.242  15.543 -22.175  0.00  0.00     0.002 C 
ATOM     18  C   UNL d   1      28.136  15.634 -24.057  0.00  0.00     0.001 A 
ATOM     19  C   UNL d   1      28.650  16.078 -24.537  0.00  0.00     0.008 A 
ATOM     20  S   UNL d   1      29.978  16.778 -24.532  0.00  0.00    -0.045 SA
ENDBRANCH  10  11
ENDBRANCH   8  10
ENDBRANCH   2   7
BRANCH   1  21
ATOM     21  S   UNL d   1      32.844  19.971 -22.572  0.00  0.00     0.271 S 
ATOM     22  O   UNL d   1      33.240  20.384 -23.166  0.00  0.00    -0.200 OA
ATOM     23  O   UNL d   1      32.448  19.561 -21.978  0.00  0.00    -0.200 OA
BRANCH  21  24
ATOM     24  N   UNL d   1      32.915  20.623 -22.072  0.00  0.00    -0.229 N 
ATOM     25  C   UNL d   1      33.040  20.497 -21.273  0.00  0.00     0.092 A 
ATOM     26  C   UNL d   1      33.111  21.148 -20.773  0.00  0.00     0.018 A 
ATOM     27  C   UNL d   1      33.240  21.054 -19.951  0.00  0.00     0.002 C 
ATOM     28  C   UNL d   1      33.056  21.914 -21.079  0.00  0.00     0.003 A 
ATOM     29  C   UNL d   1      32.929  22.028 -21.886  0.00  0.00     0.018 A 
ATOM     30  C   UNL d   1      32.858  21.377 -22.387  0.00  0.00     0.092 A 
ATOM     31  C   UNL d   1      32.875  22.806 -22.184  0.00  0.00     0.002 C 
ENDBRANCH  21  24
ENDBRANCH   1  21
TORSDOF 5
ENDMDL
