MODEL 1
REMARK VINA RESULT:      -3.0      0.000      0.000
REMARK  4 active torsions:
REMARK  status: ('A' for Active; 'I' for Inactive)
REMARK    1  A    between atoms: N_10  and  C_3 
REMARK    2  A    between atoms: C_11  and  C_4 
REMARK    3  A    between atoms: C_15  and  N_10 
REMARK       I    between atoms: C_12  and  N_13 
REMARK    4  A    between atoms: N_13  and  C_16 
ROOT
ATOM      1  C   UNL d   1      31.570  17.245 -23.965  0.00  0.00     0.167 A 
ATOM      2  N   UNL d   1      31.979  17.951 -24.027  0.00  0.00    -0.195 N 
ATOM      3  C   UNL d   1      32.725  18.033 -23.681  0.00  0.00     0.167 A 
ATOM      4  C   UNL d   1      30.854  17.328 -24.357  0.00  0.00     0.057 A 
ATOM      5  N   UNL d   1      31.519  18.476 -24.458  0.00  0.00    -0.161 NA
ATOM      6  N   UNL d   1      31.899  16.607 -23.556  0.00  0.00    -0.227 NA
ATOM      7  C   UNL d   1      33.056  17.394 -23.271  0.00  0.00     0.058 A 
ATOM      8  C   UNL d   1      30.829  18.094 -24.661  0.00  0.00     0.124 A 
ATOM      9  C   UNL d   1      32.647  16.687 -23.209  0.00  0.00     0.086 A 
ATOM     10  C   UNL d   1      32.995  16.060 -22.795  0.00  0.00     0.021 C 
ENDROOT
BRANCH   3  11
ATOM     11  N   UNL d   1      33.134  18.741 -23.744  0.00  0.00    -0.227 NA
BRANCH  11  12
ATOM     12  C   UNL d   1      33.159  19.264 -23.106  0.00  0.00     0.083 A 
ATOM     13  C   UNL d   1      33.192  18.967 -22.338  0.00  0.00     0.021 A 
ATOM     14  C   UNL d   1      33.217  19.492 -21.692  0.00  0.00     0.021 A 
ATOM     15  C   UNL d   1      33.210  20.301 -21.822  0.00  0.00     0.085 A 
ATOM     16  C   UNL d   1      33.177  20.598 -22.599  0.00  0.00     0.021 A 
ATOM     17  C   UNL d   1      33.152  20.078 -23.237  0.00  0.00     0.021 A 
BRANCH  15  18
ATOM     18  N   UNL d   1      33.235  20.827 -21.172  0.00  0.00    -0.208 NA
ATOM     19  C   UNL d   1      32.552  21.211 -20.913  0.00  0.00     0.279 C 
ATOM     20  O   UNL d   1      32.581  21.735 -20.264  0.00  0.00    -0.265 OA
ATOM     21  C   UNL d   1      31.840  21.074 -21.298  0.00  0.00     0.068 C 
ENDBRANCH  15  18
ENDBRANCH  11  12
ENDBRANCH   3  11
BRANCH   4  22
ATOM     22  C   UNL d   1      30.313  16.704 -24.393  0.00  0.00     0.004 A 
ATOM     23  C   UNL d   1      30.363  16.166 -25.016  0.00  0.00     0.000 A 
ATOM     24  C   UNL d   1      29.827  15.540 -25.060  0.00  0.00     0.000 A 
ATOM     25  C   UNL d   1      29.237  15.454 -24.477  0.00  0.00     0.000 A 
ATOM     26  C   UNL d   1      29.196  15.994 -23.861  0.00  0.00     0.000 A 
ATOM     27  C   UNL d   1      29.734  16.619 -23.820  0.00  0.00     0.000 A 
ENDBRANCH   4  22
TORSDOF 4
ENDMDL
MODEL 2
REMARK VINA RESULT:      -2.5      1.911      5.071
REMARK  4 active torsions:
REMARK  status: ('A' for Active; 'I' for Inactive)
REMARK    1  A    between atoms: N_10  and  C_3 
REMARK    2  A    between atoms: C_11  and  C_4 
REMARK    3  A    between atoms: C_15  and  N_10 
REMARK       I    between atoms: C_12  and  N_13 
REMARK    4  A    between atoms: N_13  and  C_16 
ROOT
ATOM      1  C   UNL d   1      32.900  19.864 -22.564  0.00  0.00     0.167 A 
ATOM      2  N   UNL d   1      33.023  19.058 -22.636  0.00  0.00    -0.195 N 
ATOM      3  C   UNL d   1      33.105  18.714 -23.383  0.00  0.00     0.167 A 
ATOM      4  C   UNL d   1      32.840  20.044 -21.766  0.00  0.00     0.057 A 
ATOM      5  N   UNL d   1      33.041  18.733 -21.884  0.00  0.00    -0.161 NA
ATOM      6  N   UNL d   1      32.856  20.342 -23.237  0.00  0.00    -0.227 NA
ATOM      7  C   UNL d   1      33.062  19.192 -24.059  0.00  0.00     0.058 A 
ATOM      8  C   UNL d   1      32.929  19.337 -21.349  0.00  0.00     0.124 A 
ATOM      9  C   UNL d   1      32.938  19.998 -23.986  0.00  0.00     0.086 A 
ATOM     10  C   UNL d   1      32.898  20.459 -24.673  0.00  0.00     0.021 C 
ENDROOT
BRANCH   3  11
ATOM     11  N   UNL d   1      33.229  17.907 -23.456  0.00  0.00    -0.227 NA
BRANCH  11  12
ATOM     12  C   UNL d   1      32.655  17.428 -23.806  0.00  0.00     0.083 A 
ATOM     13  C   UNL d   1      32.571  17.429 -24.626  0.00  0.00     0.021 A 
ATOM     14  C   UNL d   1      31.993  16.948 -24.983  0.00  0.00     0.021 A 
ATOM     15  C   UNL d   1      31.510  16.475 -24.518  0.00  0.00     0.085 A 
ATOM     16  C   UNL d   1      31.598  16.477 -23.691  0.00  0.00     0.021 A 
ATOM     17  C   UNL d   1      32.169  16.953 -23.339  0.00  0.00     0.021 A 
BRANCH  15  18
ATOM     18  N   UNL d   1      30.930  15.992 -24.879  0.00  0.00    -0.208 NA
ATOM     19  C   UNL d   1      30.134  16.065 -24.675  0.00  0.00     0.279 C 
ATOM     20  O   UNL d   1      29.557  15.582 -25.036  0.00  0.00    -0.265 OA
ATOM     21  C   UNL d   1      29.910  16.618 -24.112  0.00  0.00     0.068 C 
ENDBRANCH  15  18
ENDBRANCH  11  12
ENDBRANCH   3  11
BRANCH   4  22
ATOM     22  C   UNL d   1      32.714  20.820 -21.511  0.00  0.00     0.004 A 
ATOM     23  C   UNL d   1      32.048  20.988 -21.055  0.00  0.00     0.000 A 
ATOM     24  C   UNL d   1      31.915  21.760 -20.797  0.00  0.00     0.000 A 
ATOM     25  C   UNL d   1      32.450  22.367 -20.996  0.00  0.00     0.000 A 
ATOM     26  C   UNL d   1      33.110  22.189 -21.451  0.00  0.00     0.000 A 
ATOM     27  C   UNL d   1      33.240  21.415 -21.708  0.00  0.00     0.000 A 
ENDBRANCH   4  22
TORSDOF 4
ENDMDL
MODEL 3
REMARK VINA RESULT:      -2.0      1.137      1.713
REMARK  4 active torsions:
REMARK  status: ('A' for Active; 'I' for Inactive)
REMARK    1  A    between atoms: N_10  and  C_3 
REMARK    2  A    between atoms: C_11  and  C_4 
REMARK    3  A    between atoms: C_15  and  N_10 
REMARK       I    between atoms: C_12  and  N_13 
REMARK    4  A    between atoms: N_13  and  C_16 
ROOT
ATOM      1  C   UNL d   1      30.284  16.747 -24.261  0.00  0.00     0.167 A 
ATOM      2  N   UNL d   1      30.760  17.320 -24.603  0.00  0.00    -0.195 N 
ATOM      3  C   UNL d   1      31.582  17.275 -24.534  0.00  0.00     0.167 A 
ATOM      4  C   UNL d   1      29.502  16.936 -24.420  0.00  0.00     0.057 A 
ATOM      5  N   UNL d   1      30.275  17.866 -24.976  0.00  0.00    -0.161 NA
ATOM      6  N   UNL d   1      30.622  16.120 -23.843  0.00  0.00    -0.227 NA
ATOM      7  C   UNL d   1      31.922  16.646 -24.116  0.00  0.00     0.058 A 
ATOM      8  C   UNL d   1      29.503  17.631 -24.864  0.00  0.00     0.124 A 
ATOM      9  C   UNL d   1      31.446  16.074 -23.773  0.00  0.00     0.086 A 
ATOM     10  C   UNL d   1      31.805  15.453 -23.359  0.00  0.00     0.021 C 
ENDROOT
BRANCH   3  11
ATOM     11  N   UNL d   1      32.058  17.848 -24.877  0.00  0.00    -0.227 NA
BRANCH  11  12
ATOM     12  C   UNL d   1      32.355  18.469 -24.422  0.00  0.00     0.083 A 
ATOM     13  C   UNL d   1      32.207  19.247 -24.652  0.00  0.00     0.021 A 
ATOM     14  C   UNL d   1      32.505  19.876 -24.195  0.00  0.00     0.021 A 
ATOM     15  C   UNL d   1      32.943  19.720 -23.519  0.00  0.00     0.085 A 
ATOM     16  C   UNL d   1      33.089  18.934 -23.290  0.00  0.00     0.021 A 
ATOM     17  C   UNL d   1      32.794  18.313 -23.742  0.00  0.00     0.021 A 
BRANCH  15  18
ATOM     18  N   UNL d   1      33.241  20.354 -23.062  0.00  0.00    -0.208 NA
ATOM     19  C   UNL d   1      32.884  20.563 -22.348  0.00  0.00     0.279 C 
ATOM     20  O   UNL d   1      33.184  21.196 -21.894  0.00  0.00    -0.265 OA
ATOM     21  C   UNL d   1      32.230  20.144 -22.085  0.00  0.00     0.068 C 
ENDBRANCH  15  18
ENDBRANCH  11  12
ENDBRANCH   3  11
BRANCH   4  22
ATOM     22  C   UNL d   1      28.885  16.460 -24.146  0.00  0.00     0.004 A 
ATOM     23  C   UNL d   1      28.524  15.931 -24.667  0.00  0.00     0.000 A 
ATOM     24  C   UNL d   1      27.908  15.453 -24.402  0.00  0.00     0.000 A 
ATOM     25  C   UNL d   1      27.650  15.502 -23.611  0.00  0.00     0.000 A 
ATOM     26  C   UNL d   1      28.015  16.031 -23.099  0.00  0.00     0.000 A 
ATOM     27  C   UNL d   1      28.632  16.509 -23.369  0.00  0.00     0.000 A 
ENDBRANCH   4  22
TORSDOF 4
ENDMDL
MODEL 4
REMARK VINA RESULT:      -1.0      1.267      2.037
REMARK  4 active torsions:
REMARK  status: ('A' for Active; 'I' for Inactive)
REMARK    1  A    between atoms: N_10  and  C_3 
REMARK    2  A    between atoms: C_11  and  C_4 
REMARK    3  A    between atoms: C_15  and  N_10 
REMARK       I    between atoms: C_12  and  N_13 
REMARK    4  A    between atoms: N_13  and  C_16 
ROOT
ATOM      1  C   UNL d   1      32.546  18.460 -23.580  0.00  0.00     0.167 A 
ATOM      2  N   UNL d   1      32.720  19.250 -23.708  0.00  0.00    -0.195 N 
ATOM      3  C   UNL d   1      33.067  19.703 -23.111  0.00  0.00     0.167 A 
ATOM      4  C   UNL d   1      32.210  18.157 -24.264  0.00  0.00     0.057 A 
ATOM      5  N   UNL d   1      32.493  19.441 -24.473  0.00  0.00    -0.161 NA
ATOM      6  N   UNL d   1      32.715  18.109 -22.851  0.00  0.00    -0.227 NA
ATOM      7  C   UNL d   1      33.237  19.353 -22.380  0.00  0.00     0.058 A 
ATOM      8  C   UNL d   1      32.180  18.771 -24.814  0.00  0.00     0.124 A 
ATOM      9  C   UNL d   1      33.063  18.563 -22.251  0.00  0.00     0.086 A 
ATOM     10  C   UNL d   1      33.241  18.230 -21.514  0.00  0.00     0.021 C 
ENDROOT
BRANCH   3  11
ATOM     11  N   UNL d   1      33.241  20.494 -23.240  0.00  0.00    -0.227 NA
BRANCH  11  12
ATOM     12  C   UNL d   1      32.954  21.073 -22.726  0.00  0.00     0.083 A 
ATOM     13  C   UNL d   1      32.883  21.851 -22.989  0.00  0.00     0.021 A 
ATOM     14  C   UNL d   1      32.594  22.437 -22.474  0.00  0.00     0.021 A 
ATOM     15  C   UNL d   1      32.381  22.239 -21.707  0.00  0.00     0.085 A 
ATOM     16  C   UNL d   1      32.454  21.452 -21.445  0.00  0.00     0.021 A 
ATOM     17  C   UNL d   1      32.740  20.874 -21.955  0.00  0.00     0.021 A 
BRANCH  15  18
ATOM     18  N   UNL d   1      32.090  22.830 -21.190  0.00  0.00    -0.208 NA
ATOM     19  C   UNL d   1      32.488  23.010 -20.490  0.00  0.00     0.279 C 
ATOM     20  O   UNL d   1      32.196  23.600 -19.977  0.00  0.00    -0.265 OA
ATOM     21  C   UNL d   1      33.176  22.605 -20.300  0.00  0.00     0.068 C 
ENDBRANCH  15  18
ENDBRANCH  11  12
ENDBRANCH   3  11
BRANCH   4  22
ATOM     22  C   UNL d   1      31.972  17.367 -24.308  0.00  0.00     0.004 A 
ATOM     23  C   UNL d   1      32.469  16.819 -24.674  0.00  0.00     0.000 A 
ATOM     24  C   UNL d   1      32.239  16.028 -24.722  0.00  0.00     0.000 A 
ATOM     25  C   UNL d   1      31.509  15.785 -24.403  0.00  0.00     0.000 A 
ATOM     26  C   UNL d   1      31.022  16.337 -24.041  0.00  0.00     0.000 A 
ATOM     27  C   UNL d   1      31.255  17.128 -23.995  0.00  0.00     0.000 A 
ENDBRANCH   4  22
TORSDOF 4
ENDMDL
