MODEL 1
REMARK VINA RESULT:      51.3      0.000      0.000
REMARK  3 active torsions:
REMARK  status: ('A' for Active; 'I' for Inactive)
REMARK    1  A    between atoms: N_5  and  C_2 
REMARK    2  A    between atoms: C_9  and  C_3 
REMARK       I    between atoms: C_7  and  N_5 
REMARK    3  A    between atoms: C_8  and  C_7 
ROOT
ATOM      1  N   UNL d   1     -50.271  25.935  33.728  0.00  0.00    -0.200 NA
ATOM      2  C   UNL d   1     -50.350  26.748  33.693  0.00  0.00     0.216 A 
ATOM      3  C   UNL d   1     -50.999  25.607  33.486  0.00  0.00     0.172 A 
ATOM      4  N   UNL d   1     -51.510  26.227  33.306  0.00  0.00    -0.187 NA
ATOM      5  S   UNL d   1     -51.108  26.932  33.434  0.00  0.00     0.054 SA
ENDROOT
BRANCH   2   6
ATOM      6  N   UNL d   1     -49.761  27.290  33.886  0.00  0.00    -0.181 NA
ATOM      7  C   UNL d   1     -49.630  27.489  34.679  0.00  0.00     0.281 C 
ATOM      8  O   UNL d   1     -50.086  27.148  35.272  0.00  0.00    -0.265 OA
BRANCH   7   9
ATOM      9  C   UNL d   1     -49.044  28.027  34.872  0.00  0.00     0.058 A 
ATOM     10  C   UNL d   1     -48.663  28.449  34.279  0.00  0.00     0.005 A 
ATOM     11  C   UNL d   1     -48.070  28.994  34.474  0.00  0.00     0.000 A 
ATOM     12  C   UNL d   1     -47.863  29.112  35.260  0.00  0.00     0.000 A 
ATOM     13  C   UNL d   1     -48.245  28.688  35.860  0.00  0.00     0.000 A 
ATOM     14  C   UNL d   1     -47.274  29.653  35.453  0.00  0.00     0.000 C 
ATOM     15  C   UNL d   1     -48.838  28.144  35.665  0.00  0.00     0.005 A 
ENDBRANCH   7   9
ENDBRANCH   2   6
BRANCH   3  16
ATOM     16  C   UNL d   1     -51.173  24.809  33.435  0.00  0.00     0.036 A 
ATOM     17  C   UNL d   1     -51.962  24.568  33.360  0.00  0.00     0.003 A 
ATOM     18  C   UNL d   1     -52.128  23.760  33.311  0.00  0.00     0.000 A 
ATOM     19  C   UNL d   1     -51.515  23.199  33.335  0.00  0.00     0.000 A 
ATOM     20  C   UNL d   1     -50.738  23.448  33.410  0.00  0.00     0.000 A 
ATOM     21  C   UNL d   1     -50.564  24.255  33.460  0.00  0.00     0.003 A 
ENDBRANCH   3  16
TORSDOF 3
ENDMDL
MODEL 2
REMARK VINA RESULT:      53.8      0.939      5.050
REMARK  3 active torsions:
REMARK  status: ('A' for Active; 'I' for Inactive)
REMARK    1  A    between atoms: N_5  and  C_2 
REMARK    2  A    between atoms: C_9  and  C_3 
REMARK       I    between atoms: C_7  and  N_5 
REMARK    3  A    between atoms: C_8  and  C_7 
ROOT
ATOM      1  N   UNL d   1     -49.947  27.010  34.404  0.00  0.00    -0.200 NA
ATOM      2  C   UNL d   1     -50.076  26.462  33.811  0.00  0.00     0.216 A 
ATOM      3  C   UNL d   1     -49.199  27.353  34.262  0.00  0.00     0.172 A 
ATOM      4  N   UNL d   1     -48.886  27.006  33.584  0.00  0.00    -0.187 NA
ATOM      5  S   UNL d   1     -49.428  26.456  33.306  0.00  0.00     0.054 SA
ENDROOT
BRANCH   2   6
ATOM      6  N   UNL d   1     -50.750  25.994  33.738  0.00  0.00    -0.181 NA
ATOM      7  C   UNL d   1     -50.673  25.180  33.607  0.00  0.00     0.281 C 
ATOM      8  O   UNL d   1     -49.928  24.839  33.549  0.00  0.00    -0.265 OA
BRANCH   7   9
ATOM      9  C   UNL d   1     -51.343  24.715  33.534  0.00  0.00     0.058 A 
ATOM     10  C   UNL d   1     -51.271  23.912  33.379  0.00  0.00     0.005 A 
ATOM     11  C   UNL d   1     -51.949  23.442  33.306  0.00  0.00     0.000 A 
ATOM     12  C   UNL d   1     -52.694  23.778  33.388  0.00  0.00     0.000 A 
ATOM     13  C   UNL d   1     -52.770  24.588  33.545  0.00  0.00     0.000 A 
ATOM     14  C   UNL d   1     -53.367  23.311  33.316  0.00  0.00     0.000 C 
ATOM     15  C   UNL d   1     -52.093  25.058  33.618  0.00  0.00     0.005 A 
ENDBRANCH   7   9
ENDBRANCH   2   6
BRANCH   3  16
ATOM     16  C   UNL d   1     -48.842  27.931  34.718  0.00  0.00     0.036 A 
ATOM     17  C   UNL d   1     -49.076  28.031  35.506  0.00  0.00     0.003 A 
ATOM     18  C   UNL d   1     -48.709  28.618  35.957  0.00  0.00     0.000 A 
ATOM     19  C   UNL d   1     -48.116  29.098  35.628  0.00  0.00     0.000 A 
ATOM     20  C   UNL d   1     -47.892  28.990  34.848  0.00  0.00     0.000 A 
ATOM     21  C   UNL d   1     -48.254  28.405  34.389  0.00  0.00     0.003 A 
ENDBRANCH   3  16
TORSDOF 3
ENDMDL
