MODEL 1
REMARK VINA RESULT:      -7.3      0.000      0.000
REMARK  4 active torsions:
REMARK  status: ('A' for Active; 'I' for Inactive)
REMARK    1  A    between atoms: C_8  and  C_1 
REMARK    2  A    between atoms: N_7  and  C_8 
REMARK    3  A    between atoms: C_18  and  N_9 
REMARK    4  A    between atoms: C_21  and  C_18 
ROOT
ATOM      1  C   UNL d   1     -48.428  13.589  22.943  0.00  0.00     0.059 A 
ATOM      2  C   UNL d   1     -49.666  13.988  22.364  0.00  0.00     0.121 A 
ATOM      3  C   UNL d   1     -48.961  14.185  22.762  0.00  0.00     0.214 A 
ATOM      4  C   UNL d   1     -49.821  13.204  22.156  0.00  0.00     0.032 A 
ATOM      5  C   UNL d   1     -49.284  12.611  22.340  0.00  0.00     0.059 A 
ATOM      6  C   UNL d   1     -48.584  12.802  22.734  0.00  0.00     0.016 A 
ATOM      7  N   UNL d   1     -50.207  14.586  22.180  0.00  0.00    -0.241 NA
ATOM      8 CL   UNL d   1     -49.438  11.832  22.133  0.00  0.00    -0.082 Cl
ATOM      9  O   UNL d   1     -48.808  14.960  22.968  0.00  0.00    -0.285 OA
ATOM     10  C   UNL d   1     -50.528  13.024  21.760  0.00  0.00     0.004 A 
ATOM     11  C   UNL d   1     -50.908  14.395  21.785  0.00  0.00     0.099 A 
ATOM     12  C   UNL d   1     -51.064  13.604  21.576  0.00  0.00     0.021 A 
ENDROOT
BRANCH   1  13
ATOM     13  C   UNL d   1     -47.721  13.773  23.340  0.00  0.00     0.084 C 
BRANCH  13  14
ATOM     14  N   UNL d   1     -47.006  13.450  23.070  0.00  0.00    -0.300 N 
ATOM     15  C   UNL d   1     -46.596  13.818  22.450  0.00  0.00     0.100 A 
ATOM     16  C   UNL d   1     -45.889  13.498  22.183  0.00  0.00     0.100 A 
ATOM     17  N   UNL d   1     -45.585  12.814  22.528  0.00  0.00    -0.297 N 
ATOM     18  C   UNL d   1     -45.996  12.445  23.148  0.00  0.00     0.100 A 
ATOM     19  C   UNL d   1     -46.699  12.763  23.415  0.00  0.00     0.100 A 
BRANCH  17  20
ATOM     20  C   UNL d   1     -44.879  12.494  22.261  0.00  0.00     0.126 C 
BRANCH  20  21
ATOM     21  C   UNL d   1     -44.368  12.941  21.798  0.00  0.00     0.253 C 
ATOM     22  O   UNL d   1     -43.631  12.626  21.569  0.00  0.00    -0.281 OA
ENDBRANCH  20  21
ENDBRANCH  17  20
ENDBRANCH  13  14
ENDBRANCH   1  13
TORSDOF 4
ENDMDL
MODEL 2
REMARK VINA RESULT:      -7.0      1.522      1.803
REMARK  4 active torsions:
REMARK  status: ('A' for Active; 'I' for Inactive)
REMARK    1  A    between atoms: C_8  and  C_1 
REMARK    2  A    between atoms: N_7  and  C_8 
REMARK    3  A    between atoms: C_18  and  N_9 
REMARK    4  A    between atoms: C_21  and  C_18 
ROOT
ATOM      1  C   UNL d   1     -48.684  13.893  22.581  0.00  0.00     0.059 A 
ATOM      2  C   UNL d   1     -49.584  14.889  23.056  0.00  0.00     0.121 A 
ATOM      3  C   UNL d   1     -48.841  14.681  22.741  0.00  0.00     0.214 A 
ATOM      4  C   UNL d   1     -50.151  14.308  23.202  0.00  0.00     0.032 A 
ATOM      5  C   UNL d   1     -49.989  13.519  23.039  0.00  0.00     0.059 A 
ATOM      6  C   UNL d   1     -49.254  13.309  22.727  0.00  0.00     0.016 A 
ATOM      7  N   UNL d   1     -49.745  15.684  23.219  0.00  0.00    -0.241 NA
ATOM      8 CL   UNL d   1     -50.554  12.941  23.184  0.00  0.00    -0.082 Cl
ATOM      9  O   UNL d   1     -48.279  15.257  22.596  0.00  0.00    -0.285 OA
ATOM     10  C   UNL d   1     -50.886  14.531  23.515  0.00  0.00     0.004 A 
ATOM     11  C   UNL d   1     -50.481  15.895  23.531  0.00  0.00     0.099 A 
ATOM     12  C   UNL d   1     -51.054  15.308  23.678  0.00  0.00     0.021 A 
ENDROOT
BRANCH   1  13
ATOM     13  C   UNL d   1     -47.946  13.673  22.266  0.00  0.00     0.084 C 
BRANCH  13  14
ATOM     14  N   UNL d   1     -47.516  13.063  22.628  0.00  0.00    -0.300 N 
ATOM     15  C   UNL d   1     -47.586  12.286  22.345  0.00  0.00     0.100 A 
ATOM     16  C   UNL d   1     -47.160  11.683  22.703  0.00  0.00     0.100 A 
ATOM     17  N   UNL d   1     -46.663  11.845  23.341  0.00  0.00    -0.297 N 
ATOM     18  C   UNL d   1     -46.593  12.623  23.624  0.00  0.00     0.100 A 
ATOM     19  C   UNL d   1     -47.017  13.224  23.268  0.00  0.00     0.100 A 
BRANCH  17  20
ATOM     20  C   UNL d   1     -46.238  11.242  23.698  0.00  0.00     0.126 C 
BRANCH  20  21
ATOM     21  C   UNL d   1     -45.586  10.912  23.322  0.00  0.00     0.253 C 
ATOM     22  O   UNL d   1     -45.198  10.257  23.660  0.00  0.00    -0.281 OA
ENDBRANCH  20  21
ENDBRANCH  17  20
ENDBRANCH  13  14
ENDBRANCH   1  13
TORSDOF 4
ENDMDL
MODEL 3
REMARK VINA RESULT:      -6.1      8.323     10.017
REMARK  4 active torsions:
REMARK  status: ('A' for Active; 'I' for Inactive)
REMARK    1  A    between atoms: C_8  and  C_1 
REMARK    2  A    between atoms: N_7  and  C_8 
REMARK    3  A    between atoms: C_18  and  N_9 
REMARK    4  A    between atoms: C_21  and  C_18 
ROOT
ATOM      1  C   UNL d   1     -39.971  14.496  17.886  0.00  0.00     0.059 A 
ATOM      2  C   UNL d   1     -39.129  14.442  16.739  0.00  0.00     0.121 A 
ATOM      3  C   UNL d   1     -39.730  14.822  17.174  0.00  0.00     0.214 A 
ATOM      4  C   UNL d   1     -38.785  13.749  17.024  0.00  0.00     0.032 A 
ATOM      5  C   UNL d   1     -39.029  13.426  17.739  0.00  0.00     0.059 A 
ATOM      6  C   UNL d   1     -39.625  13.800  18.173  0.00  0.00     0.016 A 
ATOM      7  N   UNL d   1     -38.884  14.768  16.020  0.00  0.00    -0.241 NA
ATOM      8 CL   UNL d   1     -38.687  12.737  18.023  0.00  0.00    -0.082 Cl
ATOM      9  O   UNL d   1     -40.072  15.509  16.891  0.00  0.00    -0.285 OA
ATOM     10  C   UNL d   1     -38.187  13.382  16.580  0.00  0.00     0.004 A 
ATOM     11  C   UNL d   1     -38.288  14.395  15.585  0.00  0.00     0.099 A 
ATOM     12  C   UNL d   1     -37.940  13.695  15.873  0.00  0.00     0.021 A 
ENDROOT
BRANCH   1  13
ATOM     13  C   UNL d   1     -40.570  14.866  18.329  0.00  0.00     0.084 C 
BRANCH  13  14
ATOM     14  N   UNL d   1     -40.429  15.059  19.123  0.00  0.00    -0.300 N 
ATOM     15  C   UNL d   1     -40.736  14.578  19.725  0.00  0.00     0.100 A 
ATOM     16  C   UNL d   1     -40.596  14.769  20.511  0.00  0.00     0.100 A 
ATOM     17  N   UNL d   1     -40.151  15.436  20.704  0.00  0.00    -0.297 N 
ATOM     18  C   UNL d   1     -39.843  15.918  20.102  0.00  0.00     0.100 A 
ATOM     19  C   UNL d   1     -39.983  15.728  19.320  0.00  0.00     0.100 A 
BRANCH  17  20
ATOM     20  C   UNL d   1     -40.011  15.627  21.489  0.00  0.00     0.126 C 
BRANCH  20  21
ATOM     21  C   UNL d   1     -39.357  15.322  21.882  0.00  0.00     0.253 C 
ATOM     22  O   UNL d   1     -39.184  15.572  22.658  0.00  0.00    -0.281 OA
ENDBRANCH  20  21
ENDBRANCH  17  20
ENDBRANCH  13  14
ENDBRANCH   1  13
TORSDOF 4
ENDMDL
MODEL 4
REMARK VINA RESULT:      -5.8      1.624      1.915
REMARK  4 active torsions:
REMARK  status: ('A' for Active; 'I' for Inactive)
REMARK    1  A    between atoms: C_8  and  C_1 
REMARK    2  A    between atoms: N_7  and  C_8 
REMARK    3  A    between atoms: C_18  and  N_9 
REMARK    4  A    between atoms: C_21  and  C_18 
ROOT
ATOM      1  C   UNL d   1     -48.756  12.629  23.109  0.00  0.00     0.059 A 
ATOM      2  C   UNL d   1     -49.896  12.835  22.281  0.00  0.00     0.121 A 
ATOM      3  C   UNL d   1     -49.505  12.396  22.872  0.00  0.00     0.214 A 
ATOM      4  C   UNL d   1     -49.532  13.494  21.944  0.00  0.00     0.032 A 
ATOM      5  C   UNL d   1     -48.781  13.724  22.185  0.00  0.00     0.059 A 
ATOM      6  C   UNL d   1     -48.390  13.291  22.770  0.00  0.00     0.016 A 
ATOM      7  N   UNL d   1     -50.651  12.603  22.039  0.00  0.00    -0.241 NA
ATOM      8 CL   UNL d   1     -48.419  14.380  21.849  0.00  0.00    -0.082 Cl
ATOM      9  O   UNL d   1     -49.865  11.743  23.206  0.00  0.00    -0.285 OA
ATOM     10  C   UNL d   1     -49.934  13.922  21.357  0.00  0.00     0.004 A 
ATOM     11  C   UNL d   1     -51.044  13.036  21.454  0.00  0.00     0.099 A 
ATOM     12  C   UNL d   1     -50.676  13.701  21.113  0.00  0.00     0.021 A 
ENDROOT
BRANCH   1  13
ATOM     13  C   UNL d   1     -48.355  12.198  23.697  0.00  0.00     0.084 C 
BRANCH  13  14
ATOM     14  N   UNL d   1     -47.579  11.942  23.556  0.00  0.00    -0.300 N 
ATOM     15  C   UNL d   1     -47.444  11.169  23.285  0.00  0.00     0.100 A 
ATOM     16  C   UNL d   1     -46.676  10.915  23.146  0.00  0.00     0.100 A 
ATOM     17  N   UNL d   1     -46.040  11.424  23.274  0.00  0.00    -0.297 N 
ATOM     18  C   UNL d   1     -46.175  12.197  23.545  0.00  0.00     0.100 A 
ATOM     19  C   UNL d   1     -46.939  12.450  23.684  0.00  0.00     0.100 A 
BRANCH  17  20
ATOM     20  C   UNL d   1     -45.272  11.170  23.134  0.00  0.00     0.126 C 
BRANCH  20  21
ATOM     21  C   UNL d   1     -44.872  10.724  23.696  0.00  0.00     0.253 C 
ATOM     22  O   UNL d   1     -44.068  10.539  23.584  0.00  0.00    -0.281 OA
ENDBRANCH  20  21
ENDBRANCH  17  20
ENDBRANCH  13  14
ENDBRANCH   1  13
TORSDOF 4
ENDMDL
MODEL 5
REMARK VINA RESULT:      -5.7      8.824      9.828
REMARK  4 active torsions:
REMARK  status: ('A' for Active; 'I' for Inactive)
REMARK    1  A    between atoms: C_8  and  C_1 
REMARK    2  A    between atoms: N_7  and  C_8 
REMARK    3  A    between atoms: C_18  and  N_9 
REMARK    4  A    between atoms: C_21  and  C_18 
ROOT
ATOM      1  C   UNL d   1     -38.785  14.530  20.026  0.00  0.00     0.059 A 
ATOM      2  C   UNL d   1     -38.501  13.752  21.184  0.00  0.00     0.121 A 
ATOM      3  C   UNL d   1     -38.405  13.889  20.368  0.00  0.00     0.214 A 
ATOM      4  C   UNL d   1     -38.971  14.256  21.638  0.00  0.00     0.032 A 
ATOM      5  C   UNL d   1     -39.349  14.897  21.290  0.00  0.00     0.059 A 
ATOM      6  C   UNL d   1     -39.257  15.037  20.482  0.00  0.00     0.016 A 
ATOM      7  N   UNL d   1     -38.121  13.106  21.533  0.00  0.00    -0.241 NA
ATOM      8 CL   UNL d   1     -39.816  15.399  21.742  0.00  0.00    -0.082 Cl
ATOM      9  O   UNL d   1     -37.940  13.389  19.918  0.00  0.00    -0.285 OA
ATOM     10  C   UNL d   1     -39.057  14.107  22.450  0.00  0.00     0.004 A 
ATOM     11  C   UNL d   1     -38.213  12.966  22.342  0.00  0.00     0.099 A 
ATOM     12  C   UNL d   1     -38.687  13.475  22.800  0.00  0.00     0.021 A 
ENDROOT
BRANCH   1  13
ATOM     13  C   UNL d   1     -38.696  14.677  19.212  0.00  0.00     0.084 C 
BRANCH  13  14
ATOM     14  N   UNL d   1     -39.357  14.905  18.766  0.00  0.00    -0.300 N 
ATOM     15  C   UNL d   1     -39.908  14.333  18.525  0.00  0.00     0.100 A 
ATOM     16  C   UNL d   1     -40.563  14.559  18.083  0.00  0.00     0.100 A 
ATOM     17  N   UNL d   1     -40.674  15.350  17.879  0.00  0.00    -0.297 N 
ATOM     18  C   UNL d   1     -40.122  15.922  18.119  0.00  0.00     0.100 A 
ATOM     19  C   UNL d   1     -39.471  15.698  18.559  0.00  0.00     0.100 A 
BRANCH  17  20
ATOM     20  C   UNL d   1     -41.327  15.575  17.437  0.00  0.00     0.126 C 
BRANCH  20  21
ATOM     21  C   UNL d   1     -41.306  15.547  16.617  0.00  0.00     0.253 C 
ATOM     22  O   UNL d   1     -42.015  15.585  16.181  0.00  0.00    -0.281 OA
ENDBRANCH  20  21
ENDBRANCH  17  20
ENDBRANCH  13  14
ENDBRANCH   1  13
TORSDOF 4
ENDMDL
MODEL 6
REMARK VINA RESULT:      -5.3      8.641      9.266
REMARK  4 active torsions:
REMARK  status: ('A' for Active; 'I' for Inactive)
REMARK    1  A    between atoms: C_8  and  C_1 
REMARK    2  A    between atoms: N_7  and  C_8 
REMARK    3  A    between atoms: C_18  and  N_9 
REMARK    4  A    between atoms: C_21  and  C_18 
ROOT
ATOM      1  C   UNL d   1     -39.877  15.787  19.581  0.00  0.00     0.059 A 
ATOM      2  C   UNL d   1     -40.495  15.766  18.299  0.00  0.00     0.121 A 
ATOM      3  C   UNL d   1     -40.559  15.826  19.128  0.00  0.00     0.214 A 
ATOM      4  C   UNL d   1     -39.756  15.669  17.944  0.00  0.00     0.032 A 
ATOM      5  C   UNL d   1     -39.077  15.630  18.404  0.00  0.00     0.059 A 
ATOM      6  C   UNL d   1     -39.135  15.689  19.225  0.00  0.00     0.016 A 
ATOM      7  N   UNL d   1     -41.180  15.804  17.837  0.00  0.00    -0.241 NA
ATOM      8 CL   UNL d   1     -38.342  15.534  18.051  0.00  0.00    -0.082 Cl
ATOM      9  O   UNL d   1     -41.290  15.922  19.478  0.00  0.00    -0.285 OA
ATOM     10  C   UNL d   1     -39.709  15.611  17.118  0.00  0.00     0.004 A 
ATOM     11  C   UNL d   1     -41.122  15.745  17.015  0.00  0.00     0.099 A 
ATOM     12  C   UNL d   1     -40.376  15.648  16.657  0.00  0.00     0.021 A 
ENDROOT
BRANCH   1  13
ATOM     13  C   UNL d   1     -39.928  15.845  20.410  0.00  0.00     0.084 C 
BRANCH  13  14
ATOM     14  N   UNL d   1     -39.573  15.263  20.881  0.00  0.00    -0.300 N 
ATOM     15  C   UNL d   1     -38.843  15.417  21.245  0.00  0.00     0.100 A 
ATOM     16  C   UNL d   1     -38.491  14.841  21.712  0.00  0.00     0.100 A 
ATOM     17  N   UNL d   1     -38.859  14.111  21.820  0.00  0.00    -0.297 N 
ATOM     18  C   UNL d   1     -39.590  13.957  21.456  0.00  0.00     0.100 A 
ATOM     19  C   UNL d   1     -39.940  14.530  20.991  0.00  0.00     0.100 A 
BRANCH  17  20
ATOM     20  C   UNL d   1     -38.508  13.535  22.286  0.00  0.00     0.126 C 
BRANCH  20  21
ATOM     21  C   UNL d   1     -38.732  13.440  23.071  0.00  0.00     0.253 C 
ATOM     22  O   UNL d   1     -38.435  12.799  23.513  0.00  0.00    -0.281 OA
ENDBRANCH  20  21
ENDBRANCH  17  20
ENDBRANCH  13  14
ENDBRANCH   1  13
TORSDOF 4
ENDMDL
MODEL 7
REMARK VINA RESULT:      -4.8      8.041     10.224
REMARK  4 active torsions:
REMARK  status: ('A' for Active; 'I' for Inactive)
REMARK    1  A    between atoms: C_8  and  C_1 
REMARK    2  A    between atoms: N_7  and  C_8 
REMARK    3  A    between atoms: C_18  and  N_9 
REMARK    4  A    between atoms: C_21  and  C_18 
ROOT
ATOM      1  C   UNL d   1     -38.875  15.091  18.902  0.00  0.00     0.059 A 
ATOM      2  C   UNL d   1     -39.607  14.760  20.078  0.00  0.00     0.121 A 
ATOM      3  C   UNL d   1     -38.896  14.740  19.643  0.00  0.00     0.214 A 
ATOM      4  C   UNL d   1     -40.275  15.129  19.766  0.00  0.00     0.032 A 
ATOM      5  C   UNL d   1     -40.248  15.479  19.023  0.00  0.00     0.059 A 
ATOM      6  C   UNL d   1     -39.546  15.461  18.588  0.00  0.00     0.016 A 
ATOM      7  N   UNL d   1     -39.633  14.407  20.825  0.00  0.00    -0.241 NA
ATOM      8 CL   UNL d   1     -40.914  15.846  18.712  0.00  0.00    -0.082 Cl
ATOM      9  O   UNL d   1     -38.234  14.375  19.952  0.00  0.00    -0.285 OA
ATOM     10  C   UNL d   1     -40.975  15.141  20.211  0.00  0.00     0.004 A 
ATOM     11  C   UNL d   1     -40.335  14.425  21.261  0.00  0.00     0.099 A 
ATOM     12  C   UNL d   1     -41.010  14.797  20.946  0.00  0.00     0.021 A 
ENDROOT
BRANCH   1  13
ATOM     13  C   UNL d   1     -38.171  15.077  18.458  0.00  0.00     0.084 C 
BRANCH  13  14
ATOM     14  N   UNL d   1     -38.203  14.886  17.652  0.00  0.00    -0.300 N 
ATOM     15  C   UNL d   1     -38.260  14.092  17.419  0.00  0.00     0.100 A 
ATOM     16  C   UNL d   1     -38.292  13.903  16.620  0.00  0.00     0.100 A 
ATOM     17  N   UNL d   1     -38.267  14.499  16.051  0.00  0.00    -0.297 N 
ATOM     18  C   UNL d   1     -38.210  15.294  16.284  0.00  0.00     0.100 A 
ATOM     19  C   UNL d   1     -38.179  15.482  17.079  0.00  0.00     0.100 A 
BRANCH  17  20
ATOM     20  C   UNL d   1     -38.298  14.311  15.253  0.00  0.00     0.126 C 
BRANCH  20  21
ATOM     21  C   UNL d   1     -37.940  13.627  14.972  0.00  0.00     0.253 C 
ATOM     22  O   UNL d   1     -37.940  13.463  14.155  0.00  0.00    -0.281 OA
ENDBRANCH  20  21
ENDBRANCH  17  20
ENDBRANCH  13  14
ENDBRANCH   1  13
TORSDOF 4
ENDMDL
MODEL 8
REMARK VINA RESULT:      -4.4      9.060     10.057
REMARK  4 active torsions:
REMARK  status: ('A' for Active; 'I' for Inactive)
REMARK    1  A    between atoms: C_8  and  C_1 
REMARK    2  A    between atoms: N_7  and  C_8 
REMARK    3  A    between atoms: C_18  and  N_9 
REMARK    4  A    between atoms: C_21  and  C_18 
ROOT
ATOM      1  C   UNL d   1     -39.142  15.062  19.949  0.00  0.00     0.059 A 
ATOM      2  C   UNL d   1     -39.191  14.701  21.325  0.00  0.00     0.121 A 
ATOM      3  C   UNL d   1     -39.416  15.212  20.706  0.00  0.00     0.214 A 
ATOM      4  C   UNL d   1     -38.700  14.056  21.174  0.00  0.00     0.032 A 
ATOM      5  C   UNL d   1     -38.428  13.910  20.413  0.00  0.00     0.059 A 
ATOM      6  C   UNL d   1     -38.649  14.413  19.796  0.00  0.00     0.016 A 
ATOM      7  N   UNL d   1     -39.466  14.850  22.091  0.00  0.00    -0.241 NA
ATOM      8 CL   UNL d   1     -37.940  13.267  20.262  0.00  0.00    -0.082 Cl
ATOM      9  O   UNL d   1     -39.903  15.851  20.856  0.00  0.00    -0.285 OA
ATOM     10  C   UNL d   1     -38.485  13.556  21.801  0.00  0.00     0.004 A 
ATOM     11  C   UNL d   1     -39.246  14.346  22.708  0.00  0.00     0.099 A 
ATOM     12  C   UNL d   1     -38.750  13.694  22.555  0.00  0.00     0.021 A 
ENDROOT
BRANCH   1  13
ATOM     13  C   UNL d   1     -39.360  15.564  19.322  0.00  0.00     0.084 C 
BRANCH  13  14
ATOM     14  N   UNL d   1     -39.265  15.305  18.541  0.00  0.00    -0.300 N 
ATOM     15  C   UNL d   1     -38.586  15.517  18.115  0.00  0.00     0.100 A 
ATOM     16  C   UNL d   1     -38.493  15.260  17.341  0.00  0.00     0.100 A 
ATOM     17  N   UNL d   1     -39.071  14.792  16.986  0.00  0.00    -0.297 N 
ATOM     18  C   UNL d   1     -39.751  14.579  17.412  0.00  0.00     0.100 A 
ATOM     19  C   UNL d   1     -39.844  14.835  18.182  0.00  0.00     0.100 A 
BRANCH  17  20
ATOM     20  C   UNL d   1     -38.978  14.535  16.213  0.00  0.00     0.126 C 
BRANCH  20  21
ATOM     21  C   UNL d   1     -38.381  14.005  16.018  0.00  0.00     0.253 C 
ATOM     22  O   UNL d   1     -38.246  13.804  15.221  0.00  0.00    -0.281 OA
ENDBRANCH  20  21
ENDBRANCH  17  20
ENDBRANCH  13  14
ENDBRANCH   1  13
TORSDOF 4
ENDMDL
