MODEL 1
REMARK VINA RESULT:       8.4      0.000      0.000
REMARK  4 active torsions:
REMARK  status: ('A' for Active; 'I' for Inactive)
REMARK    1  A    between atoms: C_3  and  C_1 
REMARK    2  A    between atoms: C_5  and  C_1 
REMARK    3  A    between atoms: C_2  and  C_3 
REMARK       I    between atoms: N_4  and  C_2 
REMARK    4  A    between atoms: C_6  and  N_4 
ROOT
ATOM      1  C   UNL d   1      46.155 -17.191  44.430  0.00  0.00     0.279 C 
ATOM      2  N   UNL d   1      46.525 -17.547  43.780  0.00  0.00    -0.208 NA
ATOM      3  O   UNL d   1      45.730 -17.665  44.955  0.00  0.00    -0.265 OA
ENDROOT
BRANCH   1   4
ATOM      4  C   UNL d   1      46.196 -16.375  44.574  0.00  0.00     0.063 C 
BRANCH   4   5
ATOM      5  C   UNL d   1      45.549 -15.955  44.795  0.00  0.00     0.006 C 
BRANCH   5   6
ATOM      6  C   UNL d   1      45.524 -15.123  44.733  0.00  0.00     0.011 A 
ATOM      7  C   UNL d   1      44.825 -14.696  44.811  0.00  0.00     0.058 A 
ATOM      8 CL   UNL d   1      44.118 -15.096  44.955  0.00  0.00    -0.082 Cl
ATOM      9  C   UNL d   1      44.814 -13.889  44.749  0.00  0.00     0.011 A 
ATOM     10  C   UNL d   1      45.531 -13.475  44.602  0.00  0.00     0.001 A 
ATOM     11  C   UNL d   1      46.240 -13.878  44.521  0.00  0.00     0.000 A 
ATOM     12  C   UNL d   1      46.241 -14.709  44.587  0.00  0.00     0.001 A 
ENDBRANCH   5   6
ENDBRANCH   4   5
ENDBRANCH   1   4
BRANCH   2  13
ATOM     13  C   UNL d   1      46.483 -18.362  43.638  0.00  0.00     0.088 A 
ATOM     14  C   UNL d   1      46.416 -18.626  42.859  0.00  0.00     0.061 A 
ATOM     15  C   UNL d   1      46.374 -19.411  42.687  0.00  0.00     0.197 A 
ATOM     16  O   UNL d   1      46.307 -19.674  41.911  0.00  0.00    -0.286 OA
ATOM     17  C   UNL d   1      46.398 -19.965  43.315  0.00  0.00     0.042 A 
ATOM     18  C   UNL d   1      46.466 -19.701  44.093  0.00  0.00     0.005 A 
ATOM     19  C   UNL d   1      46.507 -18.886  44.236  0.00  0.00     0.019 A 
ENDBRANCH   2  13
TORSDOF 4
ENDMDL
