MODEL 1
REMARK VINA RESULT:      22.6      0.000      0.000
REMARK  3 active torsions:
REMARK  status: ('A' for Active; 'I' for Inactive)
REMARK    1  A    between atoms: C_6  and  N_1 
REMARK    2  A    between atoms: C_5  and  C_9 
REMARK    3  A    between atoms: C_14  and  C_6 
ROOT
ATOM      1  C   UNL d   1      60.464  49.372  51.455  0.00  0.00     0.064 A 
ATOM      2  C   UNL d   1      60.586  49.305  50.642  0.00  0.00     0.006 A 
ATOM      3  C   UNL d   1      59.715  49.550  51.746  0.00  0.00     0.006 A 
ATOM      4  C   UNL d   1      59.206  49.594  50.411  0.00  0.00     0.018 A 
ATOM      5  C   UNL d   1      59.959  49.415  50.119  0.00  0.00     0.002 A 
ATOM      6  C   UNL d   1      59.084  49.661  51.224  0.00  0.00     0.002 A 
ENDROOT
BRANCH   4   7
ATOM      7  C   UNL d   1      58.578  49.704  49.888  0.00  0.00     0.084 C 
BRANCH   7   8
ATOM      8  N   UNL d   1      57.801  49.654  50.160  0.00  0.00    -0.259 N 
ATOM      9  C   UNL d   1      57.125  49.596  49.681  0.00  0.00     0.153 A 
ATOM     10  S   UNL d   1      56.474  49.559  50.178  0.00  0.00    -0.053 SA
ATOM     11  S   UNL d   1      57.117  49.578  48.856  0.00  0.00    -0.052 SA
ATOM     12  C   UNL d   1      56.744  49.595  50.957  0.00  0.00     0.099 A 
ATOM     13  C   UNL d   1      57.562  49.654  50.945  0.00  0.00     0.272 A 
ATOM     14  O   UNL d   1      58.062  49.703  51.603  0.00  0.00    -0.266 OA
ENDBRANCH   7   8
ENDBRANCH   4   7
BRANCH   1  15
ATOM     15  C   UNL d   1      61.100  49.260  51.977  0.00  0.00     0.211 C 
ATOM     16  O   UNL d   1      61.152  49.706  52.666  0.00  0.00    -0.644 OA
ATOM     17  O   UNL d   1      61.679  48.698  51.803  0.00  0.00    -0.644 OA
ENDBRANCH   1  15
TORSDOF 3
ENDMDL
MODEL 2
REMARK VINA RESULT:      25.1      1.038      1.316
REMARK  3 active torsions:
REMARK  status: ('A' for Active; 'I' for Inactive)
REMARK    1  A    between atoms: C_6  and  N_1 
REMARK    2  A    between atoms: C_5  and  C_9 
REMARK    3  A    between atoms: C_14  and  C_6 
ROOT
ATOM      1  C   UNL d   1      59.722  49.256  51.016  0.00  0.00     0.064 A 
ATOM      2  C   UNL d   1      59.495  49.410  50.238  0.00  0.00     0.006 A 
ATOM      3  C   UNL d   1      59.159  49.251  51.616  0.00  0.00     0.006 A 
ATOM      4  C   UNL d   1      58.138  49.556  50.661  0.00  0.00     0.018 A 
ATOM      5  C   UNL d   1      58.706  49.560  50.059  0.00  0.00     0.002 A 
ATOM      6  C   UNL d   1      58.365  49.402  51.439  0.00  0.00     0.002 A 
ENDROOT
BRANCH   4   7
ATOM      7  C   UNL d   1      57.348  49.707  50.483  0.00  0.00     0.084 C 
BRANCH   7   8
ATOM      8  N   UNL d   1      56.877  49.112  50.160  0.00  0.00    -0.259 N 
ATOM      9  C   UNL d   1      56.556  49.111  49.395  0.00  0.00     0.153 A 
ATOM     10  S   UNL d   1      56.128  48.418  49.308  0.00  0.00    -0.053 SA
ATOM     11  S   UNL d   1      56.655  49.704  48.828  0.00  0.00    -0.052 SA
ATOM     12  C   UNL d   1      56.182  47.992  50.013  0.00  0.00     0.099 A 
ATOM     13  C   UNL d   1      56.644  48.421  50.538  0.00  0.00     0.272 A 
ATOM     14  O   UNL d   1      56.843  48.202  51.311  0.00  0.00    -0.266 OA
ENDBRANCH   7   8
ENDBRANCH   4   7
BRANCH   1  15
ATOM     15  C   UNL d   1      60.519  49.105  51.191  0.00  0.00     0.211 C 
ATOM     16  O   UNL d   1      60.974  48.645  50.683  0.00  0.00    -0.644 OA
ATOM     17  O   UNL d   1      60.854  49.418  51.877  0.00  0.00    -0.644 OA
ENDBRANCH   1  15
TORSDOF 3
ENDMDL
