MODEL 1
REMARK VINA RESULT:       1.3      0.000      0.000
REMARK  3 active torsions:
REMARK  status: ('A' for Active; 'I' for Inactive)
REMARK    1  A    between atoms: C_6  and  N_1 
REMARK    2  A    between atoms: C_7  and  C_6 
REMARK    3  A    between atoms: C_8  and  C_7 
ROOT
ATOM      1  N   UNL d   1      45.434 -13.339  44.133  0.00  0.00    -0.211 N 
ATOM      2  N   UNL d   1      45.602 -12.080  43.713  0.00  0.00    -0.206 NA
ATOM      3  C   UNL d   1      45.813 -12.628  44.296  0.00  0.00     0.166 A 
ATOM      4  N   UNL d   1      44.981 -13.235  43.440  0.00  0.00    -0.144 NA
ATOM      5  C   UNL d   1      45.086 -12.452  43.179  0.00  0.00     0.184 A 
ATOM      6  C   UNL d   1      46.318 -12.476  44.929  0.00  0.00     0.042 C 
ATOM      7  C   UNL d   1      44.740 -12.114  42.513  0.00  0.00     0.044 C 
ENDROOT
BRANCH   1   8
ATOM      8  C   UNL d   1      45.485 -14.042  44.573  0.00  0.00     0.091 C 
ATOM      9  C   UNL d   1      46.213 -14.433  44.622  0.00  0.00     0.021 C 
BRANCH   8  10
ATOM     10  C   UNL d   1      44.824 -14.346  44.955  0.00  0.00     0.089 C 
BRANCH  10  11
ATOM     11  C   UNL d   1      44.595 -15.130  44.828  0.00  0.00     0.213 C 
ATOM     12  O   UNL d   1      43.810 -15.352  44.932  0.00  0.00    -0.644 OA
ATOM     13  O   UNL d   1      45.158 -15.691  44.597  0.00  0.00    -0.644 OA
ENDBRANCH  10  11
ENDBRANCH   8  10
ENDBRANCH   1   8
TORSDOF 3
ENDMDL
MODEL 2
REMARK VINA RESULT:       3.0      5.182      6.227
REMARK  3 active torsions:
REMARK  status: ('A' for Active; 'I' for Inactive)
REMARK    1  A    between atoms: C_6  and  N_1 
REMARK    2  A    between atoms: C_7  and  C_6 
REMARK    3  A    between atoms: C_8  and  C_7 
ROOT
ATOM      1  N   UNL d   1      46.453 -19.140  43.606  0.00  0.00    -0.211 N 
ATOM      2  N   UNL d   1      46.323 -18.948  44.924  0.00  0.00    -0.206 NA
ATOM      3  C   UNL d   1      46.440 -19.519  44.336  0.00  0.00     0.166 A 
ATOM      4  N   UNL d   1      46.344 -18.323  43.740  0.00  0.00    -0.144 NA
ATOM      5  C   UNL d   1      46.263 -18.204  44.560  0.00  0.00     0.184 A 
ATOM      6  C   UNL d   1      46.526 -20.327  44.470  0.00  0.00     0.042 C 
ATOM      7  C   UNL d   1      46.145 -17.481  44.934  0.00  0.00     0.044 C 
ENDROOT
BRANCH   1   8
ATOM      8  C   UNL d   1      46.556 -19.496  42.863  0.00  0.00     0.091 C 
ATOM      9  C   UNL d   1      46.567 -20.321  42.811  0.00  0.00     0.021 C 
BRANCH   8  10
ATOM     10  C   UNL d   1      46.647 -19.036  42.187  0.00  0.00     0.089 C 
BRANCH  10  11
ATOM     11  C   UNL d   1      46.591 -19.381  41.440  0.00  0.00     0.213 C 
ATOM     12  O   UNL d   1      46.609 -20.201  41.362  0.00  0.00    -0.644 OA
ATOM     13  O   UNL d   1      46.518 -18.903  40.769  0.00  0.00    -0.644 OA
ENDBRANCH  10  11
ENDBRANCH   8  10
ENDBRANCH   1   8
TORSDOF 3
ENDMDL
