MODEL 1
REMARK VINA RESULT:      -5.7      0.000      0.000
REMARK  5 active torsions:
REMARK  status: ('A' for Active; 'I' for Inactive)
REMARK    1  A    between atoms: C_3  and  C_2 
REMARK    2  A    between atoms: C_7  and  C_3 
REMARK    3  A    between atoms: C_10  and  C_4 
REMARK    4  A    between atoms: C_12  and  C_7 
REMARK    5  A    between atoms: C_18  and  C_11 
ROOT
ATOM      1  C   UNL d   1      58.279   0.212  30.381  0.00  0.00     0.092 C 
ATOM      2  C   UNL d   1      58.829   0.447  30.949  0.00  0.00     0.103 C 
ATOM      3  N   UNL d   1      59.379   0.682  31.516  0.00  0.00    -0.191 NA
ENDROOT
BRANCH   1   4
ATOM      4  C   UNL d   1      58.531  -0.200  29.712  0.00  0.00     0.120 A 
ATOM      5  N   UNL d   1      58.856  -0.948  29.789  0.00  0.00    -0.238 NA
ATOM      6  C   UNL d   1      59.056  -1.217  29.026  0.00  0.00     0.088 A 
ATOM      7  C   UNL d   1      58.849  -0.630  28.505  0.00  0.00     0.056 A 
ATOM      8  S   UNL d   1      58.528  -0.004  28.911  0.00  0.00    -0.065 SA
BRANCH   6   9
ATOM      9  C   UNL d   1      59.397  -1.964  28.936  0.00  0.00     0.018 A 
ATOM     10  C   UNL d   1      60.205  -2.063  28.885  0.00  0.00     0.005 A 
ATOM     11  C   UNL d   1      60.524  -2.798  28.797  0.00  0.00     0.042 A 
ATOM     12  C   UNL d   1      60.051  -3.474  28.756  0.00  0.00     0.196 A 
ATOM     13  C   UNL d   1      59.234  -3.386  28.806  0.00  0.00     0.042 A 
ATOM     14  O   UNL d   1      60.184  -4.217  28.677  0.00  0.00    -0.287 OA
ATOM     15  C   UNL d   1      58.912  -2.633  28.896  0.00  0.00     0.005 A 
ENDBRANCH   6   9
ENDBRANCH   1   4
BRANCH   1  16
ATOM     16  C   UNL d   1      57.477   0.385  30.478  0.00  0.00     0.012 C 
BRANCH  16  17
ATOM     17  C   UNL d   1      57.062   0.113  31.159  0.00  0.00     0.001 A 
ATOM     18  C   UNL d   1      56.768   0.682  31.674  0.00  0.00     0.000 A 
ATOM     19  C   UNL d   1      56.340   0.418  32.376  0.00  0.00     0.000 A 
ATOM     20  C   UNL d   1      56.245  -0.400  32.501  0.00  0.00     0.000 A 
ATOM     21  C   UNL d   1      56.551  -0.950  31.968  0.00  0.00     0.000 A 
ATOM     22  C   UNL d   1      56.955  -0.712  31.304  0.00  0.00     0.000 A 
BRANCH  20  23
ATOM     23  C   UNL d   1      55.821  -0.635  33.198  0.00  0.00     0.000 C 
ATOM     24  C   UNL d   1      55.744  -1.424  33.403  0.00  0.00     0.000 C 
ATOM     25  C   UNL d   1      55.484  -0.044  33.671  0.00  0.00     0.000 C 
ENDBRANCH  20  23
ENDBRANCH  16  17
ENDBRANCH   1  16
TORSDOF 5
ENDMDL
MODEL 2
REMARK VINA RESULT:      -4.1      1.752      4.778
REMARK  5 active torsions:
REMARK  status: ('A' for Active; 'I' for Inactive)
REMARK    1  A    between atoms: C_3  and  C_2 
REMARK    2  A    between atoms: C_7  and  C_3 
REMARK    3  A    between atoms: C_10  and  C_4 
REMARK    4  A    between atoms: C_12  and  C_7 
REMARK    5  A    between atoms: C_18  and  C_11 
ROOT
ATOM      1  C   UNL d   1      59.198   0.104  29.749  0.00  0.00     0.092 C 
ATOM      2  C   UNL d   1      59.879   0.344  30.149  0.00  0.00     0.103 C 
ATOM      3  N   UNL d   1      60.558   0.584  30.549  0.00  0.00    -0.191 NA
ENDROOT
BRANCH   1   4
ATOM      4  C   UNL d   1      58.456   0.279  30.063  0.00  0.00     0.120 A 
ATOM      5  N   UNL d   1      58.275   0.063  30.832  0.00  0.00    -0.238 NA
ATOM      6  C   UNL d   1      57.495   0.312  30.988  0.00  0.00     0.088 A 
ATOM      7  C   UNL d   1      57.221   0.671  30.314  0.00  0.00     0.056 A 
ATOM      8  S   UNL d   1      57.798   0.658  29.742  0.00  0.00    -0.065 SA
BRANCH   6   9
ATOM      9  C   UNL d   1      57.164   0.166  31.730  0.00  0.00     0.018 A 
ATOM     10  C   UNL d   1      56.610  -0.421  31.845  0.00  0.00     0.005 A 
ATOM     11  C   UNL d   1      56.295  -0.552  32.575  0.00  0.00     0.042 A 
ATOM     12  C   UNL d   1      56.518  -0.103  33.231  0.00  0.00     0.196 A 
ATOM     13  C   UNL d   1      57.077   0.493  33.127  0.00  0.00     0.042 A 
ATOM     14  O   UNL d   1      56.327  -0.094  33.966  0.00  0.00    -0.287 OA
ATOM     15  C   UNL d   1      57.396   0.624  32.379  0.00  0.00     0.005 A 
ENDBRANCH   6   9
ENDBRANCH   1   4
BRANCH   1  16
ATOM     16  C   UNL d   1      59.256  -0.310  29.036  0.00  0.00     0.012 C 
BRANCH  16  17
ATOM     17  C   UNL d   1      59.551  -1.099  29.025  0.00  0.00     0.001 A 
ATOM     18  C   UNL d   1      60.361  -1.200  29.120  0.00  0.00     0.000 A 
ATOM     19  C   UNL d   1      60.679  -2.003  29.110  0.00  0.00     0.000 A 
ATOM     20  C   UNL d   1      60.151  -2.639  29.006  0.00  0.00     0.000 A 
ATOM     21  C   UNL d   1      59.341  -2.509  28.914  0.00  0.00     0.000 A 
ATOM     22  C   UNL d   1      59.033  -1.758  28.921  0.00  0.00     0.000 A 
BRANCH  20  23
ATOM     23  C   UNL d   1      60.486  -3.419  29.001  0.00  0.00     0.000 C 
ATOM     24  C   UNL d   1      60.182  -4.010  28.522  0.00  0.00     0.000 C 
ATOM     25  C   UNL d   1      61.133  -3.572  29.494  0.00  0.00     0.000 C 
ENDBRANCH  20  23
ENDBRANCH  16  17
ENDBRANCH   1  16
TORSDOF 5
ENDMDL
MODEL 3
REMARK VINA RESULT:      -3.7      1.255      2.052
REMARK  5 active torsions:
REMARK  status: ('A' for Active; 'I' for Inactive)
REMARK    1  A    between atoms: C_3  and  C_2 
REMARK    2  A    between atoms: C_7  and  C_3 
REMARK    3  A    between atoms: C_10  and  C_4 
REMARK    4  A    between atoms: C_12  and  C_7 
REMARK    5  A    between atoms: C_18  and  C_11 
ROOT
ATOM      1  C   UNL d   1      57.107   0.003  31.572  0.00  0.00     0.092 C 
ATOM      2  C   UNL d   1      56.770  -0.710  31.816  0.00  0.00     0.103 C 
ATOM      3  N   UNL d   1      56.433  -1.422  32.059  0.00  0.00    -0.191 NA
ENDROOT
BRANCH   1   4
ATOM      4  C   UNL d   1      57.502   0.043  30.850  0.00  0.00     0.120 A 
ATOM      5  N   UNL d   1      58.043  -0.538  30.645  0.00  0.00    -0.238 NA
ATOM      6  C   UNL d   1      58.346  -0.348  29.893  0.00  0.00     0.088 A 
ATOM      7  C   UNL d   1      57.986   0.340  29.658  0.00  0.00     0.056 A 
ATOM      8  S   UNL d   1      57.469   0.589  30.233  0.00  0.00    -0.065 SA
BRANCH   6   9
ATOM      9  C   UNL d   1      58.909  -0.843  29.546  0.00  0.00     0.018 A 
ATOM     10  C   UNL d   1      58.698  -1.535  29.169  0.00  0.00     0.005 A 
ATOM     11  C   UNL d   1      59.258  -2.008  28.835  0.00  0.00     0.042 A 
ATOM     12  C   UNL d   1      60.061  -1.816  28.861  0.00  0.00     0.196 A 
ATOM     13  C   UNL d   1      60.287  -1.120  29.239  0.00  0.00     0.042 A 
ATOM     14  O   UNL d   1      60.699  -2.139  28.605  0.00  0.00    -0.287 OA
ATOM     15  C   UNL d   1      59.711  -0.638  29.580  0.00  0.00     0.005 A 
ENDBRANCH   6   9
ENDBRANCH   1   4
BRANCH   1  16
ATOM     16  C   UNL d   1      57.051   0.676  32.047  0.00  0.00     0.012 C 
BRANCH  16  17
ATOM     17  C   UNL d   1      56.565   0.672  32.736  0.00  0.00     0.001 A 
ATOM     18  C   UNL d   1      56.945   0.661  33.465  0.00  0.00     0.000 A 
ATOM     19  C   UNL d   1      56.461   0.656  34.180  0.00  0.00     0.000 A 
ATOM     20  C   UNL d   1      55.632   0.664  34.099  0.00  0.00     0.000 A 
ATOM     21  C   UNL d   1      55.276   0.675  33.355  0.00  0.00     0.000 A 
ATOM     22  C   UNL d   1      55.723   0.679  32.677  0.00  0.00     0.000 A 
BRANCH  20  23
ATOM     23  C   UNL d   1      55.177   0.659  34.816  0.00  0.00     0.000 C 
ATOM     24  C   UNL d   1      54.358   0.682  34.801  0.00  0.00     0.000 C 
ATOM     25  C   UNL d   1      55.582   0.630  35.538  0.00  0.00     0.000 C 
ENDBRANCH  20  23
ENDBRANCH  16  17
ENDBRANCH   1  16
TORSDOF 5
ENDMDL
MODEL 4
REMARK VINA RESULT:      -2.9      2.893      5.725
REMARK  5 active torsions:
REMARK  status: ('A' for Active; 'I' for Inactive)
REMARK    1  A    between atoms: C_3  and  C_2 
REMARK    2  A    between atoms: C_7  and  C_3 
REMARK    3  A    between atoms: C_10  and  C_4 
REMARK    4  A    between atoms: C_12  and  C_7 
REMARK    5  A    between atoms: C_18  and  C_11 
ROOT
ATOM      1  C   UNL d   1      57.116  -0.039  31.569  0.00  0.00     0.092 C 
ATOM      2  C   UNL d   1      57.043  -0.840  31.385  0.00  0.00     0.103 C 
ATOM      3  N   UNL d   1      56.970  -1.640  31.200  0.00  0.00    -0.191 NA
ENDROOT
BRANCH   1   4
ATOM      4  C   UNL d   1      57.001   0.213  32.346  0.00  0.00     0.120 A 
ATOM      5  N   UNL d   1      56.250   0.201  32.675  0.00  0.00    -0.238 NA
ATOM      6  C   UNL d   1      56.312   0.484  33.456  0.00  0.00     0.088 A 
ATOM      7  C   UNL d   1      57.093   0.661  33.585  0.00  0.00     0.056 A 
ATOM      8  S   UNL d   1      57.524   0.500  32.915  0.00  0.00    -0.065 SA
BRANCH   6   9
ATOM      9  C   UNL d   1      55.632   0.533  33.924  0.00  0.00     0.018 A 
ATOM     10  C   UNL d   1      54.885   0.538  33.597  0.00  0.00     0.005 A 
ATOM     11  C   UNL d   1      54.232   0.586  34.066  0.00  0.00     0.042 A 
ATOM     12  C   UNL d   1      54.290   0.632  34.889  0.00  0.00     0.196 A 
ATOM     13  C   UNL d   1      55.040   0.627  35.231  0.00  0.00     0.042 A 
ATOM     14  O   UNL d   1      53.793   0.680  35.460  0.00  0.00    -0.287 OA
ATOM     15  C   UNL d   1      55.706   0.578  34.747  0.00  0.00     0.005 A 
ENDBRANCH   6   9
ENDBRANCH   1   4
BRANCH   1  16
ATOM     16  C   UNL d   1      57.302   0.511  30.982  0.00  0.00     0.012 C 
BRANCH  16  17
ATOM     17  C   UNL d   1      58.029   0.452  30.560  0.00  0.00     0.001 A 
ATOM     18  C   UNL d   1      57.991   0.214  29.774  0.00  0.00     0.000 A 
ATOM     19  C   UNL d   1      58.727   0.149  29.328  0.00  0.00     0.000 A 
ATOM     20  C   UNL d   1      59.443   0.331  29.713  0.00  0.00     0.000 A 
ATOM     21  C   UNL d   1      59.453   0.568  30.504  0.00  0.00     0.000 A 
ATOM     22  C   UNL d   1      58.766   0.632  30.931  0.00  0.00     0.000 A 
BRANCH  20  23
ATOM     23  C   UNL d   1      60.154   0.260  29.255  0.00  0.00     0.000 C 
ATOM     24  C   UNL d   1      60.207   0.575  28.500  0.00  0.00     0.000 C 
ATOM     25  C   UNL d   1      60.799  -0.138  29.588  0.00  0.00     0.000 C 
ENDBRANCH  20  23
ENDBRANCH  16  17
ENDBRANCH   1  16
TORSDOF 5
ENDMDL
