MODEL 1
REMARK VINA RESULT:      -8.7      0.000      0.000
REMARK  1 active torsions:
REMARK  status: ('A' for Active; 'I' for Inactive)
REMARK    1  A    between atoms: C_7  and  C_1 
ROOT
ATOM      1  C   UNL d   1     -48.279  13.497  22.954  0.00  0.00     0.103 A 
ATOM      2  C   UNL d   1     -47.534  13.856  22.821  0.00  0.00     0.067 A 
ATOM      3  C   UNL d   1     -46.875  12.624  23.197  0.00  0.00     0.062 A 
ATOM      4  C   UNL d   1     -46.837  13.415  22.944  0.00  0.00     0.200 A 
ATOM      5  O   UNL d   1     -48.321  12.705  23.207  0.00  0.00    -0.307 OA
ATOM      6  C   UNL d   1     -47.624  12.273  23.327  0.00  0.00     0.103 A 
ATOM      7  C   UNL d   1     -46.188  12.193  23.317  0.00  0.00     0.005 A 
ATOM      8  O   UNL d   1     -46.102  13.767  22.813  0.00  0.00    -0.286 OA
ATOM      9  C   UNL d   1     -47.663  11.483  23.580  0.00  0.00     0.025 A 
ATOM     10  C   UNL d   1     -46.230  11.409  23.567  0.00  0.00     0.000 A 
ATOM     11  C   UNL d   1     -46.964  11.056  23.698  0.00  0.00     0.002 A 
ATOM     12  C   UNL d   1     -45.539  10.979  23.687  0.00  0.00     0.000 C 
ENDROOT
BRANCH   1  13
ATOM     13  C   UNL d   1     -48.963  13.931  22.833  0.00  0.00     0.023 A 
ATOM     14  C   UNL d   1     -49.442  13.780  22.173  0.00  0.00     0.002 A 
ATOM     15  C   UNL d   1     -50.129  14.220  22.057  0.00  0.00     0.000 A 
ATOM     16  C   UNL d   1     -50.339  14.808  22.597  0.00  0.00     0.000 A 
ATOM     17  C   UNL d   1     -49.862  14.956  23.251  0.00  0.00     0.000 A 
ATOM     18  C   UNL d   1     -51.031  15.249  22.477  0.00  0.00     0.000 C 
ATOM     19  C   UNL d   1     -49.176  14.517  23.367  0.00  0.00     0.002 A 
ENDBRANCH   1  13
TORSDOF 1
ENDMDL
MODEL 2
REMARK VINA RESULT:      -7.9      0.842      4.007
REMARK  1 active torsions:
REMARK  status: ('A' for Active; 'I' for Inactive)
REMARK    1  A    between atoms: C_7  and  C_1 
ROOT
ATOM      1  C   UNL d   1     -48.082  13.217  23.195  0.00  0.00     0.103 A 
ATOM      2  C   UNL d   1     -47.854  13.914  22.790  0.00  0.00     0.067 A 
ATOM      3  C   UNL d   1     -49.194  14.437  22.937  0.00  0.00     0.062 A 
ATOM      4  C   UNL d   1     -48.415  14.519  22.664  0.00  0.00     0.200 A 
ATOM      5  O   UNL d   1     -48.863  13.131  23.470  0.00  0.00    -0.307 OA
ATOM      6  C   UNL d   1     -49.414  13.737  23.342  0.00  0.00     0.103 A 
ATOM      7  C   UNL d   1     -49.744  15.034  22.813  0.00  0.00     0.005 A 
ATOM      8  O   UNL d   1     -48.191  15.205  22.265  0.00  0.00    -0.286 OA
ATOM      9  C   UNL d   1     -50.193  13.654  23.615  0.00  0.00     0.025 A 
ATOM     10  C   UNL d   1     -50.516  14.948  23.086  0.00  0.00     0.000 A 
ATOM     11  C   UNL d   1     -50.740  14.262  23.484  0.00  0.00     0.002 A 
ATOM     12  C   UNL d   1     -51.064  15.549  22.958  0.00  0.00     0.000 C 
ENDROOT
BRANCH   1  13
ATOM     13  C   UNL d   1     -47.531  12.623  23.318  0.00  0.00     0.023 A 
ATOM     14  C   UNL d   1     -46.723  12.772  23.204  0.00  0.00     0.002 A 
ATOM     15  C   UNL d   1     -46.175  12.170  23.329  0.00  0.00     0.000 A 
ATOM     16  C   UNL d   1     -46.429  11.423  23.567  0.00  0.00     0.000 A 
ATOM     17  C   UNL d   1     -47.231  11.277  23.680  0.00  0.00     0.000 A 
ATOM     18  C   UNL d   1     -45.873  10.819  23.692  0.00  0.00     0.000 C 
ATOM     19  C   UNL d   1     -47.779  11.877  23.555  0.00  0.00     0.002 A 
ENDBRANCH   1  13
TORSDOF 1
ENDMDL
MODEL 3
REMARK VINA RESULT:      -7.3      1.007      4.014
REMARK  1 active torsions:
REMARK  status: ('A' for Active; 'I' for Inactive)
REMARK    1  A    between atoms: C_7  and  C_1 
ROOT
ATOM      1  C   UNL d   1     -47.532  13.290  22.558  0.00  0.00     0.103 A 
ATOM      2  C   UNL d   1     -47.634  14.079  22.821  0.00  0.00     0.067 A 
ATOM      3  C   UNL d   1     -48.998  14.063  22.343  0.00  0.00     0.062 A 
ATOM      4  C   UNL d   1     -48.368  14.459  22.710  0.00  0.00     0.200 A 
ATOM      5  O   UNL d   1     -48.162  12.890  22.190  0.00  0.00    -0.307 OA
ATOM      6  C   UNL d   1     -48.889  13.273  22.083  0.00  0.00     0.103 A 
ATOM      7  C   UNL d   1     -49.720  14.439  22.235  0.00  0.00     0.005 A 
ATOM      8  O   UNL d   1     -48.468  15.236  22.969  0.00  0.00    -0.286 OA
ATOM      9  C   UNL d   1     -49.519  12.877  21.716  0.00  0.00     0.025 A 
ATOM     10  C   UNL d   1     -50.342  14.041  21.870  0.00  0.00     0.000 A 
ATOM     11  C   UNL d   1     -50.243  13.265  21.612  0.00  0.00     0.002 A 
ATOM     12  C   UNL d   1     -51.064  14.422  21.765  0.00  0.00     0.000 C 
ENDROOT
BRANCH   1  13
ATOM     13  C   UNL d   1     -46.811  12.918  22.667  0.00  0.00     0.023 A 
ATOM     14  C   UNL d   1     -46.141  13.175  22.252  0.00  0.00     0.002 A 
ATOM     15  C   UNL d   1     -45.419  12.796  22.366  0.00  0.00     0.000 A 
ATOM     16  C   UNL d   1     -45.363  12.162  22.892  0.00  0.00     0.000 A 
ATOM     17  C   UNL d   1     -46.029  11.908  23.303  0.00  0.00     0.000 A 
ATOM     18  C   UNL d   1     -44.633  11.783  23.004  0.00  0.00     0.000 C 
ATOM     19  C   UNL d   1     -46.751  12.287  23.189  0.00  0.00     0.002 A 
ENDBRANCH   1  13
TORSDOF 1
ENDMDL
MODEL 4
REMARK VINA RESULT:      -6.9      0.872      4.377
REMARK  1 active torsions:
REMARK  status: ('A' for Active; 'I' for Inactive)
REMARK    1  A    between atoms: C_7  and  C_1 
ROOT
ATOM      1  C   UNL d   1     -46.668  12.318  23.125  0.00  0.00     0.103 A 
ATOM      2  C   UNL d   1     -47.450  12.022  23.172  0.00  0.00     0.067 A 
ATOM      3  C   UNL d   1     -47.967  13.356  22.963  0.00  0.00     0.062 A 
ATOM      4  C   UNL d   1     -48.094  12.546  23.091  0.00  0.00     0.200 A 
ATOM      5  O   UNL d   1     -46.537  13.130  22.997  0.00  0.00    -0.307 OA
ATOM      6  C   UNL d   1     -47.182  13.645  22.916  0.00  0.00     0.103 A 
ATOM      7  C   UNL d   1     -48.603  13.869  22.883  0.00  0.00     0.005 A 
ATOM      8  O   UNL d   1     -48.865  12.255  23.138  0.00  0.00    -0.286 OA
ATOM      9  C   UNL d   1     -47.055  14.455  22.789  0.00  0.00     0.025 A 
ATOM     10  C   UNL d   1     -48.472  14.673  22.756  0.00  0.00     0.000 A 
ATOM     11  C   UNL d   1     -47.703  14.964  22.709  0.00  0.00     0.002 A 
ATOM     12  C   UNL d   1     -49.112  15.184  22.677  0.00  0.00     0.000 C 
ENDROOT
BRANCH   1  13
ATOM     13  C   UNL d   1     -46.036  11.804  23.205  0.00  0.00     0.023 A 
ATOM     14  C   UNL d   1     -45.299  11.993  22.874  0.00  0.00     0.002 A 
ATOM     15  C   UNL d   1     -44.667  11.470  22.958  0.00  0.00     0.000 A 
ATOM     16  C   UNL d   1     -44.768  10.763  23.370  0.00  0.00     0.000 A 
ATOM     17  C   UNL d   1     -45.500  10.577  23.698  0.00  0.00     0.000 A 
ATOM     18  C   UNL d   1     -44.129  10.240  23.453  0.00  0.00     0.000 C 
ATOM     19  C   UNL d   1     -46.131  11.099  23.614  0.00  0.00     0.002 A 
ENDBRANCH   1  13
TORSDOF 1
ENDMDL
MODEL 5
REMARK VINA RESULT:      -6.7      8.930     10.517
REMARK  1 active torsions:
REMARK  status: ('A' for Active; 'I' for Inactive)
REMARK    1  A    between atoms: C_7  and  C_1 
ROOT
ATOM      1  C   UNL d   1     -39.433  14.479  17.917  0.00  0.00     0.103 A 
ATOM      2  C   UNL d   1     -40.186  14.156  18.094  0.00  0.00     0.067 A 
ATOM      3  C   UNL d   1     -40.205  14.884  19.343  0.00  0.00     0.062 A 
ATOM      4  C   UNL d   1     -40.565  14.362  18.808  0.00  0.00     0.200 A 
ATOM      5  O   UNL d   1     -39.069  15.003  18.452  0.00  0.00    -0.307 OA
ATOM      6  C   UNL d   1     -39.452  15.203  19.159  0.00  0.00     0.103 A 
ATOM      7  C   UNL d   1     -40.580  15.085  20.045  0.00  0.00     0.005 A 
ATOM      8  O   UNL d   1     -41.306  14.043  18.982  0.00  0.00    -0.286 OA
ATOM      9  C   UNL d   1     -39.092  15.725  19.694  0.00  0.00     0.025 A 
ATOM     10  C   UNL d   1     -40.219  15.604  20.573  0.00  0.00     0.000 A 
ATOM     11  C   UNL d   1     -39.479  15.922  20.399  0.00  0.00     0.002 A 
ATOM     12  C   UNL d   1     -40.599  15.803  21.276  0.00  0.00     0.000 C 
ENDROOT
BRANCH   1  13
ATOM     13  C   UNL d   1     -39.061  14.277  17.217  0.00  0.00     0.023 A 
ATOM     14  C   UNL d   1     -38.595  13.592  17.174  0.00  0.00     0.002 A 
ATOM     15  C   UNL d   1     -38.223  13.394  16.466  0.00  0.00     0.000 A 
ATOM     16  C   UNL d   1     -38.315  13.875  15.802  0.00  0.00     0.000 A 
ATOM     17  C   UNL d   1     -38.779  14.554  15.846  0.00  0.00     0.000 A 
ATOM     18  C   UNL d   1     -37.940  13.672  15.091  0.00  0.00     0.000 C 
ATOM     19  C   UNL d   1     -39.150  14.752  16.553  0.00  0.00     0.002 A 
ENDBRANCH   1  13
TORSDOF 1
ENDMDL
MODEL 6
REMARK VINA RESULT:      -6.6      9.145     10.490
REMARK  1 active torsions:
REMARK  status: ('A' for Active; 'I' for Inactive)
REMARK    1  A    between atoms: C_7  and  C_1 
ROOT
ATOM      1  C   UNL d   1     -39.448  14.600  18.454  0.00  0.00     0.103 A 
ATOM      2  C   UNL d   1     -39.381  13.767  18.389  0.00  0.00     0.067 A 
ATOM      3  C   UNL d   1     -38.812  13.916  17.068  0.00  0.00     0.062 A 
ATOM      4  C   UNL d   1     -39.063  13.432  17.695  0.00  0.00     0.200 A 
ATOM      5  O   UNL d   1     -39.197  15.087  17.828  0.00  0.00    -0.307 OA
ATOM      6  C   UNL d   1     -38.882  14.748  17.140  0.00  0.00     0.103 A 
ATOM      7  C   UNL d   1     -38.500  13.584  16.386  0.00  0.00     0.005 A 
ATOM      8  O   UNL d   1     -38.997  12.612  17.631  0.00  0.00    -0.286 OA
ATOM      9  C   UNL d   1     -38.632  15.231  16.514  0.00  0.00     0.025 A 
ATOM     10  C   UNL d   1     -38.252  14.067  15.766  0.00  0.00     0.000 A 
ATOM     11  C   UNL d   1     -38.318  14.886  15.830  0.00  0.00     0.002 A 
ATOM     12  C   UNL d   1     -37.940  13.730  15.084  0.00  0.00     0.000 C 
ENDROOT
BRANCH   1  13
ATOM     13  C   UNL d   1     -39.760  14.928  19.136  0.00  0.00     0.023 A 
ATOM     14  C   UNL d   1     -40.562  15.138  19.170  0.00  0.00     0.002 A 
ATOM     15  C   UNL d   1     -40.869  15.468  19.859  0.00  0.00     0.000 A 
ATOM     16  C   UNL d   1     -40.381  15.589  20.513  0.00  0.00     0.000 A 
ATOM     17  C   UNL d   1     -39.585  15.380  20.478  0.00  0.00     0.000 A 
ATOM     18  C   UNL d   1     -40.695  15.921  21.205  0.00  0.00     0.000 C 
ATOM     19  C   UNL d   1     -39.278  15.051  19.789  0.00  0.00     0.002 A 
ENDBRANCH   1  13
TORSDOF 1
ENDMDL
MODEL 7
REMARK VINA RESULT:      -6.6      8.115      9.119
REMARK  1 active torsions:
REMARK  status: ('A' for Active; 'I' for Inactive)
REMARK    1  A    between atoms: C_7  and  C_1 
ROOT
ATOM      1  C   UNL d   1     -40.133  14.622  19.576  0.00  0.00     0.103 A 
ATOM      2  C   UNL d   1     -40.718  14.482  20.159  0.00  0.00     0.067 A 
ATOM      3  C   UNL d   1     -39.689  14.101  21.101  0.00  0.00     0.062 A 
ATOM      4  C   UNL d   1     -40.490  14.222  20.918  0.00  0.00     0.200 A 
ATOM      5  O   UNL d   1     -39.329  14.502  19.756  0.00  0.00    -0.307 OA
ATOM      6  C   UNL d   1     -39.109  14.243  20.512  0.00  0.00     0.103 A 
ATOM      7  C   UNL d   1     -39.467  13.845  21.848  0.00  0.00     0.005 A 
ATOM      8  O   UNL d   1     -41.066  14.084  21.492  0.00  0.00    -0.286 OA
ATOM      9  C   UNL d   1     -38.309  14.122  20.694  0.00  0.00     0.025 A 
ATOM     10  C   UNL d   1     -38.671  13.726  22.025  0.00  0.00     0.000 A 
ATOM     11  C   UNL d   1     -38.095  13.864  21.451  0.00  0.00     0.002 A 
ATOM     12  C   UNL d   1     -38.452  13.470  22.776  0.00  0.00     0.000 C 
ENDROOT
BRANCH   1  13
ATOM     13  C   UNL d   1     -40.358  14.877  18.831  0.00  0.00     0.023 A 
ATOM     14  C   UNL d   1     -40.559  15.672  18.705  0.00  0.00     0.002 A 
ATOM     15  C   UNL d   1     -40.785  15.922  17.953  0.00  0.00     0.000 A 
ATOM     16  C   UNL d   1     -40.810  15.383  17.329  0.00  0.00     0.000 A 
ATOM     17  C   UNL d   1     -40.610  14.595  17.456  0.00  0.00     0.000 A 
ATOM     18  C   UNL d   1     -41.037  15.639  16.573  0.00  0.00     0.000 C 
ATOM     19  C   UNL d   1     -40.384  14.345  18.207  0.00  0.00     0.002 A 
ENDBRANCH   1  13
TORSDOF 1
ENDMDL
MODEL 8
REMARK VINA RESULT:      -6.5      8.808      9.907
REMARK  1 active torsions:
REMARK  status: ('A' for Active; 'I' for Inactive)
REMARK    1  A    between atoms: C_7  and  C_1 
ROOT
ATOM      1  C   UNL d   1     -39.525  14.227  19.722  0.00  0.00     0.103 A 
ATOM      2  C   UNL d   1     -39.398  13.679  19.101  0.00  0.00     0.067 A 
ATOM      3  C   UNL d   1     -40.133  14.536  18.196  0.00  0.00     0.062 A 
ATOM      4  C   UNL d   1     -39.704  13.839  18.342  0.00  0.00     0.200 A 
ATOM      5  O   UNL d   1     -39.954  14.926  19.580  0.00  0.00    -0.307 OA
ATOM      6  C   UNL d   1     -40.255  15.079  18.823  0.00  0.00     0.103 A 
ATOM      7  C   UNL d   1     -40.433  14.691  17.448  0.00  0.00     0.005 A 
ATOM      8  O   UNL d   1     -39.580  13.300  17.730  0.00  0.00    -0.286 OA
ATOM      9  C   UNL d   1     -40.683  15.775  18.678  0.00  0.00     0.025 A 
ATOM     10  C   UNL d   1     -40.857  15.383  17.308  0.00  0.00     0.000 A 
ATOM     11  C   UNL d   1     -40.981  15.922  17.919  0.00  0.00     0.002 A 
ATOM     12  C   UNL d   1     -41.156  15.535  16.557  0.00  0.00     0.000 C 
ENDROOT
BRANCH   1  13
ATOM     13  C   UNL d   1     -39.224  14.070  20.467  0.00  0.00     0.023 A 
ATOM     14  C   UNL d   1     -38.412  13.940  20.571  0.00  0.00     0.002 A 
ATOM     15  C   UNL d   1     -38.116  13.782  21.324  0.00  0.00     0.000 A 
ATOM     16  C   UNL d   1     -38.626  13.753  21.971  0.00  0.00     0.000 A 
ATOM     17  C   UNL d   1     -39.433  13.882  21.866  0.00  0.00     0.000 A 
ATOM     18  C   UNL d   1     -38.325  13.594  22.727  0.00  0.00     0.000 C 
ATOM     19  C   UNL d   1     -39.729  14.040  21.114  0.00  0.00     0.002 A 
ENDBRANCH   1  13
TORSDOF 1
ENDMDL
MODEL 9
REMARK VINA RESULT:      -6.4      1.382      2.034
REMARK  1 active torsions:
REMARK  status: ('A' for Active; 'I' for Inactive)
REMARK    1  A    between atoms: C_7  and  C_1 
ROOT
ATOM      1  C   UNL d   1     -47.047  13.253  22.689  0.00  0.00     0.103 A 
ATOM      2  C   UNL d   1     -46.946  12.588  23.188  0.00  0.00     0.067 A 
ATOM      3  C   UNL d   1     -45.583  12.447  22.725  0.00  0.00     0.062 A 
ATOM      4  C   UNL d   1     -46.213  12.190  23.202  0.00  0.00     0.200 A 
ATOM      5  O   UNL d   1     -46.417  13.513  22.210  0.00  0.00    -0.307 OA
ATOM      6  C   UNL d   1     -45.692  13.112  22.228  0.00  0.00     0.103 A 
ATOM      7  C   UNL d   1     -44.864  12.053  22.740  0.00  0.00     0.005 A 
ATOM      8  O   UNL d   1     -46.114  11.535  23.694  0.00  0.00    -0.286 OA
ATOM      9  C   UNL d   1     -45.063  13.369  21.752  0.00  0.00     0.025 A 
ATOM     10  C   UNL d   1     -44.241  12.311  22.265  0.00  0.00     0.000 A 
ATOM     11  C   UNL d   1     -44.340  12.965  21.774  0.00  0.00     0.002 A 
ATOM     12  C   UNL d   1     -43.521  11.913  22.284  0.00  0.00     0.000 C 
ENDROOT
BRANCH   1  13
ATOM     13  C   UNL d   1     -47.766  13.644  22.676  0.00  0.00     0.023 A 
ATOM     14  C   UNL d   1     -48.447  13.256  22.405  0.00  0.00     0.002 A 
ATOM     15  C   UNL d   1     -49.168  13.655  22.395  0.00  0.00     0.000 A 
ATOM     16  C   UNL d   1     -49.211  14.437  22.653  0.00  0.00     0.000 A 
ATOM     17  C   UNL d   1     -48.534  14.820  22.922  0.00  0.00     0.000 A 
ATOM     18  C   UNL d   1     -49.939  14.835  22.641  0.00  0.00     0.000 C 
ATOM     19  C   UNL d   1     -47.814  14.422  22.932  0.00  0.00     0.002 A 
ENDBRANCH   1  13
TORSDOF 1
ENDMDL
