MODEL 1
REMARK VINA RESULT:      -7.9      0.000      0.000
REMARK  5 active torsions:
REMARK  status: ('A' for Active; 'I' for Inactive)
REMARK       I    between atoms: C_2  and  N_1 
REMARK    1  A    between atoms: C_10  and  C_2 
REMARK    2  A    between atoms: C_7  and  C_3 
REMARK       I    between atoms: C_5  and  N_8 
REMARK    3  A    between atoms: C_15  and  C_5 
REMARK    4  A    between atoms: N_8  and  C_7 
REMARK    5  A    between atoms: N_9  and  C_10 
ROOT
ATOM      1  N   UNL d   1      52.280  32.052  53.220  0.00  0.00    -0.271 N 
ATOM      2  C   UNL d   1      52.750  31.391  53.406  0.00  0.00     0.282 C 
ATOM      3  C   UNL d   1      52.580  32.800  53.385  0.00  0.00     0.086 A 
ATOM      4  C   UNL d   1      52.145  33.452  53.215  0.00  0.00     0.018 A 
ATOM      5  C   UNL d   1      51.514  31.978  52.873  0.00  0.00     0.083 A 
ATOM      6  C   UNL d   1      51.402  33.379  52.878  0.00  0.00     0.003 A 
ATOM      7  O   UNL d   1      53.495  31.464  53.744  0.00  0.00    -0.265 OA
ATOM      8  C   UNL d   1      51.085  32.654  52.706  0.00  0.00     0.019 A 
ATOM      9  C   UNL d   1      52.445  34.208  53.380  0.00  0.00     0.002 A 
ATOM     10  C   UNL d   1      50.950  34.062  52.701  0.00  0.00     0.000 A 
ATOM     11  C   UNL d   1      52.008  34.883  53.210  0.00  0.00     0.000 A 
ATOM     12  C   UNL d   1      51.243  34.809  52.862  0.00  0.00     0.000 A 
ENDROOT
BRANCH   3  13
ATOM     13  C   UNL d   1      53.328  32.873  53.725  0.00  0.00     0.120 C 
BRANCH  13  14
ATOM     14  N   UNL d   1      54.001  32.805  53.253  0.00  0.00    -0.205 NA
ATOM     15  C   UNL d   1      54.753  33.009  53.567  0.00  0.00     0.279 C 
ATOM     16  O   UNL d   1      55.431  32.947  53.109  0.00  0.00    -0.265 OA
BRANCH  15  17
ATOM     17  C   UNL d   1      54.797  33.271  54.337  0.00  0.00     0.058 A 
ATOM     18  C   UNL d   1      54.597  32.804  54.969  0.00  0.00     0.005 A 
ATOM     19  C   UNL d   1      54.640  33.064  55.750  0.00  0.00     0.000 A 
ATOM     20  C   UNL d   1      54.903  33.853  55.894  0.00  0.00     0.000 A 
ATOM     21  C   UNL d   1      55.109  34.336  55.250  0.00  0.00     0.000 A 
ATOM     22  C   UNL d   1      55.053  34.041  54.497  0.00  0.00     0.005 A 
ENDBRANCH  15  17
ENDBRANCH  13  14
ENDBRANCH   3  13
BRANCH   2  23
ATOM     23  C   UNL d   1      52.472  30.611  53.250  0.00  0.00     0.142 C 
BRANCH  23  24
ATOM     24  N   UNL d   1      52.808  29.984  53.667  0.00  0.00    -0.295 N 
ATOM     25  C   UNL d   1      53.394  29.529  53.296  0.00  0.00     0.107 A 
ATOM     26  C   UNL d   1      53.751  28.889  53.694  0.00  0.00     0.142 A 
ATOM     27  O   UNL d   1      53.508  28.720  54.464  0.00  0.00    -0.300 OA
ATOM     28  C   UNL d   1      52.916  29.172  54.851  0.00  0.00     0.142 A 
ATOM     29  C   UNL d   1      52.568  29.808  54.442  0.00  0.00     0.107 A 
ENDBRANCH  23  24
ENDBRANCH   2  23
TORSDOF 5
ENDMDL
MODEL 2
REMARK VINA RESULT:      -7.8      1.529      4.123
REMARK  5 active torsions:
REMARK  status: ('A' for Active; 'I' for Inactive)
REMARK       I    between atoms: C_2  and  N_1 
REMARK    1  A    between atoms: C_10  and  C_2 
REMARK    2  A    between atoms: C_7  and  C_3 
REMARK       I    between atoms: C_5  and  N_8 
REMARK    3  A    between atoms: C_15  and  C_5 
REMARK    4  A    between atoms: N_8  and  C_7 
REMARK    5  A    between atoms: N_9  and  C_10 
ROOT
ATOM      1  N   UNL d   1      52.694  33.915  53.581  0.00  0.00    -0.271 N 
ATOM      2  C   UNL d   1      52.114  33.819  52.992  0.00  0.00     0.282 C 
ATOM      3  C   UNL d   1      53.076  33.243  53.863  0.00  0.00     0.086 A 
ATOM      4  C   UNL d   1      53.638  33.310  54.430  0.00  0.00     0.018 A 
ATOM      5  C   UNL d   1      52.900  34.672  53.893  0.00  0.00     0.083 A 
ATOM      6  C   UNL d   1      53.838  34.046  54.733  0.00  0.00     0.003 A 
ATOM      7  O   UNL d   1      51.914  33.083  52.689  0.00  0.00    -0.265 OA
ATOM      8  C   UNL d   1      53.476  34.722  54.471  0.00  0.00     0.019 A 
ATOM      9  C   UNL d   1      54.025  32.635  54.716  0.00  0.00     0.002 A 
ATOM     10  C   UNL d   1      54.426  34.113  55.325  0.00  0.00     0.000 A 
ATOM     11  C   UNL d   1      54.604  32.692  55.298  0.00  0.00     0.000 A 
ATOM     12  C   UNL d   1      54.809  33.449  55.609  0.00  0.00     0.000 A 
ENDROOT
BRANCH   3  13
ATOM     13  C   UNL d   1      52.875  32.503  53.559  0.00  0.00     0.120 C 
BRANCH  13  14
ATOM     14  N   UNL d   1      53.144  32.281  52.812  0.00  0.00    -0.205 NA
ATOM     15  C   UNL d   1      53.103  31.475  52.576  0.00  0.00     0.279 C 
ATOM     16  O   UNL d   1      53.367  31.239  51.836  0.00  0.00    -0.265 OA
BRANCH  15  17
ATOM     17  C   UNL d   1      52.795  30.931  53.098  0.00  0.00     0.058 A 
ATOM     18  C   UNL d   1      52.001  30.873  53.251  0.00  0.00     0.005 A 
ATOM     19  C   UNL d   1      51.685  30.324  53.778  0.00  0.00     0.000 A 
ATOM     20  C   UNL d   1      52.214  29.801  54.175  0.00  0.00     0.000 A 
ATOM     21  C   UNL d   1      53.030  29.855  54.023  0.00  0.00     0.000 A 
ATOM     22  C   UNL d   1      53.300  30.410  53.497  0.00  0.00     0.005 A 
ENDBRANCH  15  17
ENDBRANCH  13  14
ENDBRANCH   3  13
BRANCH   2  23
ATOM     23  C   UNL d   1      51.705  34.487  52.683  0.00  0.00     0.142 C 
BRANCH  23  24
ATOM     24  N   UNL d   1      50.928  34.387  52.424  0.00  0.00    -0.295 N 
ATOM     25  C   UNL d   1      50.791  34.252  51.618  0.00  0.00     0.107 A 
ATOM     26  C   UNL d   1      50.017  34.147  51.329  0.00  0.00     0.142 A 
ATOM     27  O   UNL d   1      49.389  34.180  51.865  0.00  0.00    -0.300 OA
ATOM     28  C   UNL d   1      49.513  34.315  52.683  0.00  0.00     0.142 A 
ATOM     29  C   UNL d   1      50.293  34.419  52.958  0.00  0.00     0.107 A 
ENDBRANCH  23  24
ENDBRANCH   2  23
TORSDOF 5
ENDMDL
MODEL 3
REMARK VINA RESULT:      -7.7      1.254      3.093
REMARK  5 active torsions:
REMARK  status: ('A' for Active; 'I' for Inactive)
REMARK       I    between atoms: C_2  and  N_1 
REMARK    1  A    between atoms: C_10  and  C_2 
REMARK    2  A    between atoms: C_7  and  C_3 
REMARK       I    between atoms: C_5  and  N_8 
REMARK    3  A    between atoms: C_15  and  C_5 
REMARK    4  A    between atoms: N_8  and  C_7 
REMARK    5  A    between atoms: N_9  and  C_10 
ROOT
ATOM      1  N   UNL d   1      53.697  32.692  53.995  0.00  0.00    -0.271 N 
ATOM      2  C   UNL d   1      53.448  32.055  53.520  0.00  0.00     0.282 C 
ATOM      3  C   UNL d   1      53.269  33.394  53.959  0.00  0.00     0.086 A 
ATOM      4  C   UNL d   1      53.489  34.020  54.407  0.00  0.00     0.018 A 
ATOM      5  C   UNL d   1      54.366  32.638  54.506  0.00  0.00     0.083 A 
ATOM      6  C   UNL d   1      54.140  33.968  54.903  0.00  0.00     0.003 A 
ATOM      7  O   UNL d   1      52.797  32.108  53.022  0.00  0.00    -0.265 OA
ATOM      8  C   UNL d   1      54.576  33.288  54.957  0.00  0.00     0.019 A 
ATOM      9  C   UNL d   1      53.061  34.729  54.373  0.00  0.00     0.002 A 
ATOM     10  C   UNL d   1      54.368  34.624  55.371  0.00  0.00     0.000 A 
ATOM     11  C   UNL d   1      53.277  35.379  54.828  0.00  0.00     0.000 A 
ATOM     12  C   UNL d   1      53.947  35.325  55.339  0.00  0.00     0.000 A 
ENDROOT
BRANCH   3  13
ATOM     13  C   UNL d   1      52.615  33.446  53.459  0.00  0.00     0.120 C 
BRANCH  13  14
ATOM     14  N   UNL d   1      52.714  33.690  52.678  0.00  0.00    -0.205 NA
ATOM     15  C   UNL d   1      52.047  33.930  52.227  0.00  0.00     0.279 C 
ATOM     16  O   UNL d   1      52.130  34.175  51.448  0.00  0.00    -0.265 OA
BRANCH  15  17
ATOM     17  C   UNL d   1      51.313  33.915  52.579  0.00  0.00     0.058 A 
ATOM     18  C   UNL d   1      50.933  33.224  52.769  0.00  0.00     0.005 A 
ATOM     19  C   UNL d   1      50.190  33.203  53.125  0.00  0.00     0.000 A 
ATOM     20  C   UNL d   1      49.810  33.937  53.299  0.00  0.00     0.000 A 
ATOM     21  C   UNL d   1      50.194  34.649  53.106  0.00  0.00     0.000 A 
ATOM     22  C   UNL d   1      50.925  34.625  52.757  0.00  0.00     0.005 A 
ENDBRANCH  15  17
ENDBRANCH  13  14
ENDBRANCH   3  13
BRANCH   2  23
ATOM     23  C   UNL d   1      53.864  31.323  53.534  0.00  0.00     0.142 C 
BRANCH  23  24
ATOM     24  N   UNL d   1      53.430  30.624  53.481  0.00  0.00    -0.295 N 
ATOM     25  C   UNL d   1      53.368  30.143  54.153  0.00  0.00     0.107 A 
ATOM     26  C   UNL d   1      52.936  29.431  54.129  0.00  0.00     0.142 A 
ATOM     27  O   UNL d   1      52.571  29.216  53.420  0.00  0.00    -0.300 OA
ATOM     28  C   UNL d   1      52.625  29.694  52.733  0.00  0.00     0.142 A 
ATOM     29  C   UNL d   1      53.061  30.403  52.772  0.00  0.00     0.107 A 
ENDBRANCH  23  24
ENDBRANCH   2  23
TORSDOF 5
ENDMDL
MODEL 4
REMARK VINA RESULT:      -7.2      1.230      3.515
REMARK  5 active torsions:
REMARK  status: ('A' for Active; 'I' for Inactive)
REMARK       I    between atoms: C_2  and  N_1 
REMARK    1  A    between atoms: C_10  and  C_2 
REMARK    2  A    between atoms: C_7  and  C_3 
REMARK       I    between atoms: C_5  and  N_8 
REMARK    3  A    between atoms: C_15  and  C_5 
REMARK    4  A    between atoms: N_8  and  C_7 
REMARK    5  A    between atoms: N_9  and  C_10 
ROOT
ATOM      1  N   UNL d   1      52.323  31.676  53.102  0.00  0.00    -0.271 N 
ATOM      2  C   UNL d   1      52.145  32.474  52.943  0.00  0.00     0.282 C 
ATOM      3  C   UNL d   1      53.024  31.507  53.499  0.00  0.00     0.086 A 
ATOM      4  C   UNL d   1      53.217  30.747  53.663  0.00  0.00     0.018 A 
ATOM      5  C   UNL d   1      51.813  31.045  52.871  0.00  0.00     0.083 A 
ATOM      6  C   UNL d   1      52.722  30.134  53.438  0.00  0.00     0.003 A 
ATOM      7  O   UNL d   1      52.641  33.088  53.168  0.00  0.00    -0.265 OA
ATOM      8  C   UNL d   1      52.027  30.275  53.047  0.00  0.00     0.019 A 
ATOM      9  C   UNL d   1      53.923  30.573  54.063  0.00  0.00     0.002 A 
ATOM     10  C   UNL d   1      52.926  29.341  53.611  0.00  0.00     0.000 A 
ATOM     11  C   UNL d   1      54.132  29.797  54.237  0.00  0.00     0.000 A 
ATOM     12  C   UNL d   1      53.621  29.166  54.006  0.00  0.00     0.000 A 
ENDROOT
BRANCH   3  13
ATOM     13  C   UNL d   1      53.523  32.124  53.725  0.00  0.00     0.120 C 
BRANCH  13  14
ATOM     14  N   UNL d   1      54.195  32.292  53.279  0.00  0.00    -0.205 NA
ATOM     15  C   UNL d   1      54.747  32.862  53.554  0.00  0.00     0.279 C 
ATOM     16  O   UNL d   1      55.422  33.039  53.121  0.00  0.00    -0.265 OA
BRANCH  15  17
ATOM     17  C   UNL d   1      54.600  33.238  54.262  0.00  0.00     0.058 A 
ATOM     18  C   UNL d   1      54.772  32.902  54.979  0.00  0.00     0.005 A 
ATOM     19  C   UNL d   1      54.625  33.278  55.698  0.00  0.00     0.000 A 
ATOM     20  C   UNL d   1      54.280  34.047  55.683  0.00  0.00     0.000 A 
ATOM     21  C   UNL d   1      54.101  34.398  54.950  0.00  0.00     0.000 A 
ATOM     22  C   UNL d   1      54.262  33.993  54.266  0.00  0.00     0.005 A 
ENDBRANCH  15  17
ENDBRANCH  13  14
ENDBRANCH   3  13
BRANCH   2  23
ATOM     23  C   UNL d   1      51.435  32.680  52.539  0.00  0.00     0.142 C 
BRANCH  23  24
ATOM     24  N   UNL d   1      51.138  33.444  52.632  0.00  0.00    -0.295 N 
ATOM     25  C   UNL d   1      50.636  33.600  53.272  0.00  0.00     0.107 A 
ATOM     26  C   UNL d   1      50.322  34.362  53.391  0.00  0.00     0.142 A 
ATOM     27  O   UNL d   1      50.522  34.958  52.856  0.00  0.00    -0.300 OA
ATOM     28  C   UNL d   1      51.030  34.814  52.204  0.00  0.00     0.142 A 
ATOM     29  C   UNL d   1      51.336  34.048  52.098  0.00  0.00     0.107 A 
ENDBRANCH  23  24
ENDBRANCH   2  23
TORSDOF 5
ENDMDL
MODEL 5
REMARK VINA RESULT:      -5.0      1.174      3.382
REMARK  5 active torsions:
REMARK  status: ('A' for Active; 'I' for Inactive)
REMARK       I    between atoms: C_2  and  N_1 
REMARK    1  A    between atoms: C_10  and  C_2 
REMARK    2  A    between atoms: C_7  and  C_3 
REMARK       I    between atoms: C_5  and  N_8 
REMARK    3  A    between atoms: C_15  and  C_5 
REMARK    4  A    between atoms: N_8  and  C_7 
REMARK    5  A    between atoms: N_9  and  C_10 
ROOT
ATOM      1  N   UNL d   1      52.715  33.808  53.505  0.00  0.00    -0.271 N 
ATOM      2  C   UNL d   1      53.491  33.604  53.728  0.00  0.00     0.282 C 
ATOM      3  C   UNL d   1      52.213  33.207  53.255  0.00  0.00     0.086 A 
ATOM      4  C   UNL d   1      51.461  33.379  53.035  0.00  0.00     0.018 A 
ATOM      5  C   UNL d   1      52.433  34.603  53.529  0.00  0.00     0.083 A 
ATOM      6  C   UNL d   1      51.188  34.151  53.058  0.00  0.00     0.003 A 
ATOM      7  O   UNL d   1      53.764  32.830  53.705  0.00  0.00    -0.265 OA
ATOM      8  C   UNL d   1      51.663  34.760  53.301  0.00  0.00     0.019 A 
ATOM      9  C   UNL d   1      50.952  32.775  52.781  0.00  0.00     0.002 A 
ATOM     10  C   UNL d   1      50.403  34.328  52.828  0.00  0.00     0.000 A 
ATOM     11  C   UNL d   1      50.179  32.939  52.553  0.00  0.00     0.000 A 
ATOM     12  C   UNL d   1      49.898  33.735  52.577  0.00  0.00     0.000 A 
ENDROOT
BRANCH   3  13
ATOM     13  C   UNL d   1      52.488  32.430  53.231  0.00  0.00     0.120 C 
BRANCH  13  14
ATOM     14  N   UNL d   1      52.746  32.107  52.518  0.00  0.00    -0.205 NA
ATOM     15  C   UNL d   1      52.927  31.288  52.471  0.00  0.00     0.279 C 
ATOM     16  O   UNL d   1      53.185  30.953  51.768  0.00  0.00    -0.265 OA
BRANCH  15  17
ATOM     17  C   UNL d   1      52.840  30.831  53.139  0.00  0.00     0.058 A 
ATOM     18  C   UNL d   1      52.132  30.499  53.354  0.00  0.00     0.005 A 
ATOM     19  C   UNL d   1      52.040  30.035  54.029  0.00  0.00     0.000 A 
ATOM     20  C   UNL d   1      52.715  29.902  54.517  0.00  0.00     0.000 A 
ATOM     21  C   UNL d   1      53.444  30.239  54.302  0.00  0.00     0.000 A 
ATOM     22  C   UNL d   1      53.492  30.689  53.630  0.00  0.00     0.005 A 
ENDBRANCH  15  17
ENDBRANCH  13  14
ENDBRANCH   3  13
BRANCH   2  23
ATOM     23  C   UNL d   1      54.030  34.196  53.990  0.00  0.00     0.142 C 
BRANCH  23  24
ATOM     24  N   UNL d   1      54.554  34.008  54.598  0.00  0.00    -0.295 N 
ATOM     25  C   UNL d   1      55.364  33.969  54.426  0.00  0.00     0.107 A 
ATOM     26  C   UNL d   1      55.917  33.781  55.021  0.00  0.00     0.142 A 
ATOM     27  O   UNL d   1      55.638  33.635  55.785  0.00  0.00    -0.300 OA
ATOM     28  C   UNL d   1      54.822  33.672  55.972  0.00  0.00     0.142 A 
ATOM     29  C   UNL d   1      54.281  33.861  55.368  0.00  0.00     0.107 A 
ENDBRANCH  23  24
ENDBRANCH   2  23
TORSDOF 5
ENDMDL
