MODEL 1
REMARK VINA RESULT:       6.4      0.000      0.000
REMARK  0 active torsions:
REMARK  status: ('A' for Active; 'I' for Inactive)
ROOT
ATOM      1  C   UNL d   1     -51.664  24.619  33.308  0.00  0.00     0.062 A 
ATOM      2  C   UNL d   1     -51.127  23.990  33.306  0.00  0.00     0.116 A 
ATOM      3  C   UNL d   1     -51.373  25.410  33.309  0.00  0.00     0.192 A 
ATOM      4  N   UNL d   1     -50.547  25.536  33.308  0.00  0.00    -0.171 N 
ATOM      5  N   UNL d   1     -50.313  24.136  33.306  0.00  0.00    -0.217 NA
ATOM      6  S   UNL d   1     -51.602  23.311  33.306  0.00  0.00    -0.068 SA
ATOM      7  C   UNL d   1     -52.425  24.344  33.308  0.00  0.00     0.011 A 
ATOM      8  N   UNL d   1     -51.129  26.713  33.311  0.00  0.00    -0.022 NA
ATOM      9  N   UNL d   1     -50.395  26.367  33.310  0.00  0.00    -0.037 NA
ATOM     10  N   UNL d   1     -51.734  26.132  33.311  0.00  0.00    -0.108 NA
ATOM     11  C   UNL d   1     -52.374  23.514  33.307  0.00  0.00     0.031 A 
ATOM     12  C   UNL d   1     -50.030  24.893  33.307  0.00  0.00     0.204 A 
ATOM     13  C   UNL d   1     -53.237  24.498  33.309  0.00  0.00     0.001 A 
ATOM     14  C   UNL d   1     -53.115  23.188  33.307  0.00  0.00     0.006 A 
ATOM     15  C   UNL d   1     -53.643  23.794  33.309  0.00  0.00     0.001 A 
ENDROOT
TORSDOF 0
ENDMDL
