MODEL 1
REMARK VINA RESULT:     -13.0      0.000      0.000
REMARK  2 active torsions:
REMARK  status: ('A' for Active; 'I' for Inactive)
REMARK    1  A    between atoms: C_6  and  C_1 
REMARK    2  A    between atoms: C_7  and  C_3 
ROOT
ATOM      1  C   UNL d   1      52.657  32.409  53.216  0.00  0.00     0.081 A 
ATOM      2  N   UNL d   1      52.278  31.774  52.861  0.00  0.00    -0.246 NA
ATOM      3  C   UNL d   1      53.314  32.122  53.616  0.00  0.00     0.019 A 
ATOM      4  C   UNL d   1      53.342  31.310  53.508  0.00  0.00     0.019 A 
ATOM      5  C   UNL d   1      52.705  31.089  53.043  0.00  0.00     0.081 A 
ATOM      6  C   UNL d   1      53.880  30.743  53.785  0.00  0.00     0.002 A 
ATOM      7  C   UNL d   1      52.594  30.296  52.846  0.00  0.00     0.019 A 
ATOM      8  C   UNL d   1      53.762  29.947  53.582  0.00  0.00     0.000 A 
ATOM      9  C   UNL d   1      53.119  29.724  53.112  0.00  0.00     0.002 A 
ENDROOT
BRANCH   1  10
ATOM     10  C   UNL d   1      52.256  33.117  53.053  0.00  0.00     0.018 A 
ATOM     11  C   UNL d   1      51.630  33.343  53.530  0.00  0.00     0.002 A 
ATOM     12  C   UNL d   1      51.233  34.044  53.367  0.00  0.00     0.000 A 
ATOM     13  C   UNL d   1      51.459  34.516  52.735  0.00  0.00     0.000 A 
ATOM     14  C   UNL d   1      52.093  34.279  52.260  0.00  0.00     0.000 A 
ATOM     15  C   UNL d   1      52.488  33.583  52.419  0.00  0.00     0.002 A 
ENDBRANCH   1  10
BRANCH   3  16
ATOM     16  C   UNL d   1      53.852  32.581  54.050  0.00  0.00     0.002 A 
ATOM     17  C   UNL d   1      53.723  32.728  54.852  0.00  0.00     0.000 A 
ATOM     18  C   UNL d   1      54.256  33.182  55.278  0.00  0.00     0.000 A 
ATOM     19  C   UNL d   1      54.931  33.500  54.911  0.00  0.00     0.000 A 
ATOM     20  C   UNL d   1      55.062  33.353  54.102  0.00  0.00     0.000 A 
ATOM     21  C   UNL d   1      54.522  32.894  53.673  0.00  0.00     0.000 A 
ENDBRANCH   3  16
TORSDOF 2
ENDMDL
MODEL 2
REMARK VINA RESULT:     -12.0      0.628      2.711
REMARK  2 active torsions:
REMARK  status: ('A' for Active; 'I' for Inactive)
REMARK    1  A    between atoms: C_6  and  C_1 
REMARK    2  A    between atoms: C_7  and  C_3 
ROOT
ATOM      1  C   UNL d   1      53.785  32.286  54.003  0.00  0.00     0.081 A 
ATOM      2  N   UNL d   1      54.081  31.527  54.096  0.00  0.00    -0.246 NA
ATOM      3  C   UNL d   1      53.119  32.243  53.526  0.00  0.00     0.019 A 
ATOM      4  C   UNL d   1      53.001  31.457  53.325  0.00  0.00     0.019 A 
ATOM      5  C   UNL d   1      53.592  31.010  53.674  0.00  0.00     0.081 A 
ATOM      6  C   UNL d   1      52.418  31.097  52.859  0.00  0.00     0.002 A 
ATOM      7  C   UNL d   1      53.610  30.192  53.563  0.00  0.00     0.019 A 
ATOM      8  C   UNL d   1      52.443  30.274  52.752  0.00  0.00     0.000 A 
ATOM      9  C   UNL d   1      53.039  29.822  53.104  0.00  0.00     0.002 A 
ENDROOT
BRANCH   1  10
ATOM     10  C   UNL d   1      54.253  32.834  54.415  0.00  0.00     0.018 A 
ATOM     11  C   UNL d   1      54.878  33.197  54.033  0.00  0.00     0.002 A 
ATOM     12  C   UNL d   1      55.340  33.740  54.443  0.00  0.00     0.000 A 
ATOM     13  C   UNL d   1      55.179  33.918  55.228  0.00  0.00     0.000 A 
ATOM     14  C   UNL d   1      54.544  33.546  55.605  0.00  0.00     0.000 A 
ATOM     15  C   UNL d   1      54.084  33.007  55.200  0.00  0.00     0.002 A 
ENDBRANCH   1  10
BRANCH   3  16
ATOM     16  C   UNL d   1      52.651  32.888  53.293  0.00  0.00     0.002 A 
ATOM     17  C   UNL d   1      52.840  33.318  52.615  0.00  0.00     0.000 A 
ATOM     18  C   UNL d   1      52.376  33.954  52.388  0.00  0.00     0.000 A 
ATOM     19  C   UNL d   1      51.710  34.175  52.836  0.00  0.00     0.000 A 
ATOM     20  C   UNL d   1      51.518  33.741  53.521  0.00  0.00     0.000 A 
ATOM     21  C   UNL d   1      51.989  33.099  53.748  0.00  0.00     0.000 A 
ENDBRANCH   3  16
TORSDOF 2
ENDMDL
MODEL 3
REMARK VINA RESULT:     -11.6      0.603      3.000
REMARK  2 active torsions:
REMARK  status: ('A' for Active; 'I' for Inactive)
REMARK    1  A    between atoms: C_6  and  C_1 
REMARK    2  A    between atoms: C_7  and  C_3 
ROOT
ATOM      1  C   UNL d   1      52.909  32.143  53.324  0.00  0.00     0.081 A 
ATOM      2  N   UNL d   1      52.245  32.227  52.850  0.00  0.00    -0.246 NA
ATOM      3  C   UNL d   1      53.145  32.891  53.565  0.00  0.00     0.019 A 
ATOM      4  C   UNL d   1      52.629  33.437  53.240  0.00  0.00     0.019 A 
ATOM      5  C   UNL d   1      52.070  33.034  52.797  0.00  0.00     0.081 A 
ATOM      6  C   UNL d   1      52.604  34.264  53.298  0.00  0.00     0.002 A 
ATOM      7  C   UNL d   1      51.476  33.450  52.404  0.00  0.00     0.019 A 
ATOM      8  C   UNL d   1      52.004  34.676  52.900  0.00  0.00     0.000 A 
ATOM      9  C   UNL d   1      51.440  34.268  52.453  0.00  0.00     0.002 A 
ENDROOT
BRANCH   1  10
ATOM     10  C   UNL d   1      53.115  31.343  53.400  0.00  0.00     0.018 A 
ATOM     11  C   UNL d   1      53.608  31.000  52.845  0.00  0.00     0.002 A 
ATOM     12  C   UNL d   1      53.811  30.207  52.922  0.00  0.00     0.000 A 
ATOM     13  C   UNL d   1      53.524  29.760  53.547  0.00  0.00     0.000 A 
ATOM     14  C   UNL d   1      53.026  30.116  54.103  0.00  0.00     0.000 A 
ATOM     15  C   UNL d   1      52.823  30.903  54.029  0.00  0.00     0.002 A 
ENDBRANCH   1  10
BRANCH   3  16
ATOM     16  C   UNL d   1      53.796  33.056  54.053  0.00  0.00     0.002 A 
ATOM     17  C   UNL d   1      54.543  33.180  53.726  0.00  0.00     0.000 A 
ATOM     18  C   UNL d   1      55.183  33.343  54.211  0.00  0.00     0.000 A 
ATOM     19  C   UNL d   1      55.090  33.385  55.037  0.00  0.00     0.000 A 
ATOM     20  C   UNL d   1      54.337  33.261  55.369  0.00  0.00     0.000 A 
ATOM     21  C   UNL d   1      53.692  33.097  54.876  0.00  0.00     0.000 A 
ENDBRANCH   3  16
TORSDOF 2
ENDMDL
MODEL 4
REMARK VINA RESULT:     -10.7      0.966      2.754
REMARK  2 active torsions:
REMARK  status: ('A' for Active; 'I' for Inactive)
REMARK    1  A    between atoms: C_6  and  C_1 
REMARK    2  A    between atoms: C_7  and  C_3 
ROOT
ATOM      1  C   UNL d   1      52.570  33.522  53.617  0.00  0.00     0.081 A 
ATOM      2  N   UNL d   1      52.847  34.175  54.031  0.00  0.00    -0.246 NA
ATOM      3  C   UNL d   1      53.055  32.884  53.795  0.00  0.00     0.019 A 
ATOM      4  C   UNL d   1      53.631  33.141  54.317  0.00  0.00     0.019 A 
ATOM      5  C   UNL d   1      53.509  33.937  54.467  0.00  0.00     0.081 A 
ATOM      6  C   UNL d   1      54.259  32.736  54.676  0.00  0.00     0.002 A 
ATOM      7  C   UNL d   1      54.012  34.343  54.979  0.00  0.00     0.019 A 
ATOM      8  C   UNL d   1      54.761  33.150  55.190  0.00  0.00     0.000 A 
ATOM      9  C   UNL d   1      54.638  33.954  55.341  0.00  0.00     0.002 A 
ENDROOT
BRANCH   1  10
ATOM     10  C   UNL d   1      51.904  33.724  53.166  0.00  0.00     0.018 A 
ATOM     11  C   UNL d   1      52.004  34.016  52.409  0.00  0.00     0.002 A 
ATOM     12  C   UNL d   1      51.342  34.216  51.963  0.00  0.00     0.000 A 
ATOM     13  C   UNL d   1      50.587  34.124  52.271  0.00  0.00     0.000 A 
ATOM     14  C   UNL d   1      50.496  33.828  53.038  0.00  0.00     0.000 A 
ATOM     15  C   UNL d   1      51.152  33.630  53.482  0.00  0.00     0.002 A 
ENDBRANCH   1  10
BRANCH   3  16
ATOM     16  C   UNL d   1      52.969  32.116  53.493  0.00  0.00     0.002 A 
ATOM     17  C   UNL d   1      53.357  31.893  52.800  0.00  0.00     0.000 A 
ATOM     18  C   UNL d   1      53.270  31.134  52.505  0.00  0.00     0.000 A 
ATOM     19  C   UNL d   1      52.790  30.579  52.897  0.00  0.00     0.000 A 
ATOM     20  C   UNL d   1      52.397  30.802  53.596  0.00  0.00     0.000 A 
ATOM     21  C   UNL d   1      52.488  31.570  53.893  0.00  0.00     0.000 A 
ENDBRANCH   3  16
TORSDOF 2
ENDMDL
MODEL 5
REMARK VINA RESULT:     -10.4      0.852      3.381
REMARK  2 active torsions:
REMARK  status: ('A' for Active; 'I' for Inactive)
REMARK    1  A    between atoms: C_6  and  C_1 
REMARK    2  A    between atoms: C_7  and  C_3 
ROOT
ATOM      1  C   UNL d   1      53.306  32.191  53.807  0.00  0.00     0.081 A 
ATOM      2  N   UNL d   1      53.969  32.132  54.286  0.00  0.00    -0.246 NA
ATOM      3  C   UNL d   1      53.052  32.971  53.821  0.00  0.00     0.019 A 
ATOM      4  C   UNL d   1      53.557  33.394  54.308  0.00  0.00     0.019 A 
ATOM      5  C   UNL d   1      54.126  32.882  54.598  0.00  0.00     0.081 A 
ATOM      6  C   UNL d   1      53.562  34.196  54.521  0.00  0.00     0.002 A 
ATOM      7  C   UNL d   1      54.711  33.161  55.108  0.00  0.00     0.019 A 
ATOM      8  C   UNL d   1      54.154  34.469  55.033  0.00  0.00     0.000 A 
ATOM      9  C   UNL d   1      54.729  33.952  55.327  0.00  0.00     0.002 A 
ENDROOT
BRANCH   1  10
ATOM     10  C   UNL d   1      53.118  31.454  53.475  0.00  0.00     0.018 A 
ATOM     11  C   UNL d   1      53.413  31.258  52.738  0.00  0.00     0.002 A 
ATOM     12  C   UNL d   1      53.226  30.527  52.410  0.00  0.00     0.000 A 
ATOM     13  C   UNL d   1      52.749  29.997  52.816  0.00  0.00     0.000 A 
ATOM     14  C   UNL d   1      52.456  30.204  53.561  0.00  0.00     0.000 A 
ATOM     15  C   UNL d   1      52.640  30.929  53.888  0.00  0.00     0.002 A 
ENDBRANCH   1  10
BRANCH   3  16
ATOM     16  C   UNL d   1      52.395  33.271  53.410  0.00  0.00     0.002 A 
ATOM     17  C   UNL d   1      51.642  33.235  53.743  0.00  0.00     0.000 A 
ATOM     18  C   UNL d   1      50.996  33.531  53.334  0.00  0.00     0.000 A 
ATOM     19  C   UNL d   1      51.091  33.871  52.581  0.00  0.00     0.000 A 
ATOM     20  C   UNL d   1      51.851  33.908  52.243  0.00  0.00     0.000 A 
ATOM     21  C   UNL d   1      52.502  33.608  52.659  0.00  0.00     0.000 A 
ENDBRANCH   3  16
TORSDOF 2
ENDMDL
MODEL 6
REMARK VINA RESULT:     -10.1      0.907      3.194
REMARK  2 active torsions:
REMARK  status: ('A' for Active; 'I' for Inactive)
REMARK    1  A    between atoms: C_6  and  C_1 
REMARK    2  A    between atoms: C_7  and  C_3 
ROOT
ATOM      1  C   UNL d   1      53.305  33.360  53.958  0.00  0.00     0.081 A 
ATOM      2  N   UNL d   1      52.914  34.078  53.891  0.00  0.00    -0.246 NA
ATOM      3  C   UNL d   1      52.850  32.787  53.585  0.00  0.00     0.019 A 
ATOM      4  C   UNL d   1      52.179  33.149  53.288  0.00  0.00     0.019 A 
ATOM      5  C   UNL d   1      52.212  33.947  53.473  0.00  0.00     0.081 A 
ATOM      6  C   UNL d   1      51.536  32.840  52.866  0.00  0.00     0.002 A 
ATOM      7  C   UNL d   1      51.602  34.450  53.240  0.00  0.00     0.019 A 
ATOM      8  C   UNL d   1      50.926  33.353  52.634  0.00  0.00     0.000 A 
ATOM      9  C   UNL d   1      50.959  34.158  52.821  0.00  0.00     0.002 A 
ENDROOT
BRANCH   1  10
ATOM     10  C   UNL d   1      54.017  33.453  54.374  0.00  0.00     0.018 A 
ATOM     11  C   UNL d   1      54.017  33.398  55.190  0.00  0.00     0.002 A 
ATOM     12  C   UNL d   1      54.724  33.491  55.600  0.00  0.00     0.000 A 
ATOM     13  C   UNL d   1      55.424  33.636  55.198  0.00  0.00     0.000 A 
ATOM     14  C   UNL d   1      55.414  33.689  54.373  0.00  0.00     0.000 A 
ATOM     15  C   UNL d   1      54.714  33.598  53.964  0.00  0.00     0.002 A 
ENDBRANCH   1  10
BRANCH   3  16
ATOM     16  C   UNL d   1      53.045  31.982  53.525  0.00  0.00     0.002 A 
ATOM     17  C   UNL d   1      52.850  31.458  54.132  0.00  0.00     0.000 A 
ATOM     18  C   UNL d   1      53.044  30.665  54.069  0.00  0.00     0.000 A 
ATOM     19  C   UNL d   1      53.439  30.376  53.396  0.00  0.00     0.000 A 
ATOM     20  C   UNL d   1      53.636  30.904  52.783  0.00  0.00     0.000 A 
ATOM     21  C   UNL d   1      53.439  31.705  52.849  0.00  0.00     0.000 A 
ENDBRANCH   3  16
TORSDOF 2
ENDMDL
