MODEL 1
REMARK VINA RESULT:      13.4      0.000      0.000
REMARK  1 active torsions:
REMARK  status: ('A' for Active; 'I' for Inactive)
REMARK    1  A    between atoms: C_2  and  C_1 
ROOT
ATOM      1  C   UNL d   1      57.570  49.704  50.222  0.00  0.00     0.067 A 
ATOM      2  C   UNL d   1      58.889  49.705  50.763  0.00  0.00     0.123 A 
ATOM      3  C   UNL d   1      58.071  49.706  50.879  0.00  0.00     0.033 A 
ATOM      4  C   UNL d   1      59.202  49.701  50.000  0.00  0.00     0.123 A 
ATOM      5  O   UNL d   1      59.395  49.708  51.423  0.00  0.00    -0.301 OA
ATOM      6  O   UNL d   1      60.023  49.700  49.891  0.00  0.00    -0.301 OA
ATOM      7  C   UNL d   1      57.883  49.700  49.459  0.00  0.00     0.008 A 
ATOM      8  C   UNL d   1      58.700  49.699  49.347  0.00  0.00     0.027 A 
ATOM      9  C   UNL d   1      60.217  49.707  51.308  0.00  0.00     0.149 A 
ATOM     10  C   UNL d   1      60.530  49.703  50.545  0.00  0.00     0.149 A 
ENDROOT
BRANCH   1  11
ATOM     11  C   UNL d   1      56.752  49.705  50.338  0.00  0.00     0.211 C 
ATOM     12  O   UNL d   1      56.396  49.706  51.082  0.00  0.00    -0.644 OA
ATOM     13  O   UNL d   1      56.204  49.706  49.719  0.00  0.00    -0.644 OA
ENDBRANCH   1  11
TORSDOF 1
ENDMDL
MODEL 2
REMARK VINA RESULT:      14.7      0.941      2.853
REMARK  1 active torsions:
REMARK  status: ('A' for Active; 'I' for Inactive)
REMARK    1  A    between atoms: C_2  and  C_1 
ROOT
ATOM      1  C   UNL d   1      59.849  49.687  50.911  0.00  0.00     0.067 A 
ATOM      2  C   UNL d   1      58.423  49.697  50.895  0.00  0.00     0.123 A 
ATOM      3  C   UNL d   1      59.131  49.692  51.321  0.00  0.00     0.033 A 
ATOM      4  C   UNL d   1      58.432  49.696  50.070  0.00  0.00     0.123 A 
ATOM      5  O   UNL d   1      57.700  49.702  51.305  0.00  0.00    -0.301 OA
ATOM      6  O   UNL d   1      57.718  49.701  49.649  0.00  0.00    -0.301 OA
ATOM      7  C   UNL d   1      59.858  49.686  50.086  0.00  0.00     0.008 A 
ATOM      8  C   UNL d   1      59.149  49.691  49.665  0.00  0.00     0.027 A 
ATOM      9  C   UNL d   1      56.988  49.706  50.879  0.00  0.00     0.149 A 
ATOM     10  C   UNL d   1      56.997  49.706  50.054  0.00  0.00     0.149 A 
ENDROOT
BRANCH   1  11
ATOM     11  C   UNL d   1      60.557  49.682  51.337  0.00  0.00     0.211 C 
ATOM     12  O   UNL d   1      60.594  49.708  52.160  0.00  0.00    -0.644 OA
ATOM     13  O   UNL d   1      61.302  49.651  50.981  0.00  0.00    -0.644 OA
ENDBRANCH   1  11
TORSDOF 1
ENDMDL
