MODEL 1
REMARK VINA RESULT:      -0.6      0.000      0.000
REMARK  6 active torsions:
REMARK  status: ('A' for Active; 'I' for Inactive)
REMARK    1  A    between atoms: C_7  and  C_1 
REMARK    2  A    between atoms: S_9  and  C_2 
REMARK    3  A    between atoms: C_11  and  C_4 
REMARK    4  A    between atoms: C_15  and  S_9 
REMARK    5  A    between atoms: C_12  and  C_15 
REMARK    6  A    between atoms: O_21  and  C_12 
ROOT
ATOM      1  C   UNL d   1      58.502  -0.969  30.137  0.00  0.00     0.045 A 
ATOM      2  C   UNL d   1      58.488  -0.200  30.419  0.00  0.00     0.112 A 
ATOM      3  C   UNL d   1      59.637  -0.647  29.317  0.00  0.00     0.057 A 
ATOM      4  C   UNL d   1      59.072  -1.200  29.588  0.00  0.00     0.008 A 
ATOM      5  C   UNL d   1      59.623   0.122  29.599  0.00  0.00     0.085 A 
ATOM      6  N   UNL d   1      59.043   0.356  30.158  0.00  0.00    -0.239 NA
ATOM      7  C   UNL d   1      60.198  -0.881  28.774  0.00  0.00     0.197 A 
ATOM      8  O   UNL d   1      60.213  -1.661  28.488  0.00  0.00    -0.286 OA
ATOM      9  C   UNL d   1      60.169   0.675  29.344  0.00  0.00     0.019 A 
ATOM     10  C   UNL d   1      60.754  -0.331  28.510  0.00  0.00     0.042 A 
ATOM     11  C   UNL d   1      60.739   0.438  28.792  0.00  0.00     0.005 A 
ENDROOT
BRANCH   4  12
ATOM     12  C   UNL d   1      59.086  -1.963  29.308  0.00  0.00     0.000 A 
ATOM     13  C   UNL d   1      58.534  -2.206  28.750  0.00  0.00     0.000 A 
ATOM     14  C   UNL d   1      58.548  -2.975  28.468  0.00  0.00     0.000 A 
ATOM     15  C   UNL d   1      59.115  -3.502  28.744  0.00  0.00     0.000 A 
ATOM     16  C   UNL d   1      59.677  -3.262  29.309  0.00  0.00     0.000 A 
ATOM     17  C   UNL d   1      59.129  -4.277  28.460  0.00  0.00     0.000 C 
ATOM     18  C   UNL d   1      59.663  -2.493  29.591  0.00  0.00     0.000 A 
ENDBRANCH   4  12
BRANCH   1  19
ATOM     19  C   UNL d   1      57.932  -1.523  30.411  0.00  0.00     0.124 C 
ATOM     20  N   UNL d   1      57.125  -1.377  30.277  0.00  0.00    -0.146 N 
ENDBRANCH   1  19
BRANCH   2  21
ATOM     21  S   UNL d   1      57.902   0.055  30.989  0.00  0.00    -0.062 SA
BRANCH  21  22
ATOM     22  C   UNL d   1      58.146   0.322  31.721  0.00  0.00     0.105 C 
BRANCH  22  23
ATOM     23  C   UNL d   1      57.582   0.504  32.304  0.00  0.00     0.303 C 
ATOM     24  O   UNL d   1      56.776   0.516  32.125  0.00  0.00    -0.259 OA
BRANCH  23  25
ATOM     25  O   UNL d   1      57.829   0.674  33.065  0.00  0.00    -0.295 OA
ATOM     26  C   UNL d   1      57.347   0.464  33.709  0.00  0.00     0.185 C 
ENDBRANCH  23  25
ENDBRANCH  22  23
ENDBRANCH  21  22
ENDBRANCH   2  21
TORSDOF 6
ENDMDL
MODEL 2
REMARK VINA RESULT:       0.5      1.702      3.907
REMARK  6 active torsions:
REMARK  status: ('A' for Active; 'I' for Inactive)
REMARK    1  A    between atoms: C_7  and  C_1 
REMARK    2  A    between atoms: S_9  and  C_2 
REMARK    3  A    between atoms: C_11  and  C_4 
REMARK    4  A    between atoms: C_15  and  S_9 
REMARK    5  A    between atoms: C_12  and  C_15 
REMARK    6  A    between atoms: O_21  and  C_12 
ROOT
ATOM      1  C   UNL d   1      58.840  -1.713  29.310  0.00  0.00     0.045 A 
ATOM      2  C   UNL d   1      59.392  -2.112  28.855  0.00  0.00     0.112 A 
ATOM      3  C   UNL d   1      59.622  -0.512  29.205  0.00  0.00     0.057 A 
ATOM      4  C   UNL d   1      58.947  -0.915  29.489  0.00  0.00     0.008 A 
ATOM      5  C   UNL d   1      60.174  -0.911  28.750  0.00  0.00     0.085 A 
ATOM      6  N   UNL d   1      60.064  -1.722  28.569  0.00  0.00    -0.239 NA
ATOM      7  C   UNL d   1      59.723   0.277  29.386  0.00  0.00     0.197 A 
ATOM      8  O   UNL d   1      59.163   0.681  29.847  0.00  0.00    -0.286 OA
ATOM      9  C   UNL d   1      60.840  -0.530  28.465  0.00  0.00     0.019 A 
ATOM     10  C   UNL d   1      60.391   0.669  29.103  0.00  0.00     0.042 A 
ATOM     11  C   UNL d   1      60.943   0.271  28.648  0.00  0.00     0.005 A 
ENDROOT
BRANCH   4  12
ATOM     12  C   UNL d   1      58.399  -0.519  29.941  0.00  0.00     0.000 A 
ATOM     13  C   UNL d   1      57.911   0.043  29.594  0.00  0.00     0.000 A 
ATOM     14  C   UNL d   1      57.359   0.442  30.049  0.00  0.00     0.000 A 
ATOM     15  C   UNL d   1      57.294   0.279  30.851  0.00  0.00     0.000 A 
ATOM     16  C   UNL d   1      57.786  -0.291  31.209  0.00  0.00     0.000 A 
ATOM     17  C   UNL d   1      56.738   0.681  31.310  0.00  0.00     0.000 C 
ATOM     18  C   UNL d   1      58.338  -0.690  30.754  0.00  0.00     0.000 A 
ENDBRANCH   4  12
BRANCH   1  19
ATOM     19  C   UNL d   1      58.162  -2.122  29.594  0.00  0.00     0.124 C 
ATOM     20  N   UNL d   1      57.766  -2.651  29.091  0.00  0.00    -0.146 N 
ENDBRANCH   1  19
BRANCH   2  21
ATOM     21  S   UNL d   1      59.295  -2.940  28.660  0.00  0.00    -0.062 SA
BRANCH  21  22
ATOM     22  C   UNL d   1      59.953  -3.392  28.493  0.00  0.00     0.105 C 
BRANCH  22  23
ATOM     23  C   UNL d   1      59.966  -4.197  28.698  0.00  0.00     0.303 C 
ATOM     24  O   UNL d   1      60.586  -4.512  29.143  0.00  0.00    -0.259 OA
BRANCH  23  25
ATOM     25  O   UNL d   1      59.356  -4.685  28.455  0.00  0.00    -0.295 OA
ATOM     26  C   UNL d   1      59.414  -5.505  28.576  0.00  0.00     0.185 C 
ENDBRANCH  23  25
ENDBRANCH  22  23
ENDBRANCH  21  22
ENDBRANCH   2  21
TORSDOF 6
ENDMDL
MODEL 3
REMARK VINA RESULT:       1.6      8.967      9.120
REMARK  6 active torsions:
REMARK  status: ('A' for Active; 'I' for Inactive)
REMARK    1  A    between atoms: C_7  and  C_1 
REMARK    2  A    between atoms: S_9  and  C_2 
REMARK    3  A    between atoms: C_11  and  C_4 
REMARK    4  A    between atoms: C_15  and  S_9 
REMARK    5  A    between atoms: C_12  and  C_15 
REMARK    6  A    between atoms: O_21  and  C_12 
ROOT
ATOM      1  C   UNL d   1      58.751  -9.804  31.983  0.00  0.00     0.045 A 
ATOM      2  C   UNL d   1      59.402  -9.804  32.481  0.00  0.00     0.112 A 
ATOM      3  C   UNL d   1      59.624  -9.804  30.842  0.00  0.00     0.057 A 
ATOM      4  C   UNL d   1      58.853  -9.804  31.165  0.00  0.00     0.008 A 
ATOM      5  C   UNL d   1      60.274  -9.804  31.339  0.00  0.00     0.085 A 
ATOM      6  N   UNL d   1      60.169  -9.804  32.171  0.00  0.00    -0.239 NA
ATOM      7  C   UNL d   1      59.719  -9.804  30.032  0.00  0.00     0.197 A 
ATOM      8  O   UNL d   1      59.058  -9.804  29.527  0.00  0.00    -0.286 OA
ATOM      9  C   UNL d   1      61.035  -9.803  31.038  0.00  0.00     0.019 A 
ATOM     10  C   UNL d   1      60.482  -9.803  29.719  0.00  0.00     0.042 A 
ATOM     11  C   UNL d   1      61.132  -9.803  30.216  0.00  0.00     0.005 A 
ENDROOT
BRANCH   4  12
ATOM     12  C   UNL d   1      58.207  -9.804  30.671  0.00  0.00     0.000 A 
ATOM     13  C   UNL d   1      57.449  -9.818  30.988  0.00  0.00     0.000 A 
ATOM     14  C   UNL d   1      56.798  -9.818  30.491  0.00  0.00     0.000 A 
ATOM     15  C   UNL d   1      56.905  -9.805  29.676  0.00  0.00     0.000 A 
ATOM     16  C   UNL d   1      57.671  -9.792  29.349  0.00  0.00     0.000 A 
ATOM     17  C   UNL d   1      56.248  -9.805  29.175  0.00  0.00     0.000 C 
ATOM     18  C   UNL d   1      58.321  -9.792  29.846  0.00  0.00     0.000 A 
ENDBRANCH   4  12
BRANCH   1  19
ATOM     19  C   UNL d   1      57.977  -9.805  32.311  0.00  0.00     0.124 C 
ATOM     20  N   UNL d   1      57.834  -9.391  33.018  0.00  0.00    -0.146 N 
ENDBRANCH   1  19
BRANCH   2  21
ATOM     21  S   UNL d   1      59.312  -9.804  33.332  0.00  0.00    -0.062 SA
BRANCH  21  22
ATOM     22  C   UNL d   1      59.931  -9.551  33.800  0.00  0.00     0.105 C 
BRANCH  22  23
ATOM     23  C   UNL d   1      59.798  -9.372  34.600  0.00  0.00     0.303 C 
ATOM     24  O   UNL d   1      59.177  -9.722  35.017  0.00  0.00    -0.259 OA
BRANCH  23  25
ATOM     25  O   UNL d   1      60.290  -8.840  34.982  0.00  0.00    -0.295 OA
ATOM     26  C   UNL d   1      60.273  -8.789  35.812  0.00  0.00     0.185 C 
ENDBRANCH  23  25
ENDBRANCH  22  23
ENDBRANCH  21  22
ENDBRANCH   2  21
TORSDOF 6
ENDMDL
