MODEL 1
REMARK VINA RESULT:     119.2      0.000      0.000
REMARK  2 active torsions:
REMARK  status: ('A' for Active; 'I' for Inactive)
REMARK    1  A    between atoms: N_10  and  C_3 
REMARK    2  A    between atoms: C_12  and  C_5 
ROOT
ATOM      1  N   UNL d   1     -55.109-101.667 -42.673  0.00  0.00    -0.196 N 
ATOM      2  C   UNL d   1     -55.110-101.261 -41.949  0.00  0.00     0.167 A 
ATOM      3  C   UNL d   1     -55.240-101.247 -43.366  0.00  0.00     0.152 A 
ATOM      4  N   UNL d   1     -54.852-102.872 -41.990  0.00  0.00    -0.163 NA
ATOM      5  C   UNL d   1     -54.983-101.655 -41.255  0.00  0.00     0.055 A 
ATOM      6  N   UNL d   1     -55.241-100.443 -41.936  0.00  0.00    -0.227 NA
ATOM      7  C   UNL d   1     -55.370-100.442 -43.355  0.00  0.00     0.052 A 
ATOM      8  C   UNL d   1     -54.853-102.468 -41.270  0.00  0.00     0.104 A 
ATOM      9  C   UNL d   1     -55.370-100.037 -42.636  0.00  0.00     0.086 A 
ATOM     10  C   UNL d   1     -55.500-100.037 -44.067  0.00  0.00     0.004 A 
ATOM     11  C   UNL d   1     -54.725-102.874 -40.585  0.00  0.00     0.023 C 
ATOM     12  C   UNL d   1     -55.500 -99.224 -42.620  0.00  0.00     0.019 A 
ATOM     13  C   UNL d   1     -55.632 -99.211 -44.047  0.00  0.00     0.000 A 
ATOM     14  C   UNL d   1     -55.632 -98.807 -43.327  0.00  0.00     0.002 A 
ENDROOT
BRANCH   3  15
ATOM     15  N   UNL d   1     -55.241-101.657 -44.103  0.00  0.00    -0.286 N 
ATOM     16  C   UNL d   1     -54.715-101.418 -44.711  0.00  0.00     0.101 A 
ATOM     17  C   UNL d   1     -54.716-101.831 -45.455  0.00  0.00     0.100 A 
ATOM     18  N   UNL d   1     -55.239-102.474 -45.580  0.00  0.00    -0.299 N 
ATOM     19  C   UNL d   1     -55.768-102.715 -44.970  0.00  0.00     0.100 A 
ATOM     20  C   UNL d   1     -55.233-102.880 -46.324  0.00  0.00     0.100 C 
ATOM     21  C   UNL d   1     -55.774-102.307 -44.223  0.00  0.00     0.101 A 
ENDBRANCH   3  15
BRANCH   5  22
ATOM     22  C   UNL d   1     -54.983-101.251 -40.535  0.00  0.00     0.004 A 
ATOM     23  C   UNL d   1     -55.248-101.628 -39.865  0.00  0.00     0.000 A 
ATOM     24  C   UNL d   1     -55.248-101.224 -39.145  0.00  0.00     0.000 A 
ATOM     25  C   UNL d   1     -54.983-100.449 -39.108  0.00  0.00     0.000 A 
ATOM     26  C   UNL d   1     -54.717-100.078 -39.789  0.00  0.00     0.000 A 
ATOM     27  C   UNL d   1     -54.717-100.482 -40.509  0.00  0.00     0.000 A 
ENDBRANCH   5  22
TORSDOF 2
ENDMDL
MODEL 2
REMARK VINA RESULT:     120.2      1.474      4.322
REMARK  2 active torsions:
REMARK  status: ('A' for Active; 'I' for Inactive)
REMARK    1  A    between atoms: N_10  and  C_3 
REMARK    2  A    between atoms: C_12  and  C_5 
ROOT
ATOM      1  N   UNL d   1     -56.206-100.729 -43.080  0.00  0.00    -0.196 N 
ATOM      2  C   UNL d   1     -56.443-100.412 -43.809  0.00  0.00     0.167 A 
ATOM      3  C   UNL d   1     -55.722-101.392 -43.071  0.00  0.00     0.152 A 
ATOM      4  N   UNL d   1     -56.935 -99.724 -42.412  0.00  0.00    -0.163 NA
ATOM      5  C   UNL d   1     -56.920 -99.759 -43.840  0.00  0.00     0.055 A 
ATOM      6  N   UNL d   1     -56.190-100.765 -44.514  0.00  0.00    -0.227 NA
ATOM      7  C   UNL d   1     -55.471-101.742 -43.764  0.00  0.00     0.052 A 
ATOM      8  C   UNL d   1     -57.170 -99.409 -43.137  0.00  0.00     0.104 A 
ATOM      9  C   UNL d   1     -55.707-101.427 -44.490  0.00  0.00     0.086 A 
ATOM     10  C   UNL d   1     -54.983-102.411 -43.733  0.00  0.00     0.004 A 
ATOM     11  C   UNL d   1     -57.646 -98.758 -43.154  0.00  0.00     0.023 C 
ATOM     12  C   UNL d   1     -55.457-101.777 -45.192  0.00  0.00     0.019 A 
ATOM     13  C   UNL d   1     -54.731-102.764 -44.449  0.00  0.00     0.000 A 
ATOM     14  C   UNL d   1     -54.966-102.449 -45.174  0.00  0.00     0.002 A 
ENDROOT
BRANCH   3  15
ATOM     15  N   UNL d   1     -55.479-101.717 -42.332  0.00  0.00    -0.286 N 
ATOM     16  C   UNL d   1     -54.960-101.281 -41.837  0.00  0.00     0.101 A 
ATOM     17  C   UNL d   1     -54.715-101.609 -41.091  0.00  0.00     0.100 A 
ATOM     18  N   UNL d   1     -54.990-102.363 -40.851  0.00  0.00    -0.299 N 
ATOM     19  C   UNL d   1     -55.511-102.802 -41.347  0.00  0.00     0.100 A 
ATOM     20  C   UNL d   1     -54.741-102.682 -40.107  0.00  0.00     0.100 C 
ATOM     21  C   UNL d   1     -55.761-102.481 -42.094  0.00  0.00     0.101 A 
ENDBRANCH   3  15
BRANCH   5  22
ATOM     22  C   UNL d   1     -57.156 -99.444 -44.565  0.00  0.00     0.004 A 
ATOM     23  C   UNL d   1     -56.656 -99.498 -45.205  0.00  0.00     0.000 A 
ATOM     24  C   UNL d   1     -56.892 -99.183 -45.931  0.00  0.00     0.000 A 
ATOM     25  C   UNL d   1     -57.623 -98.819 -46.004  0.00  0.00     0.000 A 
ATOM     26  C   UNL d   1     -58.119 -98.770 -45.352  0.00  0.00     0.000 A 
ATOM     27  C   UNL d   1     -57.883 -99.085 -44.627  0.00  0.00     0.000 A 
ENDBRANCH   5  22
TORSDOF 2
ENDMDL
