MODEL 1
REMARK VINA RESULT:       5.1      0.000      0.000
REMARK  0 active torsions:
REMARK  status: ('A' for Active; 'I' for Inactive)
ROOT
ATOM      1  N   UNL d   1      23.642  12.736  -1.280  0.00  0.00    -0.273 N 
ATOM      2  C   UNL d   1      24.316  13.064  -1.592  0.00  0.00     0.068 A 
ATOM      3  C   UNL d   1      23.405  12.933  -0.509  0.00  0.00     0.265 A 
ATOM      4  C   UNL d   1      24.547  12.865  -2.358  0.00  0.00     0.035 A 
ATOM      5  C   UNL d   1      23.192  12.207  -1.731  0.00  0.00     0.085 A 
ATOM      6  C   UNL d   1      24.760  13.592  -1.136  0.00  0.00     0.018 A 
ATOM      7  N   UNL d   1      24.287  12.079  -3.636  0.00  0.00    -0.242 NA
ATOM      8  C   UNL d   1      24.104  12.338  -2.813  0.00  0.00     0.006 A 
ATOM      9  C   UNL d   1      23.430  12.010  -2.501  0.00  0.00     0.037 A 
ATOM     10  C   UNL d   1      24.529  13.792  -0.367  0.00  0.00     0.006 A 
ATOM     11  C   UNL d   1      23.855  13.465  -0.055  0.00  0.00     0.061 A 
ATOM     12  O   UNL d   1      22.727  12.602  -0.199  0.00  0.00    -0.267 OA
ATOM     13  C   UNL d   1      24.764  12.656  -3.124  0.00  0.00     0.100 A 
ATOM     14  C   UNL d   1      23.615  11.779  -3.267  0.00  0.00     0.100 A 
ENDROOT
TORSDOF 0
ENDMDL
