MODEL 1
REMARK VINA RESULT:      -0.2      0.000      0.000
REMARK  3 active torsions:
REMARK  status: ('A' for Active; 'I' for Inactive)
REMARK    1  A    between atoms: N_9  and  C_3 
REMARK    2  A    between atoms: C_12  and  C_5 
REMARK    3  A    between atoms: C_17  and  N_10 
ROOT
ATOM      1  N   UNL d   1      57.947   0.413  31.574  0.00  0.00    -0.196 N 
ATOM      2  C   UNL d   1      58.685   0.391  31.206  0.00  0.00     0.167 A 
ATOM      3  C   UNL d   1      57.896   0.524  32.388  0.00  0.00     0.152 A 
ATOM      4  N   UNL d   1      57.368   0.310  31.000  0.00  0.00    -0.163 NA
ATOM      5  C   UNL d   1      58.565   0.275  30.402  0.00  0.00     0.055 A 
ATOM      6  C   UNL d   1      57.757   0.225  30.271  0.00  0.00     0.104 A 
ATOM      7  N   UNL d   1      59.371   0.480  31.651  0.00  0.00    -0.227 NA
ATOM      8  C   UNL d   1      58.585   0.614  32.841  0.00  0.00     0.057 A 
ATOM      9  C   UNL d   1      59.323   0.592  32.473  0.00  0.00     0.086 A 
ATOM     10  C   UNL d   1      57.389   0.109  29.542  0.00  0.00     0.023 C 
ATOM     11  C   UNL d   1      60.016   0.681  32.920  0.00  0.00     0.021 C 
ENDROOT
BRANCH   3  12
ATOM     12  N   UNL d   1      57.151   0.546  32.760  0.00  0.00    -0.286 N 
ATOM     13  C   UNL d   1      57.103   0.541  33.589  0.00  0.00     0.101 A 
ATOM     14  C   UNL d   1      56.365   0.563  33.957  0.00  0.00     0.100 A 
ATOM     15  N   UNL d   1      55.675   0.590  33.496  0.00  0.00    -0.301 N 
ATOM     16  C   UNL d   1      55.726   0.595  32.675  0.00  0.00     0.100 A 
ATOM     17  C   UNL d   1      56.464   0.573  32.307  0.00  0.00     0.101 A 
BRANCH  15  18
ATOM     18  C   UNL d   1      54.933   0.612  33.867  0.00  0.00     0.064 A 
ATOM     19  C   UNL d   1      54.883   0.672  34.687  0.00  0.00     0.018 A 
ATOM     20  C   UNL d   1      54.082   0.682  34.892  0.00  0.00     0.002 A 
ATOM     21  C   UNL d   1      53.645   0.628  34.199  0.00  0.00     0.002 A 
ATOM     22  C   UNL d   1      54.160   0.586  33.570  0.00  0.00     0.018 A 
ENDBRANCH  15  18
ENDBRANCH   3  12
BRANCH   5  23
ATOM     23  C   UNL d   1      59.086   0.207  29.769  0.00  0.00     0.004 A 
ATOM     24  C   UNL d   1      58.974   0.673  29.088  0.00  0.00     0.000 A 
ATOM     25  C   UNL d   1      59.495   0.605  28.455  0.00  0.00     0.000 A 
ATOM     26  C   UNL d   1      60.129   0.077  28.492  0.00  0.00     0.000 A 
ATOM     27  C   UNL d   1      60.243  -0.386  29.165  0.00  0.00     0.000 A 
ATOM     28  C   UNL d   1      59.719  -0.321  29.806  0.00  0.00     0.000 A 
ENDBRANCH   5  23
TORSDOF 3
ENDMDL
MODEL 2
REMARK VINA RESULT:       0.7      1.196      2.064
REMARK  3 active torsions:
REMARK  status: ('A' for Active; 'I' for Inactive)
REMARK    1  A    between atoms: N_9  and  C_3 
REMARK    2  A    between atoms: C_12  and  C_5 
REMARK    3  A    between atoms: C_17  and  N_10 
ROOT
ATOM      1  N   UNL d   1      58.125  -0.556  30.866  0.00  0.00    -0.196 N 
ATOM      2  C   UNL d   1      58.546  -0.834  30.214  0.00  0.00     0.167 A 
ATOM      3  C   UNL d   1      57.397  -0.887  31.058  0.00  0.00     0.152 A 
ATOM      4  N   UNL d   1      58.561   0.046  31.217  0.00  0.00    -0.163 NA
ATOM      5  C   UNL d   1      59.244  -0.405  30.159  0.00  0.00     0.055 A 
ATOM      6  C   UNL d   1      59.257   0.137  30.774  0.00  0.00     0.104 A 
ATOM      7  N   UNL d   1      58.240  -1.443  29.754  0.00  0.00    -0.227 NA
ATOM      8  C   UNL d   1      57.083  -1.502  30.597  0.00  0.00     0.057 A 
ATOM      9  C   UNL d   1      57.504  -1.780  29.945  0.00  0.00     0.086 A 
ATOM     10  C   UNL d   1      59.857   0.682  30.929  0.00  0.00     0.023 C 
ATOM     11  C   UNL d   1      57.196  -2.394  29.480  0.00  0.00     0.021 C 
ENDROOT
BRANCH   3  12
ATOM     12  N   UNL d   1      56.971  -0.605  31.717  0.00  0.00    -0.286 N 
ATOM     13  C   UNL d   1      56.491   0.069  31.642  0.00  0.00     0.101 A 
ATOM     14  C   UNL d   1      56.070   0.347  32.294  0.00  0.00     0.100 A 
ATOM     15  N   UNL d   1      56.129  -0.049  33.022  0.00  0.00    -0.301 N 
ATOM     16  C   UNL d   1      56.605  -0.716  33.093  0.00  0.00     0.100 A 
ATOM     17  C   UNL d   1      57.026  -0.994  32.440  0.00  0.00     0.101 A 
BRANCH  15  18
ATOM     18  C   UNL d   1      55.705   0.231  33.677  0.00  0.00     0.064 A 
ATOM     19  C   UNL d   1      54.907   0.422  33.603  0.00  0.00     0.018 A 
ATOM     20  C   UNL d   1      54.639   0.682  34.340  0.00  0.00     0.002 A 
ATOM     21  C   UNL d   1      55.271   0.650  34.863  0.00  0.00     0.002 A 
ATOM     22  C   UNL d   1      55.924   0.376  34.464  0.00  0.00     0.018 A 
ENDBRANCH  15  18
ENDBRANCH   3  12
BRANCH   5  23
ATOM     23  C   UNL d   1      59.872  -0.436  29.629  0.00  0.00     0.004 A 
ATOM     24  C   UNL d   1      59.970   0.169  29.065  0.00  0.00     0.000 A 
ATOM     25  C   UNL d   1      60.599   0.137  28.535  0.00  0.00     0.000 A 
ATOM     26  C   UNL d   1      61.133  -0.491  28.561  0.00  0.00     0.000 A 
ATOM     27  C   UNL d   1      61.040  -1.092  29.118  0.00  0.00     0.000 A 
ATOM     28  C   UNL d   1      60.407  -1.064  29.655  0.00  0.00     0.000 A 
ENDBRANCH   5  23
TORSDOF 3
ENDMDL
MODEL 3
REMARK VINA RESULT:       1.6      2.555      5.782
REMARK  3 active torsions:
REMARK  status: ('A' for Active; 'I' for Inactive)
REMARK    1  A    between atoms: N_9  and  C_3 
REMARK    2  A    between atoms: C_12  and  C_5 
REMARK    3  A    between atoms: C_17  and  N_10 
ROOT
ATOM      1  N   UNL d   1      57.989  -1.316  30.498  0.00  0.00    -0.196 N 
ATOM      2  C   UNL d   1      57.560  -0.652  30.733  0.00  0.00     0.167 A 
ATOM      3  C   UNL d   1      58.384  -1.317  29.776  0.00  0.00     0.152 A 
ATOM      4  N   UNL d   1      57.926  -1.886  31.087  0.00  0.00    -0.163 NA
ATOM      5  C   UNL d   1      57.230  -0.809  31.468  0.00  0.00     0.055 A 
ATOM      6  C   UNL d   1      57.453  -1.566  31.689  0.00  0.00     0.104 A 
ATOM      7  N   UNL d   1      57.525   0.011  30.247  0.00  0.00    -0.227 NA
ATOM      8  C   UNL d   1      58.352  -0.651  29.282  0.00  0.00     0.057 A 
ATOM      9  C   UNL d   1      57.923   0.013  29.517  0.00  0.00     0.086 A 
ATOM     10  C   UNL d   1      57.244  -1.949  32.389  0.00  0.00     0.023 C 
ATOM     11  C   UNL d   1      57.887   0.682  29.027  0.00  0.00     0.021 C 
ENDROOT
BRANCH   3  12
ATOM     12  N   UNL d   1      58.817  -1.988  29.539  0.00  0.00    -0.286 N 
ATOM     13  C   UNL d   1      58.417  -2.663  29.266  0.00  0.00     0.101 A 
ATOM     14  C   UNL d   1      58.847  -3.327  29.031  0.00  0.00     0.100 A 
ATOM     15  N   UNL d   1      59.676  -3.316  29.069  0.00  0.00    -0.301 N 
ATOM     16  C   UNL d   1      60.069  -2.646  29.339  0.00  0.00     0.100 A 
ATOM     17  C   UNL d   1      59.640  -1.982  29.574  0.00  0.00     0.101 A 
BRANCH  15  18
ATOM     18  C   UNL d   1      60.107  -3.983  28.832  0.00  0.00     0.064 A 
ATOM     19  C   UNL d   1      59.721  -4.698  28.698  0.00  0.00     0.018 A 
ATOM     20  C   UNL d   1      60.289  -5.255  28.472  0.00  0.00     0.002 A 
ATOM     21  C   UNL d   1      61.020  -4.880  28.468  0.00  0.00     0.002 A 
ATOM     22  C   UNL d   1      60.914  -4.104  28.687  0.00  0.00     0.018 A 
ENDBRANCH  15  18
ENDBRANCH   3  12
BRANCH   5  23
ATOM     23  C   UNL d   1      56.754  -0.361  31.968  0.00  0.00     0.004 A 
ATOM     24  C   UNL d   1      55.933  -0.496  31.991  0.00  0.00     0.000 A 
ATOM     25  C   UNL d   1      55.458  -0.048  32.491  0.00  0.00     0.000 A 
ATOM     26  C   UNL d   1      55.791   0.535  32.971  0.00  0.00     0.000 A 
ATOM     27  C   UNL d   1      56.605   0.672  32.951  0.00  0.00     0.000 A 
ATOM     28  C   UNL d   1      57.088   0.222  32.448  0.00  0.00     0.000 A 
ENDBRANCH   5  23
TORSDOF 3
ENDMDL
