MODEL 1
REMARK VINA RESULT:      75.1      0.000      0.000
REMARK  7 active torsions:
REMARK  status: ('A' for Active; 'I' for Inactive)
REMARK    1  A    between atoms: N_10  and  C_4 
REMARK    2  A    between atoms: C_16  and  N_5 
REMARK    3  A    between atoms: C_18  and  N_11 
REMARK    4  A    between atoms: C_22  and  C_16 
REMARK    5  A    between atoms: C_21  and  C_18 
REMARK    6  A    between atoms: C_24  and  C_22 
REMARK    7  A    between atoms: C_23  and  C_24 
ROOT
ATOM      1  C   UNL d   1      13.364  13.935  -4.791  0.00  0.00     0.191 A 
ATOM      2  C   UNL d   1      13.506  14.257  -4.046  0.00  0.00     0.174 A 
ATOM      3  N   UNL d   1      13.379  14.545  -5.347  0.00  0.00    -0.042 NA
ATOM      4  C   UNL d   1      13.532  15.242  -4.928  0.00  0.00     0.722 A 
ATOM      5  N   UNL d   1      13.611  15.072  -4.128  0.00  0.00    -0.132 N 
ATOM      6  N   UNL d   1      13.237  13.119  -4.879  0.00  0.00    -0.239 N 
ATOM      7  C   UNL d   1      13.253  12.617  -4.199  0.00  0.00     0.358 A 
ATOM      8  N   UNL d   1      13.395  12.939  -3.454  0.00  0.00    -0.152 NA
ATOM      9  C   UNL d   1      13.523  13.769  -3.377  0.00  0.00     0.303 A 
ATOM     10  O   UNL d   1      13.124  11.782  -4.279  0.00  0.00    -0.244 OA
ATOM     11  O   UNL d   1      13.666  14.095  -2.624  0.00  0.00    -0.263 OA
ATOM     12  C   UNL d   1      13.095  12.796  -5.624  0.00  0.00     0.105 C 
ENDROOT
BRANCH   4  13
ATOM     13  N   UNL d   1      13.596  15.995  -5.267  0.00  0.00    -0.136 N 
ATOM     14  C   UNL d   1      14.284  16.440  -5.157  0.00  0.00     0.117 A 
ATOM     15  C   UNL d   1      14.347  17.190  -5.494  0.00  0.00     0.100 A 
ATOM     16  N   UNL d   1      13.726  17.495  -5.938  0.00  0.00    -0.300 N 
ATOM     17  C   UNL d   1      13.031  17.058  -6.055  0.00  0.00     0.100 A 
ATOM     18  C   UNL d   1      12.967  16.301  -5.715  0.00  0.00     0.117 A 
BRANCH  16  19
ATOM     19  C   UNL d   1      13.403  18.103  -6.389  0.00  0.00     0.080 C 
BRANCH  19  20
ATOM     20  C   UNL d   1      13.602  18.883  -6.231  0.00  0.00     0.018 A 
ATOM     21  C   UNL d   1      13.022  19.457  -6.228  0.00  0.00     0.002 A 
ATOM     22  C   UNL d   1      13.218  20.240  -6.070  0.00  0.00     0.000 A 
ATOM     23  C   UNL d   1      14.000  20.444  -5.915  0.00  0.00     0.000 A 
ATOM     24  C   UNL d   1      14.584  19.861  -5.920  0.00  0.00     0.000 A 
ATOM     25  C   UNL d   1      14.382  19.084  -6.077  0.00  0.00     0.002 A 
ENDBRANCH  19  20
ENDBRANCH  16  19
ENDBRANCH   4  13
BRANCH   5  26
ATOM     26  C   UNL d   1      13.765  15.578  -3.492  0.00  0.00     0.098 C 
BRANCH  26  27
ATOM     27  C   UNL d   1      14.538  15.652  -3.203  0.00  0.00     0.020 C 
BRANCH  27  28
ATOM     28  C   UNL d   1      14.775  16.357  -2.843  0.00  0.00     0.002 C 
BRANCH  28  29
ATOM     29  C   UNL d   1      15.010  16.352  -2.049  0.00  0.00     0.000 A 
ATOM     30  C   UNL d   1      15.248  17.052  -1.698  0.00  0.00     0.000 A 
ATOM     31  C   UNL d   1      15.484  17.055  -0.904  0.00  0.00     0.000 A 
ATOM     32  C   UNL d   1      15.478  16.347  -0.471  0.00  0.00     0.000 A 
ATOM     33  C   UNL d   1      15.237  15.643  -0.831  0.00  0.00     0.000 A 
ATOM     34  C   UNL d   1      15.002  15.646  -1.624  0.00  0.00     0.000 A 
ENDBRANCH  28  29
ENDBRANCH  27  28
ENDBRANCH  26  27
ENDBRANCH   5  26
TORSDOF 7
ENDMDL
