MODEL 1
REMARK VINA RESULT:     113.9      0.000      0.000
REMARK  9 active torsions:
REMARK  status: ('A' for Active; 'I' for Inactive)
REMARK    1  A    between atoms: C_17  and  N_4 
REMARK    2  A    between atoms: S_16  and  C_7 
REMARK    3  A    between atoms: S_15  and  C_8 
REMARK    4  A    between atoms: C_10  and  C_19 
REMARK    5  A    between atoms: C_22  and  S_15 
REMARK    6  A    between atoms: C_19  and  S_16 
REMARK    7  A    between atoms: C_20  and  C_22 
REMARK    8  A    between atoms: O_24  and  C_20 
REMARK    9  A    between atoms: C_28  and  O_24 
ROOT
ATOM      1  N   UNL d   1      59.457  48.101  50.911  0.00  0.00    -0.269 N 
ATOM      2  C   UNL d   1      58.692  48.323  50.742  0.00  0.00     0.201 A 
ATOM      3  C   UNL d   1      59.555  47.274  50.812  0.00  0.00     0.177 A 
ATOM      4  N   UNL d   1      58.284  47.642  50.532  0.00  0.00    -0.121 NA
ATOM      5  N   UNL d   1      58.804  46.993  50.571  0.00  0.00    -0.127 NA
ENDROOT
BRANCH   3   6
ATOM      6  C   UNL d   1      60.269  46.898  50.943  0.00  0.00     0.078 C 
BRANCH   6   7
ATOM      7  S   UNL d   1      60.587  46.412  50.362  0.00  0.00    -0.045 SA
BRANCH   7   8
ATOM      8  C   UNL d   1      60.926  45.682  50.568  0.00  0.00     0.198 A 
ATOM      9  N   UNL d   1      60.765  45.303  51.325  0.00  0.00    -0.183 NA
ATOM     10  C   UNL d   1      61.104  44.577  51.526  0.00  0.00     0.283 A 
ATOM     11  C   UNL d   1      61.620  44.197  50.978  0.00  0.00     0.082 A 
ATOM     12  O   UNL d   1      60.944  44.218  52.257  0.00  0.00    -0.265 OA
ATOM     13  C   UNL d   1      61.779  44.564  50.239  0.00  0.00     0.117 A 
ATOM     14  C   UNL d   1      62.036  43.479  51.020  0.00  0.00     0.013 A 
ATOM     15  N   UNL d   1      61.438  45.294  50.037  0.00  0.00    -0.214 NA
ATOM     16  S   UNL d   1      62.299  44.053  49.836  0.00  0.00    -0.068 SA
ATOM     17  C   UNL d   1      62.454  43.386  50.325  0.00  0.00     0.031 A 
ATOM     18  C   UNL d   1      62.934  42.733  50.167  0.00  0.00     0.006 A 
ATOM     19  C   UNL d   1      62.992  42.136  50.759  0.00  0.00     0.001 A 
ATOM     20  C   UNL d   1      62.565  42.230  51.471  0.00  0.00     0.000 A 
ATOM     21  C   UNL d   1      62.087  42.902  51.601  0.00  0.00     0.001 A 
ENDBRANCH   7   8
ENDBRANCH   6   7
ENDBRANCH   3   6
BRANCH   1  22
ATOM     22  C   UNL d   1      60.050  48.637  51.148  0.00  0.00     0.067 A 
ATOM     23  C   UNL d   1      60.559  48.966  50.584  0.00  0.00     0.018 A 
ATOM     24  C   UNL d   1      61.141  49.491  50.813  0.00  0.00     0.002 A 
ATOM     25  C   UNL d   1      61.228  49.698  51.604  0.00  0.00     0.000 A 
ATOM     26  C   UNL d   1      60.736  49.384  52.165  0.00  0.00     0.002 A 
ATOM     27  C   UNL d   1      60.143  48.850  51.938  0.00  0.00     0.018 A 
ENDBRANCH   1  22
BRANCH   2  28
ATOM     28  S   UNL d   1      58.370  49.085  50.773  0.00  0.00    -0.042 SA
BRANCH  28  29
ATOM     29  C   UNL d   1      57.646  49.207  51.100  0.00  0.00     0.107 C 
BRANCH  29  30
ATOM     30  C   UNL d   1      57.014  49.455  50.638  0.00  0.00     0.307 C 
ATOM     31  O   UNL d   1      56.253  49.458  50.959  0.00  0.00    -0.258 OA
BRANCH  30  32
ATOM     32  O   UNL d   1      57.112  49.702  49.865  0.00  0.00    -0.271 OA
BRANCH  32  33
ATOM     33  C   UNL d   1      56.518  49.666  49.312  0.00  0.00     0.126 C 
ATOM     34  C   UNL d   1      56.168  48.990  49.087  0.00  0.00     0.029 C 
ENDBRANCH  32  33
ENDBRANCH  30  32
ENDBRANCH  29  30
ENDBRANCH  28  29
ENDBRANCH   2  28
TORSDOF 9
ENDMDL
MODEL 2
REMARK VINA RESULT:     116.9      0.972      1.340
REMARK  9 active torsions:
REMARK  status: ('A' for Active; 'I' for Inactive)
REMARK    1  A    between atoms: C_17  and  N_4 
REMARK    2  A    between atoms: S_16  and  C_7 
REMARK    3  A    between atoms: S_15  and  C_8 
REMARK    4  A    between atoms: C_10  and  C_19 
REMARK    5  A    between atoms: C_22  and  S_15 
REMARK    6  A    between atoms: C_19  and  S_16 
REMARK    7  A    between atoms: C_20  and  C_22 
REMARK    8  A    between atoms: O_24  and  C_20 
REMARK    9  A    between atoms: C_28  and  O_24 
ROOT
ATOM      1  N   UNL d   1      59.775  48.359  50.805  0.00  0.00    -0.269 N 
ATOM      2  C   UNL d   1      59.048  48.679  50.629  0.00  0.00     0.201 A 
ATOM      3  C   UNL d   1      59.766  47.526  50.704  0.00  0.00     0.177 A 
ATOM      4  N   UNL d   1      58.557  48.058  50.412  0.00  0.00    -0.121 NA
ATOM      5  N   UNL d   1      58.987  47.346  50.455  0.00  0.00    -0.127 NA
ENDROOT
BRANCH   3   6
ATOM      6  C   UNL d   1      60.422  47.059  50.842  0.00  0.00     0.078 C 
BRANCH   6   7
ATOM      7  S   UNL d   1      60.869  46.788  50.209  0.00  0.00    -0.045 SA
BRANCH   7   8
ATOM      8  C   UNL d   1      61.220  46.035  50.239  0.00  0.00     0.198 A 
ATOM      9  N   UNL d   1      61.743  45.751  49.615  0.00  0.00    -0.183 NA
ATOM     10  C   UNL d   1      62.089  45.002  49.648  0.00  0.00     0.283 A 
ATOM     11  C   UNL d   1      61.928  44.502  50.308  0.00  0.00     0.082 A 
ATOM     12  O   UNL d   1      62.592  44.736  49.044  0.00  0.00    -0.265 OA
ATOM     13  C   UNL d   1      61.418  44.776  50.917  0.00  0.00     0.117 A 
ATOM     14  C   UNL d   1      62.188  43.735  50.495  0.00  0.00     0.013 A 
ATOM     15  N   UNL d   1      61.070  45.528  50.883  0.00  0.00    -0.214 NA
ATOM     16  S   UNL d   1      61.376  44.159  51.475  0.00  0.00    -0.068 SA
ATOM     17  C   UNL d   1      61.854  43.519  51.208  0.00  0.00     0.031 A 
ATOM     18  C   UNL d   1      61.988  42.791  51.570  0.00  0.00     0.006 A 
ATOM     19  C   UNL d   1      62.497  42.244  51.179  0.00  0.00     0.001 A 
ATOM     20  C   UNL d   1      62.839  42.464  50.449  0.00  0.00     0.000 A 
ATOM     21  C   UNL d   1      62.684  43.209  50.107  0.00  0.00     0.001 A 
ENDBRANCH   7   8
ENDBRANCH   6   7
ENDBRANCH   3   6
BRANCH   1  22
ATOM     22  C   UNL d   1      60.430  48.811  51.051  0.00  0.00     0.067 A 
ATOM     23  C   UNL d   1      61.012  49.029  50.502  0.00  0.00     0.018 A 
ATOM     24  C   UNL d   1      61.655  49.472  50.739  0.00  0.00     0.002 A 
ATOM     25  C   UNL d   1      61.733  49.708  51.523  0.00  0.00     0.000 A 
ATOM     26  C   UNL d   1      61.171  49.502  52.070  0.00  0.00     0.002 A 
ATOM     27  C   UNL d   1      60.516  49.051  51.834  0.00  0.00     0.018 A 
ENDBRANCH   1  22
BRANCH   2  28
ATOM     28  S   UNL d   1      58.828  49.477  50.659  0.00  0.00    -0.042 SA
BRANCH  28  29
ATOM     29  C   UNL d   1      58.102  49.707  50.403  0.00  0.00     0.107 C 
BRANCH  29  30
ATOM     30  C   UNL d   1      57.424  49.479  50.806  0.00  0.00     0.307 C 
ATOM     31  O   UNL d   1      56.749  49.267  50.378  0.00  0.00    -0.258 OA
BRANCH  30  32
ATOM     32  O   UNL d   1      57.392  49.453  51.622  0.00  0.00    -0.271 OA
BRANCH  32  33
ATOM     33  C   UNL d   1      56.747  49.708  52.047  0.00  0.00     0.126 C 
ATOM     34  C   UNL d   1      56.033  49.364  52.007  0.00  0.00     0.029 C 
ENDBRANCH  32  33
ENDBRANCH  30  32
ENDBRANCH  29  30
ENDBRANCH  28  29
ENDBRANCH   2  28
TORSDOF 9
ENDMDL
