MODEL 1
REMARK VINA RESULT:       6.1      0.000      0.000
REMARK  5 active torsions:
REMARK  status: ('A' for Active; 'I' for Inactive)
REMARK    1  A    between atoms: C_2  and  C_1 
REMARK    2  A    between atoms: N_5  and  C_2 
REMARK    3  A    between atoms: C_9  and  C_4 
REMARK    4  A    between atoms: C_21  and  N_10 
REMARK    5  A    between atoms: C_18  and  C_21 
ROOT
ATOM      1  N   UNL d   1     -42.258-122.686 -46.675  0.00  0.00    -0.191 NA
ATOM      2  C   UNL d   1     -42.091-123.187 -47.303  0.00  0.00     0.103 C 
ATOM      3  C   UNL d   1     -41.930-123.690 -47.942  0.00  0.00     0.097 C 
ENDROOT
BRANCH   3   4
ATOM      4  C   UNL d   1     -42.418-123.683 -48.599  0.00  0.00     0.091 C 
BRANCH   4   5
ATOM      5  N   UNL d   1     -42.177-123.286 -49.283  0.00  0.00    -0.299 N 
ATOM      6  C   UNL d   1     -42.642-122.678 -49.598  0.00  0.00     0.100 A 
ATOM      7  C   UNL d   1     -42.408-122.280 -50.276  0.00  0.00     0.100 A 
ATOM      8  N   UNL d   1     -41.700-122.491 -50.646  0.00  0.00    -0.291 N 
ATOM      9  C   UNL d   1     -41.230-123.094 -50.344  0.00  0.00     0.100 A 
ATOM     10  C   UNL d   1     -41.469-123.494 -49.658  0.00  0.00     0.100 A 
BRANCH   8  11
ATOM     11  C   UNL d   1     -41.465-122.091 -51.329  0.00  0.00     0.143 C 
ATOM     12  S   UNL d   1     -41.234-121.301 -51.290  0.00  0.00    -0.057 SA
BRANCH  11  13
ATOM     13  C   UNL d   1     -41.462-122.488 -52.061  0.00  0.00     0.126 A 
ATOM     14  O   UNL d   1     -41.800-122.207 -52.764  0.00  0.00    -0.305 OA
ATOM     15  C   UNL d   1     -41.669-122.773 -53.348  0.00  0.00     0.100 A 
ATOM     16  C   UNL d   1     -41.248-123.405 -53.008  0.00  0.00     0.027 A 
ATOM     17  C   UNL d   1     -41.123-123.225 -52.214  0.00  0.00     0.029 A 
BRANCH  15  18
ATOM     18  C   UNL d   1     -41.909-122.727 -54.133  0.00  0.00     0.024 A 
ATOM     19  C   UNL d   1     -41.944-121.992 -54.504  0.00  0.00     0.013 A 
ATOM     20  C   UNL d   1     -42.184-121.932 -55.294  0.00  0.00     0.058 A 
ATOM     21 CL   UNL d   1     -42.220-121.194 -55.668  0.00  0.00    -0.082 Cl
ATOM     22  C   UNL d   1     -42.390-122.623 -55.712  0.00  0.00     0.011 A 
ATOM     23  C   UNL d   1     -42.352-123.357 -55.333  0.00  0.00     0.001 A 
ATOM     24  C   UNL d   1     -42.113-123.410 -54.547  0.00  0.00     0.002 A 
ENDBRANCH  15  18
ENDBRANCH  11  13
ENDBRANCH   8  11
ENDBRANCH   4   5
ENDBRANCH   3   4
TORSDOF 5
ENDMDL
