MODEL 1
REMARK VINA RESULT:      17.0      0.000      0.000
REMARK  4 active torsions:
REMARK  status: ('A' for Active; 'I' for Inactive)
REMARK    1  A    between atoms: C_7  and  C_1 
REMARK    2  A    between atoms: N_6  and  C_3 
REMARK       I    between atoms: C_8  and  N_6 
REMARK    3  A    between atoms: C_12  and  C_8 
REMARK    4  A    between atoms: C_15  and  C_12 
ROOT
ATOM      1  C   UNL d   1      46.116 -17.709  43.796  0.00  0.00     0.206 A 
ATOM      2  O   UNL d   1      46.647 -17.116  44.007  0.00  0.00    -0.253 OA
ATOM      3  C   UNL d   1      46.231 -16.537  44.457  0.00  0.00     0.297 A 
ATOM      4  N   UNL d   1      45.367 -17.505  44.112  0.00  0.00    -0.119 NA
ATOM      5  N   UNL d   1      45.449 -16.787  44.514  0.00  0.00    -0.101 NA
ENDROOT
BRANCH   3   6
ATOM      6  N   UNL d   1      46.550 -15.868  44.768  0.00  0.00    -0.165 NA
ATOM      7  C   UNL d   1      46.185 -15.148  44.630  0.00  0.00     0.282 C 
ATOM      8  O   UNL d   1      46.512 -14.452  44.952  0.00  0.00    -0.265 OA
BRANCH   7   9
ATOM      9  C   UNL d   1      45.499 -15.097  44.181  0.00  0.00     0.063 C 
BRANCH   9  10
ATOM     10  C   UNL d   1      45.230 -14.370  43.903  0.00  0.00     0.005 A 
ATOM     11  C   UNL d   1      44.471 -14.098  44.112  0.00  0.00     0.003 A 
ATOM     12  C   UNL d   1      44.212 -13.367  43.829  0.00  0.00     0.030 A 
ATOM     13  C   UNL d   1      44.687 -12.906  43.346  0.00  0.00     0.140 A 
ATOM     14  C   UNL d   1      45.439 -13.176  43.139  0.00  0.00     0.030 A 
ATOM     15  F   UNL d   1      44.427 -12.182  43.067  0.00  0.00    -0.204 F 
ATOM     16  C   UNL d   1      45.715 -13.906  43.415  0.00  0.00     0.003 A 
ENDBRANCH   9  10
ENDBRANCH   7   9
ENDBRANCH   3   6
BRANCH   1  17
ATOM     17  C   UNL d   1      46.288 -18.372  43.360  0.00  0.00     0.043 A 
ATOM     18  C   UNL d   1      46.379 -19.113  43.749  0.00  0.00     0.004 A 
ATOM     19  C   UNL d   1      46.553 -19.789  43.314  0.00  0.00     0.000 A 
ATOM     20  C   UNL d   1      46.293 -19.162  44.561  0.00  0.00     0.000 C 
ATOM     21  C   UNL d   1      46.641 -19.744  42.490  0.00  0.00     0.000 A 
ATOM     22  C   UNL d   1      46.548 -19.003  42.113  0.00  0.00     0.000 A 
ATOM     23  C   UNL d   1      46.372 -18.327  42.561  0.00  0.00     0.004 A 
ATOM     24  C   UNL d   1      46.631 -18.934  41.295  0.00  0.00     0.000 C 
ENDBRANCH   1  17
TORSDOF 4
ENDMDL
MODEL 2
REMARK VINA RESULT:      17.4      1.869      5.046
REMARK  4 active torsions:
REMARK  status: ('A' for Active; 'I' for Inactive)
REMARK    1  A    between atoms: C_7  and  C_1 
REMARK    2  A    between atoms: N_6  and  C_3 
REMARK       I    between atoms: C_8  and  N_6 
REMARK    3  A    between atoms: C_12  and  C_8 
REMARK    4  A    between atoms: C_15  and  C_12 
ROOT
ATOM      1  C   UNL d   1      45.595 -14.374  44.357  0.00  0.00     0.206 A 
ATOM      2  O   UNL d   1      45.038 -14.970  44.471  0.00  0.00    -0.253 OA
ATOM      3  C   UNL d   1      45.437 -15.650  44.770  0.00  0.00     0.297 A 
ATOM      4  N   UNL d   1      46.343 -14.678  44.583  0.00  0.00    -0.119 NA
ATOM      5  N   UNL d   1      46.235 -15.458  44.834  0.00  0.00    -0.101 NA
ENDROOT
BRANCH   3   6
ATOM      6  N   UNL d   1      45.091 -16.352  44.955  0.00  0.00    -0.165 NA
ATOM      7  C   UNL d   1      45.364 -17.039  44.602  0.00  0.00     0.282 C 
ATOM      8  O   UNL d   1      45.008 -17.769  44.791  0.00  0.00    -0.265 OA
BRANCH   7   9
ATOM      9  C   UNL d   1      45.984 -17.024  44.064  0.00  0.00     0.063 C 
BRANCH   9  10
ATOM     10  C   UNL d   1      46.150 -17.679  43.593  0.00  0.00     0.005 A 
ATOM     11  C   UNL d   1      46.480 -18.364  43.933  0.00  0.00     0.003 A 
ATOM     12  C   UNL d   1      46.642 -19.016  43.452  0.00  0.00     0.030 A 
ATOM     13  C   UNL d   1      46.484 -19.000  42.648  0.00  0.00     0.140 A 
ATOM     14  C   UNL d   1      46.156 -18.321  42.312  0.00  0.00     0.030 A 
ATOM     15  F   UNL d   1      46.646 -19.648  42.175  0.00  0.00    -0.204 F 
ATOM     16  C   UNL d   1      45.988 -17.659  42.779  0.00  0.00     0.003 A 
ENDBRANCH   9  10
ENDBRANCH   7   9
ENDBRANCH   3   6
BRANCH   1  17
ATOM     17  C   UNL d   1      45.446 -13.627  44.075  0.00  0.00     0.043 A 
ATOM     18  C   UNL d   1      45.937 -12.987  44.314  0.00  0.00     0.004 A 
ATOM     19  C   UNL d   1      45.792 -12.228  44.033  0.00  0.00     0.000 A 
ATOM     20  C   UNL d   1      46.562 -13.120  44.826  0.00  0.00     0.000 C 
ATOM     21  C   UNL d   1      45.160 -12.089  43.514  0.00  0.00     0.000 A 
ATOM     22  C   UNL d   1      44.677 -12.732  43.283  0.00  0.00     0.000 A 
ATOM     23  C   UNL d   1      44.832 -13.494  43.572  0.00  0.00     0.004 A 
ATOM     24  C   UNL d   1      44.043 -12.618  42.768  0.00  0.00     0.000 C 
ENDBRANCH   1  17
TORSDOF 4
ENDMDL
