MODEL 1
REMARK VINA RESULT:      -3.0      0.000      0.000
REMARK  8 active torsions:
REMARK  status: ('A' for Active; 'I' for Inactive)
REMARK    1  A    between atoms: N_6  and  C_1 
REMARK    2  A    between atoms: N_7  and  C_2 
REMARK       I    between atoms: C_8  and  N_6 
REMARK       I    between atoms: C_9  and  N_7 
REMARK    3  A    between atoms: C_14  and  C_8 
REMARK    4  A    between atoms: C_15  and  C_9 
REMARK    5  A    between atoms: O_12  and  C_14 
REMARK    6  A    between atoms: C_16  and  O_12 
REMARK    7  A    between atoms: O_13  and  C_15 
REMARK    8  A    between atoms: C_17  and  O_13 
ROOT
ATOM      1  C   UNL d   1      32.905  19.437 -22.612  0.00  0.00     0.232 A 
ATOM      2  C   UNL d   1      32.990  18.783 -23.107  0.00  0.00     0.232 A 
ATOM      3  N   UNL d   1      32.649  20.069 -23.093  0.00  0.00    -0.081 NA
ATOM      4  N   UNL d   1      32.796  19.001 -23.864  0.00  0.00    -0.081 NA
ATOM      5  O   UNL d   1      32.587  19.775 -23.871  0.00  0.00    -0.103 OA
ENDROOT
BRANCH   1   6
ATOM      6  N   UNL d   1      33.069  19.366 -21.805  0.00  0.00    -0.182 NA
ATOM      7  C   UNL d   1      33.075  20.044 -21.325  0.00  0.00     0.306 C 
ATOM      8  O   UNL d   1      33.237  19.990 -20.517  0.00  0.00    -0.263 OA
BRANCH   7   9
ATOM      9  C   UNL d   1      32.913  20.788 -21.664  0.00  0.00     0.185 C 
BRANCH   9  10
ATOM     10  O   UNL d   1      33.223  21.474 -21.316  0.00  0.00    -0.300 OA
BRANCH  10  11
ATOM     11  C   UNL d   1      32.813  22.186 -21.364  0.00  0.00     0.100 A 
ATOM     12  C   UNL d   1      32.976  22.701 -21.992  0.00  0.00     0.025 A 
ATOM     13  C   UNL d   1      32.567  23.415 -22.043  0.00  0.00     0.002 A 
ATOM     14  C   UNL d   1      32.005  23.619 -21.482  0.00  0.00     0.000 A 
ATOM     15  C   UNL d   1      31.841  23.103 -20.851  0.00  0.00     0.002 A 
ATOM     16  C   UNL d   1      32.251  22.379 -20.794  0.00  0.00     0.025 A 
ENDBRANCH  10  11
ENDBRANCH   9  10
ENDBRANCH   7   9
ENDBRANCH   1   6
BRANCH   2  17
ATOM     17  N   UNL d   1      33.241  18.016 -22.858  0.00  0.00    -0.182 NA
ATOM     18  C   UNL d   1      32.829  17.339 -23.095  0.00  0.00     0.306 C 
ATOM     19  O   UNL d   1      33.082  16.605 -22.847  0.00  0.00    -0.263 OA
BRANCH  18  20
ATOM     20  C   UNL d   1      32.154  17.418 -23.590  0.00  0.00     0.185 C 
BRANCH  20  21
ATOM     21  O   UNL d   1      31.840  16.767 -23.979  0.00  0.00    -0.300 OA
BRANCH  21  22
ATOM     22  C   UNL d   1      31.036  16.760 -24.172  0.00  0.00     0.100 A 
ATOM     23  C   UNL d   1      30.466  16.465 -23.660  0.00  0.00     0.025 A 
ATOM     24  C   UNL d   1      29.663  16.443 -23.818  0.00  0.00     0.002 A 
ATOM     25  C   UNL d   1      29.435  16.750 -24.566  0.00  0.00     0.000 A 
ATOM     26  C   UNL d   1      29.997  17.048 -25.087  0.00  0.00     0.002 A 
ATOM     27  C   UNL d   1      30.799  17.058 -24.901  0.00  0.00     0.025 A 
ENDBRANCH  21  22
ENDBRANCH  20  21
ENDBRANCH  18  20
ENDBRANCH   2  17
TORSDOF 8
ENDMDL
MODEL 2
REMARK VINA RESULT:      -1.6      1.342      5.894
REMARK  8 active torsions:
REMARK  status: ('A' for Active; 'I' for Inactive)
REMARK    1  A    between atoms: N_6  and  C_1 
REMARK    2  A    between atoms: N_7  and  C_2 
REMARK       I    between atoms: C_8  and  N_6 
REMARK       I    between atoms: C_9  and  N_7 
REMARK    3  A    between atoms: C_14  and  C_8 
REMARK    4  A    between atoms: C_15  and  C_9 
REMARK    5  A    between atoms: O_12  and  C_14 
REMARK    6  A    between atoms: C_16  and  O_12 
REMARK    7  A    between atoms: O_13  and  C_15 
REMARK    8  A    between atoms: C_17  and  O_13 
ROOT
ATOM      1  C   UNL d   1      33.103  20.240 -22.739  0.00  0.00     0.232 A 
ATOM      2  C   UNL d   1      32.968  20.904 -22.269  0.00  0.00     0.232 A 
ATOM      3  N   UNL d   1      33.088  19.580 -22.229  0.00  0.00    -0.081 NA
ATOM      4  N   UNL d   1      32.874  20.665 -21.499  0.00  0.00    -0.081 NA
ATOM      5  O   UNL d   1      32.944  19.867 -21.460  0.00  0.00    -0.103 OA
ENDROOT
BRANCH   1   6
ATOM      6  N   UNL d   1      33.218  20.330 -23.552  0.00  0.00    -0.182 NA
ATOM      7  C   UNL d   1      33.126  19.675 -24.055  0.00  0.00     0.306 C 
ATOM      8  O   UNL d   1      33.237  19.746 -24.871  0.00  0.00    -0.263 OA
BRANCH   7   9
ATOM      9  C   UNL d   1      32.918  18.934 -23.731  0.00  0.00     0.185 C 
BRANCH   9  10
ATOM     10  O   UNL d   1      32.885  18.267 -24.222  0.00  0.00    -0.300 OA
BRANCH  10  11
ATOM     11  C   UNL d   1      32.596  17.552 -23.932  0.00  0.00     0.100 A 
ATOM     12  C   UNL d   1      31.781  17.408 -23.959  0.00  0.00     0.025 A 
ATOM     13  C   UNL d   1      31.489  16.694 -23.669  0.00  0.00     0.002 A 
ATOM     14  C   UNL d   1      31.994  16.129 -23.357  0.00  0.00     0.000 A 
ATOM     15  C   UNL d   1      32.813  16.272 -23.330  0.00  0.00     0.002 A 
ATOM     16  C   UNL d   1      33.114  16.992 -23.621  0.00  0.00     0.025 A 
ENDBRANCH  10  11
ENDBRANCH   9  10
ENDBRANCH   7   9
ENDBRANCH   1   6
BRANCH   2  17
ATOM     17  N   UNL d   1      32.935  21.699 -22.551  0.00  0.00    -0.182 NA
ATOM     18  C   UNL d   1      32.820  22.329 -22.028  0.00  0.00     0.306 C 
ATOM     19  O   UNL d   1      32.791  23.092 -22.314  0.00  0.00    -0.263 OA
BRANCH  18  20
ATOM     20  C   UNL d   1      32.735  22.174 -21.206  0.00  0.00     0.185 C 
BRANCH  20  21
ATOM     21  O   UNL d   1      32.337  22.700 -20.717  0.00  0.00    -0.300 OA
BRANCH  21  22
ATOM     22  C   UNL d   1      32.607  22.819 -19.945  0.00  0.00     0.100 A 
ATOM     23  C   UNL d   1      32.533  22.245 -19.362  0.00  0.00     0.025 A 
ATOM     24  C   UNL d   1      32.789  22.329 -18.590  0.00  0.00     0.002 A 
ATOM     25  C   UNL d   1      33.148  23.066 -18.407  0.00  0.00     0.000 A 
ATOM     26  C   UNL d   1      33.227  23.649 -18.982  0.00  0.00     0.002 A 
ATOM     27  C   UNL d   1      32.961  23.537 -19.753  0.00  0.00     0.025 A 
ENDBRANCH  21  22
ENDBRANCH  20  21
ENDBRANCH  18  20
ENDBRANCH   2  17
TORSDOF 8
ENDMDL
MODEL 3
REMARK VINA RESULT:      -1.6      1.068      1.706
REMARK  8 active torsions:
REMARK  status: ('A' for Active; 'I' for Inactive)
REMARK    1  A    between atoms: N_6  and  C_1 
REMARK    2  A    between atoms: N_7  and  C_2 
REMARK       I    between atoms: C_8  and  N_6 
REMARK       I    between atoms: C_9  and  N_7 
REMARK    3  A    between atoms: C_14  and  C_8 
REMARK    4  A    between atoms: C_15  and  C_9 
REMARK    5  A    between atoms: O_12  and  C_14 
REMARK    6  A    between atoms: C_16  and  O_12 
REMARK    7  A    between atoms: O_13  and  C_15 
REMARK    8  A    between atoms: C_17  and  O_13 
ROOT
ATOM      1  C   UNL d   1      32.996  19.895 -22.542  0.00  0.00     0.232 A 
ATOM      2  C   UNL d   1      33.137  19.217 -22.990  0.00  0.00     0.232 A 
ATOM      3  N   UNL d   1      32.932  19.647 -21.748  0.00  0.00    -0.081 NA
ATOM      4  N   UNL d   1      33.159  18.575 -22.494  0.00  0.00    -0.081 NA
ATOM      5  O   UNL d   1      33.036  18.820 -21.740  0.00  0.00    -0.103 OA
ENDROOT
BRANCH   1   6
ATOM      6  N   UNL d   1      32.948  20.630 -22.915  0.00  0.00    -0.182 NA
ATOM      7  C   UNL d   1      32.893  21.321 -22.457  0.00  0.00     0.306 C 
ATOM      8  O   UNL d   1      32.843  22.065 -22.814  0.00  0.00    -0.263 OA
BRANCH   7   9
ATOM      9  C   UNL d   1      32.887  21.262 -21.625  0.00  0.00     0.185 C 
BRANCH   9  10
ATOM     10  O   UNL d   1      32.379  21.747 -21.183  0.00  0.00    -0.300 OA
BRANCH  10  11
ATOM     11  C   UNL d   1      32.665  22.166 -20.534  0.00  0.00     0.100 A 
ATOM     12  C   UNL d   1      32.759  22.987 -20.597  0.00  0.00     0.025 A 
ATOM     13  C   UNL d   1      33.045  23.409 -19.949  0.00  0.00     0.002 A 
ATOM     14  C   UNL d   1      33.236  23.027 -19.249  0.00  0.00     0.000 A 
ATOM     15  C   UNL d   1      33.142  22.203 -19.185  0.00  0.00     0.002 A 
ATOM     16  C   UNL d   1      32.853  21.771 -19.837  0.00  0.00     0.025 A 
ENDBRANCH  10  11
ENDBRANCH   9  10
ENDBRANCH   7   9
ENDBRANCH   1   6
BRANCH   2  17
ATOM     17  N   UNL d   1      33.241  19.202 -23.828  0.00  0.00    -0.182 NA
ATOM     18  C   UNL d   1      32.875  18.621 -24.289  0.00  0.00     0.306 C 
ATOM     19  O   UNL d   1      32.984  18.619 -25.097  0.00  0.00    -0.263 OA
BRANCH  18  20
ATOM     20  C   UNL d   1      32.395  18.040 -23.918  0.00  0.00     0.185 C 
BRANCH  20  21
ATOM     21  O   UNL d   1      31.975  17.493 -24.363  0.00  0.00    -0.300 OA
BRANCH  21  22
ATOM     22  C   UNL d   1      31.477  16.955 -23.981  0.00  0.00     0.100 A 
ATOM     23  C   UNL d   1      30.667  17.074 -23.921  0.00  0.00     0.025 A 
ATOM     24  C   UNL d   1      30.147  16.563 -23.550  0.00  0.00     0.002 A 
ATOM     25  C   UNL d   1      30.494  15.875 -23.215  0.00  0.00     0.000 A 
ATOM     26  C   UNL d   1      31.304  15.746 -23.269  0.00  0.00     0.002 A 
ATOM     27  C   UNL d   1      31.805  16.277 -23.648  0.00  0.00     0.025 A 
ENDBRANCH  21  22
ENDBRANCH  20  21
ENDBRANCH  18  20
ENDBRANCH   2  17
TORSDOF 8
ENDMDL
