MODEL 1
REMARK VINA RESULT:      37.7      0.000      0.000
REMARK  2 active torsions:
REMARK  status: ('A' for Active; 'I' for Inactive)
REMARK    1  A    between atoms: C_10  and  N_3 
REMARK    2  A    between atoms: C_11  and  C_4 
ROOT
ATOM      1  C   UNL d   1      13.916  13.521  -3.229  0.00  0.00     0.154 A 
ATOM      2  C   UNL d   1      14.129  13.381  -2.451  0.00  0.00     0.094 A 
ATOM      3  N   UNL d   1      13.668  12.805  -3.560  0.00  0.00    -0.290 N 
ATOM      4  C   UNL d   1      14.015  12.577  -2.294  0.00  0.00     0.025 A 
ATOM      5  C   UNL d   1      13.731  12.227  -2.978  0.00  0.00     0.082 A 
ATOM      6  N   UNL d   1      13.971  14.281  -3.546  0.00  0.00    -0.206 NA
ATOM      7  C   UNL d   1      14.401  13.998  -1.975  0.00  0.00     0.284 A 
ATOM      8  N   UNL d   1      14.457  14.759  -2.293  0.00  0.00    -0.186 NA
ATOM      9  C   UNL d   1      14.244  14.899  -3.071  0.00  0.00     0.203 A 
ATOM     10  O   UNL d   1      14.615  13.858  -1.197  0.00  0.00    -0.265 OA
ENDROOT
BRANCH   3  11
ATOM     11  C   UNL d   1      13.403  12.654  -4.316  0.00  0.00     0.065 A 
ATOM     12  C   UNL d   1      13.039  11.935  -4.490  0.00  0.00     0.018 A 
ATOM     13  C   UNL d   1      12.770  11.780  -5.255  0.00  0.00     0.002 A 
ATOM     14  C   UNL d   1      12.865  12.352  -5.856  0.00  0.00     0.000 A 
ATOM     15  C   UNL d   1      13.230  13.070  -5.672  0.00  0.00     0.002 A 
ATOM     16  C   UNL d   1      13.497  13.220  -4.907  0.00  0.00     0.018 A 
ENDBRANCH   3  11
BRANCH   4  17
ATOM     17  C   UNL d   1      14.197  12.311  -1.534  0.00  0.00     0.002 A 
ATOM     18  C   UNL d   1      13.592  12.165  -0.989  0.00  0.00     0.000 A 
ATOM     19  C   UNL d   1      13.775  11.899  -0.230  0.00  0.00     0.000 A 
ATOM     20  C   UNL d   1      14.560  11.779  -0.015  0.00  0.00     0.000 A 
ATOM     21  C   UNL d   1      15.165  11.925  -0.560  0.00  0.00     0.000 A 
ATOM     22  C   UNL d   1      14.984  12.190  -1.315  0.00  0.00     0.000 A 
ENDBRANCH   4  17
TORSDOF 2
ENDMDL
MODEL 2
REMARK VINA RESULT:      40.1      1.360      3.898
REMARK  2 active torsions:
REMARK  status: ('A' for Active; 'I' for Inactive)
REMARK    1  A    between atoms: C_10  and  N_3 
REMARK    2  A    between atoms: C_11  and  C_4 
ROOT
ATOM      1  C   UNL d   1      13.506  12.669  -3.197  0.00  0.00     0.154 A 
ATOM      2  C   UNL d   1      13.412  13.285  -3.729  0.00  0.00     0.094 A 
ATOM      3  N   UNL d   1      13.881  12.967  -2.523  0.00  0.00    -0.290 N 
ATOM      4  C   UNL d   1      13.729  13.969  -3.389  0.00  0.00     0.025 A 
ATOM      5  C   UNL d   1      14.016  13.769  -2.648  0.00  0.00     0.082 A 
ATOM      6  N   UNL d   1      13.240  11.911  -3.386  0.00  0.00    -0.206 NA
ATOM      7  C   UNL d   1      13.050  13.154  -4.459  0.00  0.00     0.284 A 
ATOM      8  N   UNL d   1      12.784  12.396  -4.649  0.00  0.00    -0.186 NA
ATOM      9  C   UNL d   1      12.878  11.780  -4.117  0.00  0.00     0.203 A 
ATOM     10  O   UNL d   1      12.957  13.770  -4.991  0.00  0.00    -0.265 OA
ENDROOT
BRANCH   3  11
ATOM     11  C   UNL d   1      14.097  12.576  -1.842  0.00  0.00     0.065 A 
ATOM     12  C   UNL d   1      14.887  12.557  -1.609  0.00  0.00     0.018 A 
ATOM     13  C   UNL d   1      15.107  12.162  -0.918  0.00  0.00     0.002 A 
ATOM     14  C   UNL d   1      14.529  11.779  -0.452  0.00  0.00     0.000 A 
ATOM     15  C   UNL d   1      13.739  11.804  -0.694  0.00  0.00     0.002 A 
ATOM     16  C   UNL d   1      13.524  12.199  -1.384  0.00  0.00     0.018 A 
ENDBRANCH   3  11
BRANCH   4  17
ATOM     17  C   UNL d   1      13.693  14.663  -3.834  0.00  0.00     0.002 A 
ATOM     18  C   UNL d   1      12.965  14.946  -4.103  0.00  0.00     0.000 A 
ATOM     19  C   UNL d   1      12.929  15.641  -4.548  0.00  0.00     0.000 A 
ATOM     20  C   UNL d   1      13.621  16.052  -4.722  0.00  0.00     0.000 A 
ATOM     21  C   UNL d   1      14.350  15.768  -4.452  0.00  0.00     0.000 A 
ATOM     22  C   UNL d   1      14.385  15.078  -4.010  0.00  0.00     0.000 A 
ENDBRANCH   4  17
TORSDOF 2
ENDMDL
