MODEL 1
REMARK VINA RESULT:      82.2      0.000      0.000
REMARK  3 active torsions:
REMARK  status: ('A' for Active; 'I' for Inactive)
REMARK    1  A    between atoms: C_5  and  C_1 
REMARK    2  A    between atoms: N_6  and  C_5 
REMARK    3  A    between atoms: C_8  and  C_5 
ROOT
ATOM      1  C   UNL d   1     -55.551-100.808 -44.006  0.00  0.00     0.083 C 
ENDROOT
BRANCH   1   2
ATOM      2  C   UNL d   1     -55.926-100.077 -44.238  0.00  0.00     0.037 A 
ATOM      3  C   UNL d   1     -55.535 -99.431 -44.586  0.00  0.00     0.083 A 
ATOM      4  N   UNL d   1     -56.091 -98.851 -44.720  0.00  0.00    -0.245 NA
ATOM      5  C   UNL d   1     -54.714 -99.391 -44.765  0.00  0.00     0.021 C 
ATOM      6  C   UNL d   1     -56.828 -99.115 -44.463  0.00  0.00     0.081 A 
ATOM      7  C   UNL d   1     -56.723 -99.892 -44.158  0.00  0.00     0.021 A 
ATOM      8  C   UNL d   1     -57.571 -98.768 -44.461  0.00  0.00     0.019 A 
ATOM      9  C   UNL d   1     -57.364-100.303 -43.859  0.00  0.00     0.002 A 
ATOM     10  C   UNL d   1     -58.127 -99.947 -43.857  0.00  0.00     0.000 A 
ATOM     11  C   UNL d   1     -58.228 -99.202 -44.150  0.00  0.00     0.002 A 
ENDBRANCH   1   2
BRANCH   1  12
ATOM     12  N   UNL d   1     -55.344-100.948 -43.210  0.00  0.00    -0.302 N 
ATOM     13  C   UNL d   1     -54.979-100.352 -42.770  0.00  0.00     0.080 A 
ATOM     14  C   UNL d   1     -54.777-100.496 -41.985  0.00  0.00     0.019 A 
ATOM     15  C   UNL d   1     -54.938-101.228 -41.639  0.00  0.00     0.003 A 
ATOM     16  C   UNL d   1     -55.302-101.823 -42.074  0.00  0.00     0.019 A 
ATOM     17  C   UNL d   1     -54.731-101.368 -40.843  0.00  0.00     0.000 C 
ATOM     18  C   UNL d   1     -55.504-101.679 -42.860  0.00  0.00     0.080 A 
ENDBRANCH   1  12
BRANCH   1  19
ATOM     19  C   UNL d   1     -55.389-101.397 -44.594  0.00  0.00     0.098 A 
ATOM     20  N   UNL d   1     -55.747-102.137 -44.550  0.00  0.00    -0.243 NA
ATOM     21  C   UNL d   1     -55.595-102.711 -45.115  0.00  0.00     0.099 A 
ATOM     22  C   UNL d   1     -55.077-102.540 -45.732  0.00  0.00     0.021 A 
ATOM     23  C   UNL d   1     -54.718-101.799 -45.779  0.00  0.00     0.003 A 
ATOM     24  C   UNL d   1     -54.867-101.207 -45.207  0.00  0.00     0.021 A 
ENDBRANCH   1  19
TORSDOF 3
ENDMDL
