MODEL 1
REMARK VINA RESULT:      -3.6      0.000      0.000
REMARK  7 active torsions:
REMARK  status: ('A' for Active; 'I' for Inactive)
REMARK    1  A    between atoms: C_6  and  N_2 
REMARK    2  A    between atoms: C_7  and  C_3 
REMARK    3  A    between atoms: C_8  and  C_6 
REMARK    4  A    between atoms: O_13  and  C_7 
REMARK    5  A    between atoms: C_14  and  C_8 
REMARK    6  A    between atoms: C_9  and  O_12 
REMARK    7  A    between atoms: O_12  and  C_14 
ROOT
ATOM      1  N   UNL d   1     -41.440-121.707 -53.546  0.00  0.00    -0.225 NA
ATOM      2  N   UNL d   1     -41.288-122.904 -52.908  0.00  0.00    -0.287 N 
ATOM      3  C   UNL d   1     -41.262-122.066 -52.805  0.00  0.00     0.172 A 
ATOM      4  C   UNL d   1     -41.480-123.068 -53.701  0.00  0.00     0.083 A 
ATOM      5  C   UNL d   1     -41.574-122.329 -54.096  0.00  0.00     0.099 A 
ATOM      6  C   UNL d   1     -41.582-123.773 -54.122  0.00  0.00     0.019 A 
ATOM      7  C   UNL d   1     -41.768-122.311 -54.902  0.00  0.00     0.021 A 
ATOM      8  C   UNL d   1     -41.778-123.749 -54.933  0.00  0.00     0.002 A 
ATOM      9  C   UNL d   1     -41.870-123.021 -55.322  0.00  0.00     0.002 A 
ENDROOT
BRANCH   2  10
ATOM     10  C   UNL d   1     -41.123-123.330 -52.218  0.00  0.00     0.084 C 
BRANCH  10  11
ATOM     11  C   UNL d   1     -41.734-123.725 -51.829  0.00  0.00     0.046 C 
BRANCH  11  12
ATOM     12  C   UNL d   1     -41.708-123.817 -51.020  0.00  0.00     0.124 C 
BRANCH  12  13
ATOM     13  O   UNL d   1     -42.400-123.749 -50.582  0.00  0.00    -0.305 OA
BRANCH  13  14
ATOM     14  C   UNL d   1     -42.366-123.502 -49.798  0.00  0.00     0.100 A 
ATOM     15  C   UNL d   1     -41.755-123.752 -49.322  0.00  0.00     0.025 A 
ATOM     16  C   UNL d   1     -41.720-123.509 -48.549  0.00  0.00     0.002 A 
ATOM     17  C   UNL d   1     -42.306-123.006 -48.242  0.00  0.00     0.000 A 
ATOM     18  C   UNL d   1     -42.918-122.761 -48.732  0.00  0.00     0.002 A 
ATOM     19  C   UNL d   1     -42.944-123.011 -49.509  0.00  0.00     0.025 A 
ENDBRANCH  13  14
ENDBRANCH  12  13
ENDBRANCH  11  12
ENDBRANCH  10  11
ENDBRANCH   2  10
BRANCH   3  20
ATOM     20  C   UNL d   1     -41.123-121.629 -52.230  0.00  0.00     0.154 C 
BRANCH  20  21
ATOM     21  O   UNL d   1     -41.150-120.810 -52.237  0.00  0.00    -0.323 OA
ATOM     22  C   UNL d   1     -41.159-120.238 -51.640  0.00  0.00     0.182 C 
ENDBRANCH  20  21
ENDBRANCH   3  20
TORSDOF 7
ENDMDL
MODEL 2
REMARK VINA RESULT:      -2.2      1.535      4.723
REMARK  7 active torsions:
REMARK  status: ('A' for Active; 'I' for Inactive)
REMARK    1  A    between atoms: C_6  and  N_2 
REMARK    2  A    between atoms: C_7  and  C_3 
REMARK    3  A    between atoms: C_8  and  C_6 
REMARK    4  A    between atoms: O_13  and  C_7 
REMARK    5  A    between atoms: C_14  and  C_8 
REMARK    6  A    between atoms: C_9  and  O_12 
REMARK    7  A    between atoms: O_12  and  C_14 
ROOT
ATOM      1  N   UNL d   1     -43.051-122.641 -49.276  0.00  0.00    -0.225 NA
ATOM      2  N   UNL d   1     -41.927-122.819 -50.031  0.00  0.00    -0.287 N 
ATOM      3  C   UNL d   1     -42.710-122.502 -50.035  0.00  0.00     0.172 A 
ATOM      4  C   UNL d   1     -41.779-123.153 -49.283  0.00  0.00     0.083 A 
ATOM      5  C   UNL d   1     -42.473-123.043 -48.816  0.00  0.00     0.099 A 
ATOM      6  C   UNL d   1     -41.123-123.537 -48.957  0.00  0.00     0.019 A 
ATOM      7  C   UNL d   1     -42.495-123.320 -48.035  0.00  0.00     0.021 A 
ATOM      8  C   UNL d   1     -41.150-123.814 -48.170  0.00  0.00     0.002 A 
ATOM      9  C   UNL d   1     -41.834-123.706 -47.710  0.00  0.00     0.002 A 
ENDROOT
BRANCH   2  10
ATOM     10  C   UNL d   1     -41.524-122.720 -50.748  0.00  0.00     0.084 C 
BRANCH  10  11
ATOM     11  C   UNL d   1     -41.518-123.335 -51.297  0.00  0.00     0.046 C 
BRANCH  11  12
ATOM     12  C   UNL d   1     -41.164-123.227 -52.023  0.00  0.00     0.124 C 
BRANCH  12  13
ATOM     13  O   UNL d   1     -41.440-123.642 -52.675  0.00  0.00    -0.305 OA
BRANCH  13  14
ATOM     14  C   UNL d   1     -41.363-123.321 -53.429  0.00  0.00     0.100 A 
ATOM     15  C   UNL d   1     -41.320-122.513 -53.520  0.00  0.00     0.025 A 
ATOM     16  C   UNL d   1     -41.244-122.194 -54.262  0.00  0.00     0.002 A 
ATOM     17  C   UNL d   1     -41.210-122.690 -54.928  0.00  0.00     0.000 A 
ATOM     18  C   UNL d   1     -41.254-123.503 -54.824  0.00  0.00     0.002 A 
ATOM     19  C   UNL d   1     -41.331-123.814 -54.072  0.00  0.00     0.025 A 
ENDBRANCH  13  14
ENDBRANCH  12  13
ENDBRANCH  11  12
ENDBRANCH  10  11
ENDBRANCH   2  10
BRANCH   3  20
ATOM     20  C   UNL d   1     -43.114-122.154 -50.540  0.00  0.00     0.154 C 
BRANCH  20  21
ATOM     21  O   UNL d   1     -43.896-121.926 -50.450  0.00  0.00    -0.323 OA
ATOM     22  C   UNL d   1     -44.481-121.681 -50.981  0.00  0.00     0.182 C 
ENDBRANCH  20  21
ENDBRANCH   3  20
TORSDOF 7
ENDMDL
