MODEL 1
REMARK VINA RESULT:      39.5      0.000      0.000
REMARK  3 active torsions:
REMARK  status: ('A' for Active; 'I' for Inactive)
REMARK    1  A    between atoms: C_3  and  C_1 
REMARK    2  A    between atoms: C_8  and  C_3 
REMARK    3  A    between atoms: C_10  and  C_4 
ROOT
ATOM      1  C   UNL d   1     -55.861 -99.710 -44.419  0.00  0.00     0.092 C 
ATOM      2  C   UNL d   1     -55.283 -99.303 -44.842  0.00  0.00     0.103 C 
ATOM      3  N   UNL d   1     -54.712 -98.870 -45.280  0.00  0.00    -0.191 NA
ENDROOT
BRANCH   1   4
ATOM      4  C   UNL d   1     -56.638 -99.399 -44.384  0.00  0.00     0.120 A 
ATOM      5  N   UNL d   1     -57.173 -99.450 -43.736  0.00  0.00    -0.238 NA
ATOM      6  C   UNL d   1     -57.876 -99.064 -43.950  0.00  0.00     0.088 A 
ATOM      7  C   UNL d   1     -57.767 -98.783 -44.718  0.00  0.00     0.056 A 
ATOM      8  S   UNL d   1     -57.015 -98.997 -44.958  0.00  0.00    -0.065 SA
BRANCH   6   9
ATOM      9  C   UNL d   1     -58.556 -98.990 -43.453  0.00  0.00     0.018 A 
ATOM     10  C   UNL d   1     -59.292 -98.832 -43.803  0.00  0.00     0.002 A 
ATOM     11  C   UNL d   1     -59.960 -98.758 -43.326  0.00  0.00     0.000 A 
ATOM     12  C   UNL d   1     -59.906 -98.842 -42.478  0.00  0.00     0.000 A 
ATOM     13  C   UNL d   1     -59.168 -98.999 -42.142  0.00  0.00     0.000 A 
ATOM     14  C   UNL d   1     -58.486 -99.073 -42.640  0.00  0.00     0.002 A 
ENDBRANCH   6   9
ENDBRANCH   1   4
BRANCH   1  15
ATOM     15  C   UNL d   1     -55.655-100.410 -44.044  0.00  0.00     0.012 A 
ATOM     16  C   UNL d   1     -56.034-101.145 -43.935  0.00  0.00     0.001 A 
ATOM     17  C   UNL d   1     -55.538-101.632 -43.505  0.00  0.00     0.000 A 
ATOM     18  C   UNL d   1     -54.860-101.212 -43.345  0.00  0.00     0.000 A 
ATOM     19  C   UNL d   1     -54.925-100.463 -43.672  0.00  0.00     0.001 A 
ENDBRANCH   1  15
TORSDOF 3
ENDMDL
MODEL 2
REMARK VINA RESULT:      42.3      3.005      4.297
REMARK  3 active torsions:
REMARK  status: ('A' for Active; 'I' for Inactive)
REMARK    1  A    between atoms: C_3  and  C_1 
REMARK    2  A    between atoms: C_8  and  C_3 
REMARK    3  A    between atoms: C_10  and  C_4 
ROOT
ATOM      1  C   UNL d   1     -55.065-101.179 -44.090  0.00  0.00     0.092 C 
ATOM      2  C   UNL d   1     -55.231-101.516 -44.824  0.00  0.00     0.103 C 
ATOM      3  N   UNL d   1     -55.398-101.882 -45.561  0.00  0.00    -0.191 NA
ENDROOT
BRANCH   1   4
ATOM      4  C   UNL d   1     -54.948-101.679 -43.428  0.00  0.00     0.120 A 
ATOM      5  N   UNL d   1     -54.958-101.453 -42.617  0.00  0.00    -0.238 NA
ATOM      6  C   UNL d   1     -54.816-102.130 -42.159  0.00  0.00     0.088 A 
ATOM      7  C   UNL d   1     -54.721-102.758 -42.685  0.00  0.00     0.056 A 
ATOM      8  S   UNL d   1     -54.805-102.461 -43.443  0.00  0.00    -0.065 SA
BRANCH   6   9
ATOM      9  C   UNL d   1     -54.781-102.141 -41.313  0.00  0.00     0.018 A 
ATOM     10  C   UNL d   1     -54.746-101.419 -40.905  0.00  0.00     0.002 A 
ATOM     11  C   UNL d   1     -54.711-101.421 -40.081  0.00  0.00     0.000 A 
ATOM     12  C   UNL d   1     -54.712-102.153 -39.643  0.00  0.00     0.000 A 
ATOM     13  C   UNL d   1     -54.748-102.865 -40.062  0.00  0.00     0.000 A 
ATOM     14  C   UNL d   1     -54.782-102.854 -40.908  0.00  0.00     0.002 A 
ENDBRANCH   6   9
ENDBRANCH   1   4
BRANCH   1  15
ATOM     15  C   UNL d   1     -55.021-100.362 -44.032  0.00  0.00     0.012 A 
ATOM     16  C   UNL d   1     -54.713 -99.835 -43.463  0.00  0.00     0.001 A 
ATOM     17  C   UNL d   1     -54.837 -99.071 -43.724  0.00  0.00     0.000 A 
ATOM     18  C   UNL d   1     -55.216 -99.115 -44.442  0.00  0.00     0.000 A 
ATOM     19  C   UNL d   1     -55.331 -99.902 -44.637  0.00  0.00     0.001 A 
ENDBRANCH   1  15
TORSDOF 3
ENDMDL
