MODEL 1
REMARK VINA RESULT:      90.2      0.000      0.000
REMARK  5 active torsions:
REMARK  status: ('A' for Active; 'I' for Inactive)
REMARK    1  A    between atoms: N_2  and  S_1 
REMARK    2  A    between atoms: C_11  and  S_1 
REMARK    3  A    between atoms: C_3  and  N_9 
REMARK    4  A    between atoms: N_9  and  N_16 
REMARK    5  A    between atoms: N_16  and  C_23 
ROOT
ATOM      1  C   UNL d   1     -57.217 -99.581 -45.015  0.00  0.00     0.104 A 
ATOM      2  C   UNL d   1     -57.137 -99.611 -44.188  0.00  0.00     0.015 A 
ATOM      3  C   UNL d   1     -56.560 -99.757 -45.483  0.00  0.00     0.015 A 
ATOM      4  C   UNL d   1     -55.778 -99.983 -44.312  0.00  0.00     0.103 A 
ATOM      5  C   UNL d   1     -55.852 -99.954 -45.141  0.00  0.00     0.022 A 
ATOM      6  C   UNL d   1     -56.427 -99.809 -43.841  0.00  0.00     0.022 A 
ENDROOT
BRANCH   1   7
ATOM      7  S   UNL d   1     -57.932 -99.381 -45.373  0.00  0.00     0.271 S 
ATOM      8  O   UNL d   1     -57.547 -98.771 -45.783  0.00  0.00    -0.200 OA
ATOM      9  O   UNL d   1     -58.311 -99.976 -44.975  0.00  0.00    -0.200 OA
BRANCH   7  10
ATOM     10  N   UNL d   1     -58.651 -99.174 -45.739  0.00  0.00    -0.231 N 
ATOM     11  C   UNL d   1     -58.823 -99.140 -46.557  0.00  0.00     0.075 A 
ATOM     12  C   UNL d   1     -59.609 -98.908 -46.651  0.00  0.00     0.018 A 
ATOM     13  C   UNL d   1     -58.343 -99.298 -47.213  0.00  0.00     0.018 A 
ATOM     14  C   UNL d   1     -59.940 -98.825 -47.396  0.00  0.00     0.002 A 
ATOM     15  C   UNL d   1     -59.933 -98.794 -45.884  0.00  0.00     0.021 A 
ATOM     16  C   UNL d   1     -59.476 -98.978 -48.061  0.00  0.00     0.000 A 
ATOM     17  C   UNL d   1     -58.676 -99.214 -47.963  0.00  0.00     0.002 A 
ATOM     18  C   UNL d   1     -59.358 -98.955 -45.346  0.00  0.00     0.092 A 
ENDBRANCH   7  10
ENDBRANCH   1   7
BRANCH   4  19
ATOM     19  N   UNL d   1     -55.059-100.184 -43.952  0.00  0.00    -0.148 NA
BRANCH  19  20
ATOM     20  N   UNL d   1     -54.851-100.958 -43.868  0.00  0.00    -0.138 NA
BRANCH  20  21
ATOM     21  C   UNL d   1     -54.829-101.308 -43.117  0.00  0.00     0.218 A 
ATOM     22  C   UNL d   1     -54.765-102.099 -43.049  0.00  0.00     0.305 A 
ATOM     23  N   UNL d   1     -54.743-102.456 -42.292  0.00  0.00    -0.177 NA
ATOM     24  O   UNL d   1     -54.721-102.566 -43.735  0.00  0.00    -0.263 OA
ATOM     25  C   UNL d   1     -54.784-102.013 -41.630  0.00  0.00     0.226 A 
ATOM     26  N   UNL d   1     -54.850-101.193 -41.667  0.00  0.00    -0.177 NA
ATOM     27  S   UNL d   1     -54.760-102.396 -40.864  0.00  0.00    -0.037 SA
ATOM     28  C   UNL d   1     -54.873-100.835 -42.427  0.00  0.00     0.305 A 
ATOM     29  O   UNL d   1     -54.939-100.012 -42.490  0.00  0.00    -0.263 OA
ENDBRANCH  20  21
ENDBRANCH  19  20
ENDBRANCH   4  19
TORSDOF 5
ENDMDL
