MODEL 1
REMARK VINA RESULT:      40.3      0.000      0.000
REMARK  3 active torsions:
REMARK  status: ('A' for Active; 'I' for Inactive)
REMARK    1  A    between atoms: C_3  and  N_1 
REMARK    2  A    between atoms: N_2  and  C_4 
REMARK    3  A    between atoms: C_7  and  C_8 
ROOT
ATOM      1  C   UNL d   1     -54.976-101.338 -40.255  0.00  0.00     0.146 A 
ATOM      2  C   UNL d   1     -54.956-101.361 -39.425  0.00  0.00     0.025 A 
ATOM      3  C   UNL d   1     -54.846-102.086 -39.029  0.00  0.00     0.002 A 
ATOM      4  C   UNL d   1     -54.886-102.043 -40.694  0.00  0.00     0.125 A 
ATOM      5  C   UNL d   1     -54.757-102.786 -39.464  0.00  0.00     0.002 A 
ATOM      6  C   UNL d   1     -54.777-102.769 -40.298  0.00  0.00     0.023 A 
ATOM      7  N   UNL d   1     -54.906-102.021 -41.506  0.00  0.00    -0.146 N 
ENDROOT
BRANCH   3   8
ATOM      8  C   UNL d   1     -54.826-102.111 -38.208  0.00  0.00     0.002 A 
ATOM      9  C   UNL d   1     -54.900-101.416 -37.770  0.00  0.00     0.025 A 
ATOM     10  C   UNL d   1     -54.879-101.446 -36.948  0.00  0.00     0.146 A 
ATOM     11  C   UNL d   1     -54.785-102.167 -36.561  0.00  0.00     0.125 A 
ATOM     12  C   UNL d   1     -54.712-102.861 -36.998  0.00  0.00     0.023 A 
ATOM     13  N   UNL d   1     -54.765-102.192 -35.745  0.00  0.00    -0.146 N 
ATOM     14  C   UNL d   1     -54.732-102.835 -37.823  0.00  0.00     0.002 A 
BRANCH  10  15
ATOM     15  N   UNL d   1     -54.952-100.755 -36.512  0.00  0.00    -0.112 N 
ATOM     16  O   UNL d   1     -55.193-100.712 -35.725  0.00  0.00    -0.532 OA
ATOM     17  O   UNL d   1     -54.792-100.013 -36.808  0.00  0.00    -0.532 OA
ENDBRANCH  10  15
ENDBRANCH   3   8
BRANCH   1  18
ATOM     18  N   UNL d   1     -55.083-100.630 -40.641  0.00  0.00    -0.112 N 
ATOM     19  O   UNL d   1     -55.396 -99.949 -40.294  0.00  0.00    -0.532 OA
ATOM     20  O   UNL d   1     -54.893-100.512 -41.419  0.00  0.00    -0.532 OA
ENDBRANCH   1  18
TORSDOF 3
ENDMDL
