MODEL 1
REMARK VINA RESULT:      -6.7      0.000      0.000
REMARK  5 active torsions:
REMARK  status: ('A' for Active; 'I' for Inactive)
REMARK    1  A    between atoms: C_9  and  N_2 
REMARK    2  A    between atoms: C_7  and  O_10 
REMARK    3  A    between atoms: C_11  and  C_9 
REMARK    4  A    between atoms: O_10  and  C_14 
REMARK    5  A    between atoms: C_14  and  C_11 
ROOT
ATOM      1  C   UNL d   1     -48.234  14.441  22.275  0.00  0.00     0.086 C 
ENDROOT
BRANCH   1   2
ATOM      2  N   UNL d   1     -49.045  14.547  22.367  0.00  0.00    -0.268 N 
ATOM      3  C   UNL d   1     -49.405  15.165  22.774  0.00  0.00     0.296 A 
ATOM      4  S   UNL d   1     -50.229  15.052  22.727  0.00  0.00    -0.025 SA
ATOM      5  O   UNL d   1     -49.029  15.788  23.161  0.00  0.00    -0.259 OA
ATOM      6  C   UNL d   1     -50.360  14.364  22.290  0.00  0.00     0.050 A 
ATOM      7  C   UNL d   1     -51.064  13.975  22.063  0.00  0.00     0.008 A 
ATOM      8  C   UNL d   1     -49.636  14.051  22.068  0.00  0.00     0.073 A 
ATOM      9  C   UNL d   1     -51.023  13.284  21.619  0.00  0.00     0.001 A 
ATOM     10  C   UNL d   1     -50.287  12.975  21.400  0.00  0.00     0.002 A 
ATOM     11  C   UNL d   1     -49.591  13.358  21.623  0.00  0.00     0.018 A 
ENDBRANCH   1   2
BRANCH   1  12
ATOM     12  C   UNL d   1     -47.784  14.107  22.887  0.00  0.00     0.046 C 
BRANCH  12  13
ATOM     13  C   UNL d   1     -46.970  14.009  22.803  0.00  0.00     0.124 C 
BRANCH  13  14
ATOM     14  O   UNL d   1     -46.626  13.282  22.951  0.00  0.00    -0.305 OA
BRANCH  14  15
ATOM     15  C   UNL d   1     -46.276  12.548  23.103  0.00  0.00     0.100 A 
ATOM     16  C   UNL d   1     -45.525  12.381  22.810  0.00  0.00     0.023 A 
ATOM     17  C   UNL d   1     -45.123  12.949  22.366  0.00  0.00     0.002 C 
ATOM     18  C   UNL d   1     -45.181  11.654  22.962  0.00  0.00     0.002 A 
ATOM     19  C   UNL d   1     -45.585  11.090  23.406  0.00  0.00     0.000 A 
ATOM     20  C   UNL d   1     -46.339  11.260  23.698  0.00  0.00     0.002 A 
ATOM     21  C   UNL d   1     -46.682  11.999  23.541  0.00  0.00     0.025 A 
ENDBRANCH  14  15
ENDBRANCH  13  14
ENDBRANCH  12  13
ENDBRANCH   1  12
TORSDOF 5
ENDMDL
MODEL 2
REMARK VINA RESULT:      -5.8      1.579      2.268
REMARK  5 active torsions:
REMARK  status: ('A' for Active; 'I' for Inactive)
REMARK    1  A    between atoms: C_9  and  N_2 
REMARK    2  A    between atoms: C_7  and  O_10 
REMARK    3  A    between atoms: C_11  and  C_9 
REMARK    4  A    between atoms: O_10  and  C_14 
REMARK    5  A    between atoms: C_14  and  C_11 
ROOT
ATOM      1  C   UNL d   1     -47.530  12.575  23.448  0.00  0.00     0.086 C 
ENDROOT
BRANCH   1   2
ATOM      2  N   UNL d   1     -48.237  12.649  23.033  0.00  0.00    -0.268 N 
ATOM      3  C   UNL d   1     -48.709  12.026  22.773  0.00  0.00     0.296 A 
ATOM      4  S   UNL d   1     -49.367  12.355  22.380  0.00  0.00    -0.025 SA
ATOM      5  O   UNL d   1     -48.567  11.222  22.876  0.00  0.00    -0.259 OA
ATOM      6  C   UNL d   1     -49.286  13.177  22.407  0.00  0.00     0.050 A 
ATOM      7  C   UNL d   1     -49.766  13.792  22.110  0.00  0.00     0.008 A 
ATOM      8  C   UNL d   1     -48.594  13.360  22.806  0.00  0.00     0.073 A 
ATOM      9  C   UNL d   1     -49.541  14.576  22.222  0.00  0.00     0.001 A 
ATOM     10  C   UNL d   1     -48.840  14.751  22.627  0.00  0.00     0.002 A 
ATOM     11  C   UNL d   1     -48.364  14.144  22.920  0.00  0.00     0.018 A 
ENDBRANCH   1   2
BRANCH   1  12
ATOM     12  C   UNL d   1     -46.881  12.190  23.102  0.00  0.00     0.046 C 
BRANCH  12  13
ATOM     13  C   UNL d   1     -46.112  12.387  23.321  0.00  0.00     0.124 C 
BRANCH  13  14
ATOM     14  O   UNL d   1     -45.526  11.816  23.322  0.00  0.00    -0.305 OA
BRANCH  14  15
ATOM     15  C   UNL d   1     -44.932  11.240  23.322  0.00  0.00     0.100 A 
ATOM     16  C   UNL d   1     -44.214  11.389  22.948  0.00  0.00     0.023 A 
ATOM     17  C   UNL d   1     -44.090  12.115  22.574  0.00  0.00     0.002 C 
ATOM     18  C   UNL d   1     -43.628  10.818  22.949  0.00  0.00     0.002 A 
ATOM     19  C   UNL d   1     -43.756  10.095  23.323  0.00  0.00     0.000 A 
ATOM     20  C   UNL d   1     -44.477   9.948  23.698  0.00  0.00     0.002 A 
ATOM     21  C   UNL d   1     -45.067  10.532  23.693  0.00  0.00     0.025 A 
ENDBRANCH  14  15
ENDBRANCH  13  14
ENDBRANCH  12  13
ENDBRANCH   1  12
TORSDOF 5
ENDMDL
MODEL 3
REMARK VINA RESULT:      -5.7      8.265      9.879
REMARK  5 active torsions:
REMARK  status: ('A' for Active; 'I' for Inactive)
REMARK    1  A    between atoms: C_9  and  N_2 
REMARK    2  A    between atoms: C_7  and  O_10 
REMARK    3  A    between atoms: C_11  and  C_9 
REMARK    4  A    between atoms: O_10  and  C_14 
REMARK    5  A    between atoms: C_14  and  C_11 
ROOT
ATOM      1  C   UNL d   1     -40.476  14.395  19.790  0.00  0.00     0.086 C 
ENDROOT
BRANCH   1   2
ATOM      2  N   UNL d   1     -40.355  14.897  20.431  0.00  0.00    -0.268 N 
ATOM      3  C   UNL d   1     -40.765  15.596  20.578  0.00  0.00     0.296 A 
ATOM      4  S   UNL d   1     -40.463  15.922  21.283  0.00  0.00    -0.025 SA
ATOM      5  O   UNL d   1     -41.366  15.922  20.119  0.00  0.00    -0.259 OA
ATOM      6  C   UNL d   1     -39.871  15.415  21.556  0.00  0.00     0.050 A 
ATOM      7  C   UNL d   1     -39.375  15.451  22.229  0.00  0.00     0.008 A 
ATOM      8  C   UNL d   1     -39.802  14.786  21.037  0.00  0.00     0.073 A 
ATOM      9  C   UNL d   1     -38.825  14.855  22.361  0.00  0.00     0.001 A 
ATOM     10  C   UNL d   1     -38.763  14.222  21.831  0.00  0.00     0.002 A 
ATOM     11  C   UNL d   1     -39.251  14.185  21.166  0.00  0.00     0.018 A 
ENDBRANCH   1   2
BRANCH   1  12
ATOM     12  C   UNL d   1     -40.204  14.607  19.036  0.00  0.00     0.046 C 
BRANCH  12  13
ATOM     13  C   UNL d   1     -40.202  14.059  18.421  0.00  0.00     0.124 C 
BRANCH  13  14
ATOM     14  O   UNL d   1     -39.695  14.155  17.786  0.00  0.00    -0.305 OA
BRANCH  14  15
ATOM     15  C   UNL d   1     -39.181  14.251  17.146  0.00  0.00     0.100 A 
ATOM     16  C   UNL d   1     -38.683  13.634  16.920  0.00  0.00     0.023 A 
ATOM     17  C   UNL d   1     -38.701  12.921  17.337  0.00  0.00     0.002 C 
ATOM     18  C   UNL d   1     -38.175  13.731  16.287  0.00  0.00     0.002 A 
ATOM     19  C   UNL d   1     -38.161  14.444  15.874  0.00  0.00     0.000 A 
ATOM     20  C   UNL d   1     -38.661  15.061  16.102  0.00  0.00     0.002 A 
ATOM     21  C   UNL d   1     -39.174  14.956  16.745  0.00  0.00     0.025 A 
ENDBRANCH  14  15
ENDBRANCH  13  14
ENDBRANCH  12  13
ENDBRANCH   1  12
TORSDOF 5
ENDMDL
MODEL 4
REMARK VINA RESULT:      -5.5      1.704      4.807
REMARK  5 active torsions:
REMARK  status: ('A' for Active; 'I' for Inactive)
REMARK    1  A    between atoms: C_9  and  N_2 
REMARK    2  A    between atoms: C_7  and  O_10 
REMARK    3  A    between atoms: C_11  and  C_9 
REMARK    4  A    between atoms: O_10  and  C_14 
REMARK    5  A    between atoms: C_14  and  C_11 
ROOT
ATOM      1  C   UNL d   1     -47.143  12.726  23.516  0.00  0.00     0.086 C 
ENDROOT
BRANCH   1   2
ATOM      2  N   UNL d   1     -46.398  12.611  23.187  0.00  0.00    -0.268 N 
ATOM      3  C   UNL d   1     -45.996  13.148  22.709  0.00  0.00     0.296 A 
ATOM      4  S   UNL d   1     -45.266  12.804  22.503  0.00  0.00    -0.025 SA
ATOM      5  O   UNL d   1     -46.258  13.892  22.472  0.00  0.00    -0.259 OA
ATOM      6  C   UNL d   1     -45.233  12.060  22.859  0.00  0.00     0.050 A 
ATOM      7  C   UNL d   1     -44.645  11.465  22.852  0.00  0.00     0.008 A 
ATOM      8  C   UNL d   1     -45.925  11.938  23.279  0.00  0.00     0.073 A 
ATOM      9  C   UNL d   1     -44.768  10.765  23.267  0.00  0.00     0.001 A 
ATOM     10  C   UNL d   1     -45.472  10.652  23.689  0.00  0.00     0.002 A 
ATOM     11  C   UNL d   1     -46.053  11.238  23.696  0.00  0.00     0.018 A 
ENDBRANCH   1   2
BRANCH   1  12
ATOM     12  C   UNL d   1     -47.795  12.889  23.029  0.00  0.00     0.046 C 
BRANCH  12  13
ATOM     13  C   UNL d   1     -48.558  12.902  23.340  0.00  0.00     0.124 C 
BRANCH  13  14
ATOM     14  O   UNL d   1     -49.181  13.176  22.886  0.00  0.00    -0.305 OA
BRANCH  14  15
ATOM     15  C   UNL d   1     -49.810  13.453  22.426  0.00  0.00     0.100 A 
ATOM     16  C   UNL d   1     -50.444  12.957  22.251  0.00  0.00     0.023 A 
ATOM     17  C   UNL d   1     -50.447  12.182  22.538  0.00  0.00     0.002 C 
ATOM     18  C   UNL d   1     -51.064  13.232  21.796  0.00  0.00     0.002 A 
ATOM     19  C   UNL d   1     -51.056  14.006  21.511  0.00  0.00     0.000 A 
ATOM     20  C   UNL d   1     -50.419  14.502  21.688  0.00  0.00     0.002 A 
ATOM     21  C   UNL d   1     -49.793  14.215  22.150  0.00  0.00     0.025 A 
ENDBRANCH  14  15
ENDBRANCH  13  14
ENDBRANCH  12  13
ENDBRANCH   1  12
TORSDOF 5
ENDMDL
MODEL 5
REMARK VINA RESULT:      -5.3      9.132      9.563
REMARK  5 active torsions:
REMARK  status: ('A' for Active; 'I' for Inactive)
REMARK    1  A    between atoms: C_9  and  N_2 
REMARK    2  A    between atoms: C_7  and  O_10 
REMARK    3  A    between atoms: C_11  and  C_9 
REMARK    4  A    between atoms: O_10  and  C_14 
REMARK    5  A    between atoms: C_14  and  C_11 
ROOT
ATOM      1  C   UNL d   1     -39.123  15.273  19.409  0.00  0.00     0.086 C 
ENDROOT
BRANCH   1   2
ATOM      2  N   UNL d   1     -39.359  14.900  18.714  0.00  0.00    -0.268 N 
ATOM      3  C   UNL d   1     -39.034  14.209  18.406  0.00  0.00     0.296 A 
ATOM      4  S   UNL d   1     -39.440  14.032  17.701  0.00  0.00    -0.025 SA
ATOM      5  O   UNL d   1     -38.420  13.765  18.730  0.00  0.00    -0.259 OA
ATOM      6  C   UNL d   1     -40.008  14.621  17.588  0.00  0.00     0.050 A 
ATOM      7  C   UNL d   1     -40.574  14.738  16.984  0.00  0.00     0.008 A 
ATOM      8  C   UNL d   1     -39.961  15.154  18.207  0.00  0.00     0.073 A 
ATOM      9  C   UNL d   1     -41.077  15.388  17.019  0.00  0.00     0.001 A 
ATOM     10  C   UNL d   1     -41.023  15.922  17.649  0.00  0.00     0.002 A 
ATOM     11  C   UNL d   1     -40.464  15.807  18.245  0.00  0.00     0.018 A 
ENDBRANCH   1   2
BRANCH   1  12
ATOM     12  C   UNL d   1     -39.267  14.918  20.145  0.00  0.00     0.046 C 
BRANCH  12  13
ATOM     13  C   UNL d   1     -39.145  15.336  20.843  0.00  0.00     0.124 C 
BRANCH  13  14
ATOM     14  O   UNL d   1     -39.021  14.936  21.546  0.00  0.00    -0.305 OA
BRANCH  14  15
ATOM     15  C   UNL d   1     -38.893  14.533  22.257  0.00  0.00     0.100 A 
ATOM     16  C   UNL d   1     -38.736  14.953  22.947  0.00  0.00     0.023 A 
ATOM     17  C   UNL d   1     -38.707  15.779  22.925  0.00  0.00     0.002 C 
ATOM     18  C   UNL d   1     -38.610  14.553  23.649  0.00  0.00     0.002 A 
ATOM     19  C   UNL d   1     -38.640  13.729  23.666  0.00  0.00     0.000 A 
ATOM     20  C   UNL d   1     -38.797  13.310  22.972  0.00  0.00     0.002 A 
ATOM     21  C   UNL d   1     -38.924  13.723  22.264  0.00  0.00     0.025 A 
ENDBRANCH  14  15
ENDBRANCH  13  14
ENDBRANCH  12  13
ENDBRANCH   1  12
TORSDOF 5
ENDMDL
MODEL 6
REMARK VINA RESULT:      -5.0      9.090     10.199
REMARK  5 active torsions:
REMARK  status: ('A' for Active; 'I' for Inactive)
REMARK    1  A    between atoms: C_9  and  N_2 
REMARK    2  A    between atoms: C_7  and  O_10 
REMARK    3  A    between atoms: C_11  and  C_9 
REMARK    4  A    between atoms: O_10  and  C_14 
REMARK    5  A    between atoms: C_14  and  C_11 
ROOT
ATOM      1  C   UNL d   1     -38.565  14.174  20.553  0.00  0.00     0.086 C 
ENDROOT
BRANCH   1   2
ATOM      2  N   UNL d   1     -38.423  14.543  21.275  0.00  0.00    -0.268 N 
ATOM      3  C   UNL d   1     -38.136  15.308  21.375  0.00  0.00     0.296 A 
ATOM      4  S   UNL d   1     -38.079  15.451  22.194  0.00  0.00    -0.025 SA
ATOM      5  O   UNL d   1     -37.940  15.844  20.781  0.00  0.00    -0.259 OA
ATOM      6  C   UNL d   1     -38.332  14.768  22.582  0.00  0.00     0.050 A 
ATOM      7  C   UNL d   1     -38.397  14.582  23.395  0.00  0.00     0.008 A 
ATOM      8  C   UNL d   1     -38.544  14.209  22.022  0.00  0.00     0.073 A 
ATOM      9  C   UNL d   1     -38.672  13.842  23.623  0.00  0.00     0.001 A 
ATOM     10  C   UNL d   1     -38.884  13.283  23.049  0.00  0.00     0.002 A 
ATOM     11  C   UNL d   1     -38.821  13.465  22.247  0.00  0.00     0.018 A 
ENDBRANCH   1   2
BRANCH   1  12
ATOM     12  C   UNL d   1     -39.036  14.545  19.979  0.00  0.00     0.046 C 
BRANCH  12  13
ATOM     13  C   UNL d   1     -39.197  14.171  19.263  0.00  0.00     0.124 C 
BRANCH  13  14
ATOM     14  O   UNL d   1     -39.661  14.542  18.701  0.00  0.00    -0.305 OA
BRANCH  14  15
ATOM     15  C   UNL d   1     -40.133  14.915  18.132  0.00  0.00     0.100 A 
ATOM     16  C   UNL d   1     -40.077  14.694  17.341  0.00  0.00     0.023 A 
ATOM     17  C   UNL d   1     -39.548  14.100  17.119  0.00  0.00     0.002 C 
ATOM     18  C   UNL d   1     -40.544  15.064  16.781  0.00  0.00     0.002 A 
ATOM     19  C   UNL d   1     -41.070  15.656  17.007  0.00  0.00     0.000 A 
ATOM     20  C   UNL d   1     -41.125  15.876  17.802  0.00  0.00     0.002 A 
ATOM     21  C   UNL d   1     -40.648  15.496  18.365  0.00  0.00     0.025 A 
ENDBRANCH  14  15
ENDBRANCH  13  14
ENDBRANCH  12  13
ENDBRANCH   1  12
TORSDOF 5
ENDMDL
