MODEL 1
REMARK VINA RESULT:      13.0      0.000      0.000
REMARK  3 active torsions:
REMARK  status: ('A' for Active; 'I' for Inactive)
REMARK    1  A    between atoms: C_7  and  C_3 
REMARK    2  A    between atoms: C_10  and  C_5 
REMARK    3  A    between atoms: C_9  and  C_7 
ROOT
ATOM      1  C   UNL d   1      45.572 -15.812  44.582  0.00  0.00     0.101 A 
ATOM      2  O   UNL d   1      46.060 -16.132  43.995  0.00  0.00    -0.307 OA
ATOM      3  C   UNL d   1      45.989 -16.957  44.008  0.00  0.00     0.101 A 
ATOM      4  C   UNL d   1      45.203 -16.451  44.954  0.00  0.00     0.027 A 
ATOM      5  C   UNL d   1      45.458 -17.140  44.604  0.00  0.00     0.027 A 
ENDROOT
BRANCH   3   6
ATOM      6  C   UNL d   1      46.377 -17.510  43.517  0.00  0.00     0.036 C 
BRANCH   6   7
ATOM      7  C   UNL d   1      46.417 -18.301  43.751  0.00  0.00     0.091 A 
ATOM      8  C   UNL d   1      46.328 -18.916  43.190  0.00  0.00     0.286 A 
ATOM      9  N   UNL d   1      46.392 -19.637  43.578  0.00  0.00    -0.190 NA
ATOM     10  O   UNL d   1      46.195 -18.810  42.371  0.00  0.00    -0.265 OA
ATOM     11  C   UNL d   1      46.517 -19.494  44.348  0.00  0.00     0.169 A 
ATOM     12  S   UNL d   1      46.536 -18.676  44.482  0.00  0.00    -0.052 SA
ATOM     13  S   UNL d   1      46.608 -20.085  44.905  0.00  0.00    -0.050 SA
ENDBRANCH   6   7
ENDBRANCH   3   6
BRANCH   1  14
ATOM     14  C   UNL d   1      45.632 -15.006  44.580  0.00  0.00     0.033 A 
ATOM     15  C   UNL d   1      44.959 -14.545  44.766  0.00  0.00     0.060 A 
ATOM     16 CL   UNL d   1      44.245 -14.903  44.948  0.00  0.00    -0.082 Cl
ATOM     17  C   UNL d   1      45.003 -13.723  44.769  0.00  0.00     0.011 A 
ATOM     18  C   UNL d   1      45.722 -13.358  44.585  0.00  0.00     0.001 A 
ATOM     19  C   UNL d   1      46.395 -13.818  44.399  0.00  0.00     0.000 A 
ATOM     20  C   UNL d   1      46.330 -14.632  44.402  0.00  0.00     0.003 A 
ENDBRANCH   1  14
TORSDOF 3
ENDMDL
MODEL 2
REMARK VINA RESULT:      14.2      2.422      4.510
REMARK  3 active torsions:
REMARK  status: ('A' for Active; 'I' for Inactive)
REMARK    1  A    between atoms: C_7  and  C_3 
REMARK    2  A    between atoms: C_10  and  C_5 
REMARK    3  A    between atoms: C_9  and  C_7 
ROOT
ATOM      1  C   UNL d   1      46.281 -17.636  43.775  0.00  0.00     0.101 A 
ATOM      2  O   UNL d   1      45.895 -17.370  44.457  0.00  0.00    -0.307 OA
ATOM      3  C   UNL d   1      45.778 -16.553  44.397  0.00  0.00     0.101 A 
ATOM      4  C   UNL d   1      46.398 -16.972  43.298  0.00  0.00     0.027 A 
ATOM      5  C   UNL d   1      46.093 -16.320  43.677  0.00  0.00     0.027 A 
ENDROOT
BRANCH   3   6
ATOM      6  C   UNL d   1      45.412 -16.048  44.953  0.00  0.00     0.036 C 
BRANCH   6   7
ATOM      7  C   UNL d   1      45.451 -15.230  44.843  0.00  0.00     0.091 A 
ATOM      8  C   UNL d   1      44.753 -14.767  44.845  0.00  0.00     0.286 A 
ATOM      9  N   UNL d   1      44.959 -13.981  44.725  0.00  0.00    -0.190 NA
ATOM     10  O   UNL d   1      43.977 -15.060  44.953  0.00  0.00    -0.265 OA
ATOM     11  C   UNL d   1      45.747 -13.941  44.649  0.00  0.00     0.169 A 
ATOM     12  S   UNL d   1      46.076 -14.699  44.718  0.00  0.00    -0.052 SA
ATOM     13  S   UNL d   1      46.150 -13.241  44.521  0.00  0.00    -0.050 SA
ENDBRANCH   6   7
ENDBRANCH   3   6
BRANCH   1  14
ATOM     14  C   UNL d   1      46.402 -18.435  43.820  0.00  0.00     0.033 A 
ATOM     15  C   UNL d   1      46.425 -18.886  43.117  0.00  0.00     0.060 A 
ATOM     16 CL   UNL d   1      46.327 -18.527  42.387  0.00  0.00    -0.082 Cl
ATOM     17  C   UNL d   1      46.547 -19.699  43.146  0.00  0.00     0.011 A 
ATOM     18  C   UNL d   1      46.647 -20.066  43.881  0.00  0.00     0.001 A 
ATOM     19  C   UNL d   1      46.624 -19.614  44.585  0.00  0.00     0.000 A 
ATOM     20  C   UNL d   1      46.501 -18.809  44.534  0.00  0.00     0.003 A 
ENDBRANCH   1  14
TORSDOF 3
ENDMDL
