MODEL 1
REMARK VINA RESULT:       3.7      0.000      0.000
REMARK  7 active torsions:
REMARK  status: ('A' for Active; 'I' for Inactive)
REMARK    1  A    between atoms: N_2  and  S_1 
REMARK    2  A    between atoms: C_3  and  S_1 
REMARK    3  A    between atoms: C_4  and  C_7 
REMARK       I    between atoms: N_5  and  C_4 
REMARK    4  A    between atoms: C_15  and  N_5 
REMARK    5  A    between atoms: C_6  and  C_11 
REMARK    6  A    between atoms: O_20  and  C_6 
REMARK    7  A    between atoms: C_28  and  O_20 
ROOT
ATOM      1  C   UNL d   1     -41.819-121.641 -53.722  0.00  0.00     0.104 A 
ATOM      2  C   UNL d   1     -41.505-121.763 -52.330  0.00  0.00     0.059 A 
ATOM      3  C   UNL d   1     -41.828-122.058 -53.009  0.00  0.00     0.018 A 
ATOM      4  C   UNL d   1     -41.450-120.861 -53.736  0.00  0.00     0.013 A 
ATOM      5  C   UNL d   1     -41.137-120.983 -52.344  0.00  0.00     0.005 A 
ATOM      6  C   UNL d   1     -41.124-120.567 -53.037  0.00  0.00     0.001 A 
ENDROOT
BRANCH   2   7
ATOM      7  C   UNL d   1     -41.530-122.201 -51.635  0.00  0.00     0.279 C 
ATOM      8  N   UNL d   1     -41.774-121.859 -50.934  0.00  0.00    -0.208 NA
ATOM      9  O   UNL d   1     -41.314-123.012 -51.584  0.00  0.00    -0.265 OA
BRANCH   8  10
ATOM     10  C   UNL d   1     -41.800-122.303 -50.223  0.00  0.00     0.085 A 
ATOM     11  C   UNL d   1     -42.385-122.903 -50.121  0.00  0.00     0.019 A 
ATOM     12  C   UNL d   1     -42.388-123.346 -49.376  0.00  0.00     0.007 A 
ATOM     13  C   UNL d   1     -41.812-123.173 -48.770  0.00  0.00     0.064 A 
ATOM     14  C   UNL d   1     -41.245-122.584 -48.882  0.00  0.00     0.007 A 
ATOM     15  C   UNL d   1     -41.224-122.137 -49.605  0.00  0.00     0.019 A 
BRANCH  13  16
ATOM     16  C   UNL d   1     -41.802-123.580 -48.066  0.00  0.00     0.300 C 
ATOM     17  O   UNL d   1     -41.127-123.802 -47.695  0.00  0.00    -0.259 OA
BRANCH  16  18
ATOM     18  O   UNL d   1     -42.469-123.812 -47.652  0.00  0.00    -0.271 OA
BRANCH  18  19
ATOM     19  C   UNL d   1     -42.554-123.605 -46.868  0.00  0.00     0.126 C 
ATOM     20  C   UNL d   1     -42.952-122.940 -46.676  0.00  0.00     0.029 C 
ENDBRANCH  18  19
ENDBRANCH  16  18
ENDBRANCH  13  16
ENDBRANCH   8  10
ENDBRANCH   2   7
BRANCH   1  21
ATOM     21  S   UNL d   1     -42.154-121.960 -54.407  0.00  0.00     0.272 S 
ATOM     22  O   UNL d   1     -41.415-122.280 -54.647  0.00  0.00    -0.200 OA
ATOM     23  O   UNL d   1     -42.884-121.654 -54.190  0.00  0.00    -0.200 OA
BRANCH  21  24
ATOM     24  N   UNL d   1     -42.496-122.270 -55.083  0.00  0.00    -0.225 N 
ATOM     25  C   UNL d   1     -42.776-123.029 -55.079  0.00  0.00     0.118 A 
ATOM     26  C   UNL d   1     -43.120-123.352 -55.747  0.00  0.00     0.142 A 
ATOM     27  O   UNL d   1     -43.185-122.913 -56.426  0.00  0.00    -0.300 OA
ATOM     28  C   UNL d   1     -42.898-122.128 -56.438  0.00  0.00     0.142 A 
ATOM     29  C   UNL d   1     -42.553-121.810 -55.764  0.00  0.00     0.118 A 
ENDBRANCH  21  24
ENDBRANCH   1  21
TORSDOF 7
ENDMDL
MODEL 2
REMARK VINA RESULT:       5.6      1.668      6.262
REMARK  7 active torsions:
REMARK  status: ('A' for Active; 'I' for Inactive)
REMARK    1  A    between atoms: N_2  and  S_1 
REMARK    2  A    between atoms: C_3  and  S_1 
REMARK    3  A    between atoms: C_4  and  C_7 
REMARK       I    between atoms: N_5  and  C_4 
REMARK    4  A    between atoms: C_15  and  N_5 
REMARK    5  A    between atoms: C_6  and  C_11 
REMARK    6  A    between atoms: O_20  and  C_6 
REMARK    7  A    between atoms: C_28  and  O_20 
ROOT
ATOM      1  C   UNL d   1     -42.933-122.589 -49.500  0.00  0.00     0.104 A 
ATOM      2  C   UNL d   1     -42.883-122.373 -50.915  0.00  0.00     0.059 A 
ATOM      3  C   UNL d   1     -42.564-122.670 -50.235  0.00  0.00     0.018 A 
ATOM      4  C   UNL d   1     -43.687-122.173 -49.463  0.00  0.00     0.013 A 
ATOM      5  C   UNL d   1     -43.638-121.957 -50.878  0.00  0.00     0.005 A 
ATOM      6  C   UNL d   1     -44.006-121.873 -50.163  0.00  0.00     0.001 A 
ENDROOT
BRANCH   2   7
ATOM      7  C   UNL d   1     -42.493-122.469 -51.632  0.00  0.00     0.279 C 
ATOM      8  N   UNL d   1     -42.837-122.221 -52.331  0.00  0.00    -0.208 NA
ATOM      9  O   UNL d   1     -41.732-122.817 -51.709  0.00  0.00    -0.265 OA
BRANCH   8  10
ATOM     10  C   UNL d   1     -42.442-122.317 -53.064  0.00  0.00     0.085 A 
ATOM     11  C   UNL d   1     -41.623-122.124 -53.131  0.00  0.00     0.019 A 
ATOM     12  C   UNL d   1     -41.241-122.234 -53.902  0.00  0.00     0.007 A 
ATOM     13  C   UNL d   1     -41.689-122.529 -54.566  0.00  0.00     0.064 A 
ATOM     14  C   UNL d   1     -42.489-122.714 -54.488  0.00  0.00     0.007 A 
ATOM     15  C   UNL d   1     -42.884-122.614 -53.742  0.00  0.00     0.019 A 
BRANCH  13  16
ATOM     16  C   UNL d   1     -41.344-122.636 -55.295  0.00  0.00     0.300 C 
ATOM     17  O   UNL d   1     -41.148-123.357 -55.588  0.00  0.00    -0.259 OA
BRANCH  16  18
ATOM     18  O   UNL d   1     -41.155-122.033 -55.815  0.00  0.00    -0.271 OA
BRANCH  18  19
ATOM     19  C   UNL d   1     -41.740-121.685 -56.263  0.00  0.00     0.126 C 
ATOM     20  C   UNL d   1     -41.626-120.953 -56.562  0.00  0.00     0.029 C 
ENDBRANCH  18  19
ENDBRANCH  16  18
ENDBRANCH  13  16
ENDBRANCH   8  10
ENDBRANCH   2   7
BRANCH   1  21
ATOM     21  S   UNL d   1     -42.591-122.899 -48.814  0.00  0.00     0.272 S 
ATOM     22  O   UNL d   1     -43.143-123.533 -48.798  0.00  0.00    -0.200 OA
ATOM     23  O   UNL d   1     -42.043-122.287 -48.813  0.00  0.00    -0.200 OA
BRANCH  21  24
ATOM     24  N   UNL d   1     -42.244-123.197 -48.135  0.00  0.00    -0.225 N 
ATOM     25  C   UNL d   1     -42.671-123.233 -47.449  0.00  0.00     0.118 A 
ATOM     26  C   UNL d   1     -42.338-123.528 -46.763  0.00  0.00     0.142 A 
ATOM     27  O   UNL d   1     -41.570-123.790 -46.762  0.00  0.00    -0.300 OA
ATOM     28  C   UNL d   1     -41.123-123.756 -47.467  0.00  0.00     0.142 A 
ATOM     29  C   UNL d   1     -41.463-123.459 -48.152  0.00  0.00     0.118 A 
ENDBRANCH  21  24
ENDBRANCH   1  21
TORSDOF 7
ENDMDL
