MODEL 1
REMARK VINA RESULT:      -5.8      0.000      0.000
REMARK  6 active torsions:
REMARK  status: ('A' for Active; 'I' for Inactive)
REMARK    1  A    between atoms: C_5  and  N_1 
REMARK    2  A    between atoms: C_8  and  C_3 
REMARK    3  A    between atoms: C_7  and  C_4 
REMARK    4  A    between atoms: N_12  and  C_5 
REMARK    5  A    between atoms: N_11  and  C_10 
REMARK    6  A    between atoms: O_22  and  C_19 
ROOT
ATOM      1  N   UNL d   1     -48.034  12.497  22.735  0.00  0.00    -0.203 N 
ATOM      2  N   UNL d   1     -47.278  12.208  22.631  0.00  0.00    -0.163 NA
ATOM      3  C   UNL d   1     -46.780  12.865  22.549  0.00  0.00     0.103 A 
ATOM      4  C   UNL d   1     -48.001  13.327  22.718  0.00  0.00     0.087 A 
ATOM      5  C   UNL d   1     -47.233  13.562  22.604  0.00  0.00     0.040 A 
ENDROOT
BRANCH   4   6
ATOM      6  C   UNL d   1     -48.626  13.859  22.800  0.00  0.00     0.018 A 
ATOM      7  C   UNL d   1     -49.105  14.042  22.155  0.00  0.00     0.003 A 
ATOM      8  C   UNL d   1     -49.730  14.575  22.237  0.00  0.00     0.018 A 
ATOM      9  C   UNL d   1     -49.877  14.924  22.965  0.00  0.00     0.064 A 
ATOM     10  C   UNL d   1     -49.404  14.749  23.619  0.00  0.00     0.018 A 
ATOM     11  C   UNL d   1     -48.778  14.214  23.529  0.00  0.00     0.003 A 
BRANCH   9  12
ATOM     12  N   UNL d   1     -50.500  15.449  23.028  0.00  0.00    -0.301 N 
ATOM     13  C   UNL d   1     -51.061  15.508  22.418  0.00  0.00     0.100 C 
ATOM     14  C   UNL d   1     -50.574  15.922  23.698  0.00  0.00     0.100 C 
ENDBRANCH   9  12
ENDBRANCH   4   6
BRANCH   1  15
ATOM     15  C   UNL d   1     -48.714  12.008  22.840  0.00  0.00     0.222 C 
ATOM     16  S   UNL d   1     -49.204  11.824  22.191  0.00  0.00    -0.037 SA
BRANCH  15  17
ATOM     17  N   UNL d   1     -48.900  11.702  23.613  0.00  0.00    -0.214 NA
ATOM     18  C   UNL d   1     -49.511  11.121  23.692  0.00  0.00     0.122 C 
ENDBRANCH  15  17
ENDBRANCH   1  15
BRANCH   3  19
ATOM     19  C   UNL d   1     -45.984  12.783  22.436  0.00  0.00     0.019 A 
ATOM     20  C   UNL d   1     -45.551  13.355  22.040  0.00  0.00     0.004 A 
ATOM     21  C   UNL d   1     -44.739  13.256  21.932  0.00  0.00     0.024 A 
ATOM     22  C   UNL d   1     -44.349  12.584  22.220  0.00  0.00     0.094 A 
ATOM     23  C   UNL d   1     -44.782  12.012  22.616  0.00  0.00     0.024 A 
ATOM     24  C   UNL d   1     -45.591  12.115  22.721  0.00  0.00     0.004 A 
BRANCH  22  25
ATOM     25  O   UNL d   1     -43.526  12.489  22.108  0.00  0.00    -0.328 OA
ATOM     26  C   UNL d   1     -43.204  12.554  21.344  0.00  0.00     0.181 C 
ENDBRANCH  22  25
ENDBRANCH   3  19
TORSDOF 6
ENDMDL
MODEL 2
REMARK VINA RESULT:      -3.7      1.839      2.627
REMARK  6 active torsions:
REMARK  status: ('A' for Active; 'I' for Inactive)
REMARK    1  A    between atoms: C_5  and  N_1 
REMARK    2  A    between atoms: C_8  and  C_3 
REMARK    3  A    between atoms: C_7  and  C_4 
REMARK    4  A    between atoms: N_12  and  C_5 
REMARK    5  A    between atoms: N_11  and  C_10 
REMARK    6  A    between atoms: O_22  and  C_19 
ROOT
ATOM      1  N   UNL d   1     -46.756  12.926  22.824  0.00  0.00    -0.203 N 
ATOM      2  N   UNL d   1     -46.012  12.600  22.908  0.00  0.00    -0.163 NA
ATOM      3  C   UNL d   1     -46.122  11.812  23.139  0.00  0.00     0.103 A 
ATOM      4  C   UNL d   1     -47.319  12.342  23.002  0.00  0.00     0.087 A 
ATOM      5  C   UNL d   1     -46.937  11.653  23.197  0.00  0.00     0.040 A 
ENDROOT
BRANCH   4   6
ATOM      6  C   UNL d   1     -48.140  12.412  22.993  0.00  0.00     0.018 A 
ATOM      7  C   UNL d   1     -48.560  12.490  23.698  0.00  0.00     0.003 A 
ATOM      8  C   UNL d   1     -49.382  12.561  23.689  0.00  0.00     0.018 A 
ATOM      9  C   UNL d   1     -49.785  12.554  22.974  0.00  0.00     0.064 A 
ATOM     10  C   UNL d   1     -49.377  12.477  22.261  0.00  0.00     0.018 A 
ATOM     11  C   UNL d   1     -48.551  12.406  22.278  0.00  0.00     0.003 A 
BRANCH   9  12
ATOM     12  N   UNL d   1     -50.600  12.625  22.983  0.00  0.00    -0.301 N 
ATOM     13  C   UNL d   1     -51.064  12.057  23.373  0.00  0.00     0.100 C 
ATOM     14  C   UNL d   1     -50.962  13.261  22.607  0.00  0.00     0.100 C 
ENDBRANCH   9  12
ENDBRANCH   4   6
BRANCH   1  15
ATOM     15  C   UNL d   1     -46.895  13.725  22.593  0.00  0.00     0.222 C 
ATOM     16  S   UNL d   1     -47.274  13.894  21.869  0.00  0.00    -0.037 SA
BRANCH  15  17
ATOM     17  N   UNL d   1     -46.648  14.363  23.102  0.00  0.00    -0.214 NA
ATOM     18  C   UNL d   1     -46.817  15.161  22.878  0.00  0.00     0.122 C 
ENDBRANCH  15  17
ENDBRANCH   1  15
BRANCH   3  19
ATOM     19  C   UNL d   1     -45.496  11.319  23.274  0.00  0.00     0.019 A 
ATOM     20  C   UNL d   1     -45.608  10.561  23.566  0.00  0.00     0.004 A 
ATOM     21  C   UNL d   1     -44.958  10.070  23.698  0.00  0.00     0.024 A 
ATOM     22  C   UNL d   1     -44.187  10.329  23.540  0.00  0.00     0.094 A 
ATOM     23  C   UNL d   1     -44.075  11.087  23.248  0.00  0.00     0.024 A 
ATOM     24  C   UNL d   1     -44.726  11.572  23.118  0.00  0.00     0.004 A 
BRANCH  22  25
ATOM     25  O   UNL d   1     -43.533   9.827  23.676  0.00  0.00    -0.328 OA
ATOM     26  C   UNL d   1     -42.767  10.089  23.488  0.00  0.00     0.181 C 
ENDBRANCH  22  25
ENDBRANCH   3  19
TORSDOF 6
ENDMDL
MODEL 3
REMARK VINA RESULT:      -3.7      1.669      2.509
REMARK  6 active torsions:
REMARK  status: ('A' for Active; 'I' for Inactive)
REMARK    1  A    between atoms: C_5  and  N_1 
REMARK    2  A    between atoms: C_8  and  C_3 
REMARK    3  A    between atoms: C_7  and  C_4 
REMARK    4  A    between atoms: N_12  and  C_5 
REMARK    5  A    between atoms: N_11  and  C_10 
REMARK    6  A    between atoms: O_22  and  C_19 
ROOT
ATOM      1  N   UNL d   1     -47.079  13.743  22.479  0.00  0.00    -0.203 N 
ATOM      2  N   UNL d   1     -46.278  13.748  22.323  0.00  0.00    -0.163 NA
ATOM      3  C   UNL d   1     -46.028  12.958  22.333  0.00  0.00     0.103 A 
ATOM      4  C   UNL d   1     -47.320  12.956  22.585  0.00  0.00     0.087 A 
ATOM      5  C   UNL d   1     -46.679  12.465  22.497  0.00  0.00     0.040 A 
ENDROOT
BRANCH   4   6
ATOM      6  C   UNL d   1     -48.077  12.678  22.753  0.00  0.00     0.018 A 
ATOM      7  C   UNL d   1     -48.352  12.658  23.530  0.00  0.00     0.003 A 
ATOM      8  C   UNL d   1     -49.111  12.380  23.698  0.00  0.00     0.018 A 
ATOM      9  C   UNL d   1     -49.595  12.120  23.089  0.00  0.00     0.064 A 
ATOM     10  C   UNL d   1     -49.332  12.134  22.307  0.00  0.00     0.018 A 
ATOM     11  C   UNL d   1     -48.570  12.415  22.146  0.00  0.00     0.003 A 
BRANCH   9  12
ATOM     12  N   UNL d   1     -50.343  11.848  23.274  0.00  0.00    -0.301 N 
ATOM     13  C   UNL d   1     -50.438  11.131  23.684  0.00  0.00     0.100 C 
ATOM     14  C   UNL d   1     -51.006  12.282  23.054  0.00  0.00     0.100 C 
ENDBRANCH   9  12
ENDBRANCH   4   6
BRANCH   1  15
ATOM     15  C   UNL d   1     -47.554  14.440  22.519  0.00  0.00     0.222 C 
ATOM     16  S   UNL d   1     -47.737  14.781  23.258  0.00  0.00    -0.037 SA
BRANCH  15  17
ATOM     17  N   UNL d   1     -47.847  14.795  21.802  0.00  0.00    -0.214 NA
ATOM     18  C   UNL d   1     -48.120  15.596  21.819  0.00  0.00     0.122 C 
ENDBRANCH  15  17
ENDBRANCH   1  15
BRANCH   3  19
ATOM     19  C   UNL d   1     -45.257  12.755  22.198  0.00  0.00     0.019 A 
ATOM     20  C   UNL d   1     -44.929  12.085  22.538  0.00  0.00     0.004 A 
ATOM     21  C   UNL d   1     -44.141  11.892  22.390  0.00  0.00     0.024 A 
ATOM     22  C   UNL d   1     -43.669  12.366  21.901  0.00  0.00     0.094 A 
ATOM     23  C   UNL d   1     -43.997  13.037  21.562  0.00  0.00     0.024 A 
ATOM     24  C   UNL d   1     -44.783  13.225  21.712  0.00  0.00     0.004 A 
BRANCH  22  25
ATOM     25  O   UNL d   1     -42.871  12.165  21.755  0.00  0.00    -0.328 OA
ATOM     26  C   UNL d   1     -42.385  12.690  21.331  0.00  0.00     0.181 C 
ENDBRANCH  22  25
ENDBRANCH   3  19
TORSDOF 6
ENDMDL
