MODEL 1
REMARK VINA RESULT:      -8.0      0.000      0.000
REMARK  3 active torsions:
REMARK  status: ('A' for Active; 'I' for Inactive)
REMARK    1  A    between atoms: C_6  and  N_1 
REMARK    2  A    between atoms: C_8  and  C_6 
REMARK    3  A    between atoms: O_15  and  C_9 
ROOT
ATOM      1  N   UNL d   1     -48.970  12.767  22.869  0.00  0.00    -0.268 N 
ATOM      2  C   UNL d   1     -49.060  12.013  22.546  0.00  0.00     0.296 A 
ATOM      3  S   UNL d   1     -49.698  12.042  22.008  0.00  0.00    -0.025 SA
ATOM      4  C   UNL d   1     -49.547  13.260  22.534  0.00  0.00     0.073 A 
ATOM      5  C   UNL d   1     -49.990  12.819  22.010  0.00  0.00     0.050 A 
ATOM      6  O   UNL d   1     -48.602  11.356  22.725  0.00  0.00    -0.259 OA
ATOM      7  C   UNL d   1     -49.717  14.059  22.649  0.00  0.00     0.018 A 
ATOM      8  C   UNL d   1     -50.614  13.166  21.587  0.00  0.00     0.008 A 
ATOM      9  C   UNL d   1     -50.336  14.413  22.232  0.00  0.00     0.002 A 
ATOM     10  C   UNL d   1     -50.787  13.963  21.698  0.00  0.00     0.001 A 
ENDROOT
BRANCH   1  11
ATOM     11  C   UNL d   1     -48.406  12.994  23.427  0.00  0.00     0.084 C 
BRANCH  11  12
ATOM     12  C   UNL d   1     -47.629  13.130  23.195  0.00  0.00     0.018 A 
ATOM     13  C   UNL d   1     -47.080  12.515  23.233  0.00  0.00     0.004 A 
ATOM     14  C   UNL d   1     -46.303  12.646  23.002  0.00  0.00     0.024 A 
ATOM     15  C   UNL d   1     -46.067  13.393  22.733  0.00  0.00     0.094 A 
ATOM     16  C   UNL d   1     -46.625  14.008  22.697  0.00  0.00     0.024 A 
ATOM     17  C   UNL d   1     -47.401  13.872  22.929  0.00  0.00     0.004 A 
BRANCH  15  18
ATOM     18  O   UNL d   1     -45.300  13.562  22.494  0.00  0.00    -0.328 OA
ATOM     19  C   UNL d   1     -44.926  13.086  21.940  0.00  0.00     0.181 C 
ENDBRANCH  15  18
ENDBRANCH  11  12
ENDBRANCH   1  11
TORSDOF 3
ENDMDL
MODEL 2
REMARK VINA RESULT:      -7.0      1.558      3.806
REMARK  3 active torsions:
REMARK  status: ('A' for Active; 'I' for Inactive)
REMARK    1  A    between atoms: C_6  and  N_1 
REMARK    2  A    between atoms: C_8  and  C_6 
REMARK    3  A    between atoms: O_15  and  C_9 
ROOT
ATOM      1  N   UNL d   1     -47.247  13.575  23.227  0.00  0.00    -0.268 N 
ATOM      2  C   UNL d   1     -46.709  14.039  22.806  0.00  0.00     0.296 A 
ATOM      3  S   UNL d   1     -46.042  13.565  22.639  0.00  0.00    -0.025 SA
ATOM      4  C   UNL d   1     -46.915  12.820  23.320  0.00  0.00     0.073 A 
ATOM      5  C   UNL d   1     -46.182  12.814  22.963  0.00  0.00     0.050 A 
ATOM      6  O   UNL d   1     -46.817  14.824  22.593  0.00  0.00    -0.259 OA
ATOM      7  C   UNL d   1     -47.200  12.140  23.690  0.00  0.00     0.018 A 
ATOM      8  C   UNL d   1     -45.715  12.128  22.966  0.00  0.00     0.008 A 
ATOM      9  C   UNL d   1     -46.742  11.453  23.698  0.00  0.00     0.002 A 
ATOM     10  C   UNL d   1     -45.995  11.447  23.334  0.00  0.00     0.001 A 
ENDROOT
BRANCH   1  11
ATOM     11  C   UNL d   1     -47.984  13.816  23.507  0.00  0.00     0.084 C 
BRANCH  11  12
ATOM     12  C   UNL d   1     -48.615  13.899  22.987  0.00  0.00     0.018 A 
ATOM     13  C   UNL d   1     -49.070  13.239  22.791  0.00  0.00     0.004 A 
ATOM     14  C   UNL d   1     -49.701  13.317  22.272  0.00  0.00     0.024 A 
ATOM     15  C   UNL d   1     -49.884  14.055  21.944  0.00  0.00     0.094 A 
ATOM     16  C   UNL d   1     -49.423  14.716  22.145  0.00  0.00     0.024 A 
ATOM     17  C   UNL d   1     -48.792  14.633  22.665  0.00  0.00     0.004 A 
BRANCH  15  18
ATOM     18  O   UNL d   1     -50.507  14.172  21.422  0.00  0.00    -0.328 OA
ATOM     19  C   UNL d   1     -51.064  13.581  21.306  0.00  0.00     0.181 C 
ENDBRANCH  15  18
ENDBRANCH  11  12
ENDBRANCH   1  11
TORSDOF 3
ENDMDL
MODEL 3
REMARK VINA RESULT:      -6.2      8.794      9.735
REMARK  3 active torsions:
REMARK  status: ('A' for Active; 'I' for Inactive)
REMARK    1  A    between atoms: C_6  and  N_1 
REMARK    2  A    between atoms: C_8  and  C_6 
REMARK    3  A    between atoms: O_15  and  C_9 
ROOT
ATOM      1  N   UNL d   1     -40.405  14.663  18.074  0.00  0.00    -0.268 N 
ATOM      2  C   UNL d   1     -40.609  15.317  17.612  0.00  0.00     0.296 A 
ATOM      3  S   UNL d   1     -40.104  15.325  16.947  0.00  0.00    -0.025 SA
ATOM      4  C   UNL d   1     -39.778  14.270  17.698  0.00  0.00     0.073 A 
ATOM      5  C   UNL d   1     -39.595  14.673  17.013  0.00  0.00     0.050 A 
ATOM      6  O   UNL d   1     -41.203  15.857  17.781  0.00  0.00    -0.259 OA
ATOM      7  C   UNL d   1     -39.355  13.592  17.904  0.00  0.00     0.018 A 
ATOM      8  C   UNL d   1     -38.985  14.408  16.516  0.00  0.00     0.008 A 
ATOM      9  C   UNL d   1     -38.747  13.322  17.416  0.00  0.00     0.002 A 
ATOM     10  C   UNL d   1     -38.560  13.732  16.718  0.00  0.00     0.001 A 
ENDROOT
BRANCH   1  11
ATOM     11  C   UNL d   1     -40.759  14.438  18.784  0.00  0.00     0.084 C 
BRANCH  11  12
ATOM     12  C   UNL d   1     -40.537  14.800  19.488  0.00  0.00     0.018 A 
ATOM     13  C   UNL d   1     -40.055  14.392  20.019  0.00  0.00     0.004 A 
ATOM     14  C   UNL d   1     -39.831  14.750  20.724  0.00  0.00     0.024 A 
ATOM     15  C   UNL d   1     -40.086  15.516  20.904  0.00  0.00     0.094 A 
ATOM     16  C   UNL d   1     -40.571  15.922  20.364  0.00  0.00     0.024 A 
ATOM     17  C   UNL d   1     -40.793  15.560  19.660  0.00  0.00     0.004 A 
BRANCH  15  18
ATOM     18  O   UNL d   1     -39.883  15.906  21.597  0.00  0.00    -0.328 OA
ATOM     19  C   UNL d   1     -39.277  15.616  22.070  0.00  0.00     0.181 C 
ENDBRANCH  15  18
ENDBRANCH  11  12
ENDBRANCH   1  11
TORSDOF 3
ENDMDL
MODEL 4
REMARK VINA RESULT:      -5.6      8.543      9.556
REMARK  3 active torsions:
REMARK  status: ('A' for Active; 'I' for Inactive)
REMARK    1  A    between atoms: C_6  and  N_1 
REMARK    2  A    between atoms: C_8  and  C_6 
REMARK    3  A    between atoms: O_15  and  C_9 
ROOT
ATOM      1  N   UNL d   1     -40.446  14.785  20.079  0.00  0.00    -0.268 N 
ATOM      2  C   UNL d   1     -40.718  15.565  20.102  0.00  0.00     0.296 A 
ATOM      3  S   UNL d   1     -40.411  15.920  20.792  0.00  0.00    -0.025 SA
ATOM      4  C   UNL d   1     -39.973  14.659  20.749  0.00  0.00     0.073 A 
ATOM      5  C   UNL d   1     -39.952  15.350  21.183  0.00  0.00     0.050 A 
ATOM      6  O   UNL d   1     -41.204  15.920  19.544  0.00  0.00    -0.259 OA
ATOM      7  C   UNL d   1     -39.562  13.994  21.011  0.00  0.00     0.018 A 
ATOM      8  C   UNL d   1     -39.519  15.392  21.890  0.00  0.00     0.008 A 
ATOM      9  C   UNL d   1     -39.128  14.028  21.712  0.00  0.00     0.002 A 
ATOM     10  C   UNL d   1     -39.106  14.731  22.155  0.00  0.00     0.001 A 
ENDROOT
BRANCH   1  11
ATOM     11  C   UNL d   1     -40.612  14.228  19.494  0.00  0.00     0.084 C 
BRANCH  11  12
ATOM     12  C   UNL d   1     -40.246  14.280  18.760  0.00  0.00     0.018 A 
ATOM     13  C   UNL d   1     -39.508  13.927  18.649  0.00  0.00     0.004 A 
ATOM     14  C   UNL d   1     -39.138  13.976  17.918  0.00  0.00     0.024 A 
ATOM     15  C   UNL d   1     -39.500  14.377  17.291  0.00  0.00     0.094 A 
ATOM     16  C   UNL d   1     -40.244  14.730  17.409  0.00  0.00     0.024 A 
ATOM     17  C   UNL d   1     -40.610  14.679  18.143  0.00  0.00     0.004 A 
BRANCH  15  18
ATOM     18  O   UNL d   1     -39.162  14.447  16.546  0.00  0.00    -0.328 OA
ATOM     19  C   UNL d   1     -38.547  13.949  16.325  0.00  0.00     0.181 C 
ENDBRANCH  15  18
ENDBRANCH  11  12
ENDBRANCH   1  11
TORSDOF 3
ENDMDL
MODEL 5
REMARK VINA RESULT:      -5.2      8.554     10.060
REMARK  3 active torsions:
REMARK  status: ('A' for Active; 'I' for Inactive)
REMARK    1  A    between atoms: C_6  and  N_1 
REMARK    2  A    between atoms: C_8  and  C_6 
REMARK    3  A    between atoms: O_15  and  C_9 
ROOT
ATOM      1  N   UNL d   1     -39.385  15.891  19.375  0.00  0.00    -0.268 N 
ATOM      2  C   UNL d   1     -38.722  15.906  19.867  0.00  0.00     0.296 A 
ATOM      3  S   UNL d   1     -38.992  15.920  20.657  0.00  0.00    -0.025 SA
ATOM      4  C   UNL d   1     -40.061  15.895  19.857  0.00  0.00     0.073 A 
ATOM      5  C   UNL d   1     -39.822  15.913  20.636  0.00  0.00     0.050 A 
ATOM      6  O   UNL d   1     -37.940  15.907  19.618  0.00  0.00    -0.259 OA
ATOM      7  C   UNL d   1     -40.865  15.885  19.671  0.00  0.00     0.018 A 
ATOM      8  C   UNL d   1     -40.380  15.921  21.250  0.00  0.00     0.008 A 
ATOM      9  C   UNL d   1     -41.427  15.893  20.276  0.00  0.00     0.002 A 
ATOM     10  C   UNL d   1     -41.184  15.911  21.070  0.00  0.00     0.001 A 
ENDROOT
BRANCH   1  11
ATOM     11  C   UNL d   1     -39.380  15.874  18.551  0.00  0.00     0.084 C 
BRANCH  11  12
ATOM     12  C   UNL d   1     -39.201  15.177  18.154  0.00  0.00     0.018 A 
ATOM     13  C   UNL d   1     -39.782  14.596  18.072  0.00  0.00     0.004 A 
ATOM     14  C   UNL d   1     -39.608  13.897  17.677  0.00  0.00     0.024 A 
ATOM     15  C   UNL d   1     -38.854  13.772  17.359  0.00  0.00     0.094 A 
ATOM     16  C   UNL d   1     -38.273  14.362  17.445  0.00  0.00     0.024 A 
ATOM     17  C   UNL d   1     -38.452  15.059  17.842  0.00  0.00     0.004 A 
BRANCH  15  18
ATOM     18  O   UNL d   1     -38.643  13.089  16.958  0.00  0.00    -0.328 OA
ATOM     19  C   UNL d   1     -38.224  12.497  17.344  0.00  0.00     0.181 C 
ENDBRANCH  15  18
ENDBRANCH  11  12
ENDBRANCH   1  11
TORSDOF 3
ENDMDL
