MODEL 1
REMARK VINA RESULT:      73.0      0.000      0.000
REMARK  5 active torsions:
REMARK  status: ('A' for Active; 'I' for Inactive)
REMARK    1  A    between atoms: N_3  and  C_1 
REMARK       I    between atoms: C_9  and  N_3 
REMARK       I    between atoms: N_5  and  C_8 
REMARK    2  A    between atoms: C_8  and  C_16 
REMARK    3  A    between atoms: C_17  and  C_9 
REMARK    4  A    between atoms: S_13  and  C_17 
REMARK    5  A    between atoms: C_16  and  S_13 
ROOT
ATOM      1  N   UNL d   1      60.704  47.734  50.275  0.00  0.00    -0.183 NA
ATOM      2  C   UNL d   1      61.348  48.258  50.300  0.00  0.00     0.287 C 
ATOM      3  O   UNL d   1      62.115  47.977  50.158  0.00  0.00    -0.265 OA
ENDROOT
BRANCH   2   4
ATOM      4  C   UNL d   1      61.231  49.053  50.465  0.00  0.00     0.098 C 
BRANCH   4   5
ATOM      5  S   UNL d   1      60.557  49.303  50.879  0.00  0.00    -0.076 SA
BRANCH   5   6
ATOM      6  C   UNL d   1      59.845  49.421  50.478  0.00  0.00     0.097 C 
BRANCH   6   7
ATOM      7  C   UNL d   1      59.134  49.460  50.893  0.00  0.00     0.271 C 
ATOM      8  N   UNL d   1      58.421  49.526  50.485  0.00  0.00    -0.272 N 
ATOM      9  C   UNL d   1      57.714  49.564  50.901  0.00  0.00     0.083 A 
ATOM     10  C   UNL d   1      58.415  49.553  49.657  0.00  0.00     0.083 A 
ATOM     11  C   UNL d   1      57.002  49.630  50.490  0.00  0.00     0.018 A 
ATOM     12  C   UNL d   1      56.292  49.669  50.905  0.00  0.00     0.002 C 
ATOM     13  C   UNL d   1      57.005  49.657  49.664  0.00  0.00     0.003 A 
ATOM     14  C   UNL d   1      57.717  49.618  49.244  0.00  0.00     0.019 A 
ATOM     15  O   UNL d   1      59.141  49.433  51.713  0.00  0.00    -0.266 OA
ENDBRANCH   6   7
ENDBRANCH   5   6
ENDBRANCH   4   5
ENDBRANCH   2   4
BRANCH   1  16
ATOM     16  C   UNL d   1      61.037  46.998  50.097  0.00  0.00     0.182 A 
ATOM     17  N   UNL d   1      60.906  46.291  50.508  0.00  0.00    -0.283 N 
ATOM     18  C   UNL d   1      61.348  45.692  50.141  0.00  0.00     0.072 A 
ATOM     19  C   UNL d   1      60.422  46.206  51.163  0.00  0.00     0.101 C 
ATOM     20  C   UNL d   1      61.437  44.891  50.300  0.00  0.00     0.017 A 
ATOM     21  C   UNL d   1      61.752  46.029  49.503  0.00  0.00     0.048 A 
ATOM     22  C   UNL d   1      61.918  44.428  49.835  0.00  0.00    -0.011 A 
ATOM     23  C   UNL d   1      62.322  44.765  49.197  0.00  0.00     0.027 A 
ATOM     24  C   UNL d   1      62.245  45.565  49.024  0.00  0.00    -0.004 A 
ATOM     25  S   UNL d   1      61.561  46.837  49.474  0.00  0.00    -0.048 SA
ENDBRANCH   1  16
TORSDOF 5
ENDMDL
