MODEL 1
REMARK VINA RESULT:      -2.6      0.000      0.000
REMARK  5 active torsions:
REMARK  status: ('A' for Active; 'I' for Inactive)
REMARK    1  A    between atoms: N_19  and  C_6 
REMARK    2  A    between atoms: N_15  and  C_21 
REMARK    3  A    between atoms: C_25  and  N_19 
REMARK    4  A    between atoms: C_21  and  C_22 
REMARK    5  A    between atoms: C_22  and  C_25 
ROOT
ATOM      1  N   UNL d   1     -41.473-122.687 -52.095  0.00  0.00    -0.183 N 
ATOM      2  C   UNL d   1     -41.552-122.083 -52.651  0.00  0.00     0.169 A 
ATOM      3  C   UNL d   1     -41.745-122.252 -53.422  0.00  0.00     0.073 A 
ATOM      4  C   UNL d   1     -41.858-123.030 -53.635  0.00  0.00     0.185 A 
ATOM      5  N   UNL d   1     -41.778-123.634 -53.078  0.00  0.00    -0.142 NA
ATOM      6  C   UNL d   1     -41.279-122.498 -51.328  0.00  0.00     0.218 A 
ATOM      7  N   UNL d   1     -41.437-121.306 -52.426  0.00  0.00    -0.226 NA
ATOM      8  C   UNL d   1     -41.824-121.655 -53.972  0.00  0.00     0.007 A 
ATOM      9  N   UNL d   1     -42.054-123.218 -54.412  0.00  0.00    -0.225 NA
ATOM     10  C   UNL d   1     -41.164-121.731 -51.101  0.00  0.00     0.071 A 
ATOM     11  C   UNL d   1     -42.018-121.825 -54.745  0.00  0.00     0.019 A 
ATOM     12  C   UNL d   1     -41.243-121.127 -51.657  0.00  0.00     0.087 A 
ATOM     13  C   UNL d   1     -42.134-122.614 -54.969  0.00  0.00     0.083 A 
ATOM     14  C   UNL d   1     -41.708-120.876 -53.746  0.00  0.00     0.000 C 
ATOM     15  C   UNL d   1     -41.123-120.321 -51.421  0.00  0.00     0.021 C 
ATOM     16  C   UNL d   1     -42.327-122.790 -55.735  0.00  0.00     0.021 C 
ENDROOT
BRANCH   6  17
ATOM     17  N   UNL d   1     -41.199-123.128 -50.760  0.00  0.00    -0.380 NA
BRANCH  17  18
ATOM     18  C   UNL d   1     -41.123-123.705 -50.147  0.00  0.00     0.164 C 
BRANCH  18  19
ATOM     19  C   UNL d   1     -41.155-123.467 -49.341  0.00  0.00     0.054 C 
BRANCH  19  20
ATOM     20  C   UNL d   1     -41.726-123.802 -48.829  0.00  0.00     0.084 C 
BRANCH  20  21
ATOM     21  N   UNL d   1     -41.739-123.593 -48.010  0.00  0.00    -0.285 N 
ATOM     22  C   UNL d   1     -41.148-123.765 -47.441  0.00  0.00     0.183 A 
ATOM     23  N   UNL d   1     -41.403-123.445 -46.692  0.00  0.00    -0.222 NA
ATOM     24  C   UNL d   1     -42.156-123.076 -46.805  0.00  0.00     0.120 A 
ATOM     25  C   UNL d   1     -42.369-123.166 -47.627  0.00  0.00     0.102 A 
ENDBRANCH  20  21
ENDBRANCH  19  20
ENDBRANCH  18  19
ENDBRANCH  17  18
ENDBRANCH   6  17
TORSDOF 5
ENDMDL
