MODEL 1
REMARK VINA RESULT:      61.4      0.000      0.000
REMARK  6 active torsions:
REMARK  status: ('A' for Active; 'I' for Inactive)
REMARK    1  A    between atoms: C_14  and  N_1 
REMARK    2  A    between atoms: S_12  and  C_3 
REMARK    3  A    between atoms: C_4  and  N_11 
REMARK    4  A    between atoms: C_15  and  C_8 
REMARK       I    between atoms: N_11  and  C_13 
REMARK    5  A    between atoms: C_17  and  S_12 
REMARK    6  A    between atoms: C_13  and  C_17 
ROOT
ATOM      1  N   UNL d   1     -48.618  28.281  34.162  0.00  0.00    -0.018 NA
ATOM      2  C   UNL d   1     -48.614  28.753  34.840  0.00  0.00     0.302 C 
ATOM      3  O   UNL d   1     -49.291  28.852  35.277  0.00  0.00    -0.264 OA
ENDROOT
BRANCH   2   4
ATOM      4  C   UNL d   1     -47.919  29.125  35.072  0.00  0.00     0.101 C 
BRANCH   4   5
ATOM      5  S   UNL d   1     -47.820  29.933  34.950  0.00  0.00    -0.041 SA
BRANCH   5   6
ATOM      6  C   UNL d   1     -47.388  30.383  35.484  0.00  0.00     0.219 A 
ATOM      7  N   UNL d   1     -47.289  31.202  35.358  0.00  0.00    -0.186 N 
ATOM      8  N   UNL d   1     -46.840  31.502  35.970  0.00  0.00    -0.038 NA
ATOM      9  N   UNL d   1     -46.657  30.884  36.478  0.00  0.00    -0.022 NA
ATOM     10  N   UNL d   1     -46.995  30.189  36.180  0.00  0.00    -0.101 NA
BRANCH   7  11
ATOM     11  C   UNL d   1     -47.582  31.659  34.731  0.00  0.00     0.087 A 
ATOM     12  C   UNL d   1     -48.386  31.817  34.673  0.00  0.00     0.019 A 
ATOM     13  C   UNL d   1     -48.675  32.273  34.047  0.00  0.00     0.002 A 
ATOM     14  C   UNL d   1     -48.155  32.570  33.481  0.00  0.00     0.000 A 
ATOM     15  C   UNL d   1     -47.340  32.409  33.541  0.00  0.00     0.002 A 
ATOM     16  C   UNL d   1     -47.061  31.950  34.173  0.00  0.00     0.019 A 
ENDBRANCH   7  11
ENDBRANCH   5   6
ENDBRANCH   4   5
ENDBRANCH   2   4
BRANCH   1  17
ATOM     17  C   UNL d   1     -49.320  27.901  33.922  0.00  0.00     0.760 A 
ATOM     18  N   UNL d   1     -49.474  27.084  33.933  0.00  0.00    -0.051 NA
ATOM     19  C   UNL d   1     -50.237  26.970  33.646  0.00  0.00     0.147 A 
ATOM     20  S   UNL d   1     -50.549  27.700  33.461  0.00  0.00     0.052 SA
ATOM     21  N   UNL d   1     -49.981  28.269  33.632  0.00  0.00    -0.019 NA
BRANCH  19  22
ATOM     22  C   UNL d   1     -50.686  26.279  33.532  0.00  0.00     0.026 A 
ATOM     23  C   UNL d   1     -51.509  26.322  33.485  0.00  0.00     0.002 A 
ATOM     24  C   UNL d   1     -51.950  25.633  33.371  0.00  0.00     0.000 A 
ATOM     25  C   UNL d   1     -51.576  24.918  33.306  0.00  0.00     0.000 A 
ATOM     26  C   UNL d   1     -50.747  24.862  33.351  0.00  0.00     0.000 A 
ATOM     27  C   UNL d   1     -50.306  25.552  33.465  0.00  0.00     0.002 A 
ENDBRANCH  19  22
ENDBRANCH   1  17
TORSDOF 6
ENDMDL
MODEL 2
REMARK VINA RESULT:      63.9      1.040      1.490
REMARK  6 active torsions:
REMARK  status: ('A' for Active; 'I' for Inactive)
REMARK    1  A    between atoms: C_14  and  N_1 
REMARK    2  A    between atoms: S_12  and  C_3 
REMARK    3  A    between atoms: C_4  and  N_11 
REMARK    4  A    between atoms: C_15  and  C_8 
REMARK       I    between atoms: N_11  and  C_13 
REMARK    5  A    between atoms: C_17  and  S_12 
REMARK    6  A    between atoms: C_13  and  C_17 
ROOT
ATOM      1  N   UNL d   1     -49.550  27.501  33.552  0.00  0.00    -0.018 NA
ATOM      2  C   UNL d   1     -49.606  28.322  33.624  0.00  0.00     0.302 C 
ATOM      3  O   UNL d   1     -50.331  28.688  33.619  0.00  0.00    -0.264 OA
ENDROOT
BRANCH   2   4
ATOM      4  C   UNL d   1     -48.922  28.771  33.701  0.00  0.00     0.101 C 
BRANCH   4   5
ATOM      5  S   UNL d   1     -48.818  29.259  34.356  0.00  0.00    -0.041 SA
BRANCH   5   6
ATOM      6  C   UNL d   1     -48.174  29.152  34.855  0.00  0.00     0.219 A 
ATOM      7  N   UNL d   1     -47.708  29.805  35.083  0.00  0.00    -0.186 N 
ATOM      8  N   UNL d   1     -47.114  29.536  35.574  0.00  0.00    -0.038 NA
ATOM      9  N   UNL d   1     -47.201  28.724  35.657  0.00  0.00    -0.022 NA
ATOM     10  N   UNL d   1     -47.857  28.483  35.213  0.00  0.00    -0.101 NA
BRANCH   7  11
ATOM     11  C   UNL d   1     -47.804  30.599  34.866  0.00  0.00     0.087 A 
ATOM     12  C   UNL d   1     -47.818  31.187  35.440  0.00  0.00     0.019 A 
ATOM     13  C   UNL d   1     -47.914  31.978  35.221  0.00  0.00     0.002 A 
ATOM     14  C   UNL d   1     -47.997  32.178  34.426  0.00  0.00     0.000 A 
ATOM     15  C   UNL d   1     -47.984  31.580  33.845  0.00  0.00     0.002 A 
ATOM     16  C   UNL d   1     -47.886  30.791  34.076  0.00  0.00     0.019 A 
ENDBRANCH   7  11
ENDBRANCH   5   6
ENDBRANCH   4   5
ENDBRANCH   2   4
BRANCH   1  17
ATOM     17  C   UNL d   1     -50.240  27.041  33.473  0.00  0.00     0.760 A 
ATOM     18  N   UNL d   1     -50.292  26.211  33.502  0.00  0.00    -0.051 NA
ATOM     19  C   UNL d   1     -51.083  26.007  33.397  0.00  0.00     0.147 A 
ATOM     20  S   UNL d   1     -51.512  26.695  33.306  0.00  0.00     0.052 SA
ATOM     21  N   UNL d   1     -50.989  27.327  33.353  0.00  0.00    -0.019 NA
BRANCH  19  22
ATOM     22  C   UNL d   1     -51.464  25.268  33.375  0.00  0.00     0.026 A 
ATOM     23  C   UNL d   1     -52.288  25.227  33.348  0.00  0.00     0.002 A 
ATOM     24  C   UNL d   1     -52.661  24.490  33.327  0.00  0.00     0.000 A 
ATOM     25  C   UNL d   1     -52.220  23.811  33.331  0.00  0.00     0.000 A 
ATOM     26  C   UNL d   1     -51.389  23.841  33.358  0.00  0.00     0.000 A 
ATOM     27  C   UNL d   1     -51.015  24.578  33.380  0.00  0.00     0.002 A 
ENDBRANCH  19  22
ENDBRANCH   1  17
TORSDOF 6
ENDMDL
MODEL 3
REMARK VINA RESULT:      64.4      1.061      5.784
REMARK  6 active torsions:
REMARK  status: ('A' for Active; 'I' for Inactive)
REMARK    1  A    between atoms: C_14  and  N_1 
REMARK    2  A    between atoms: S_12  and  C_3 
REMARK    3  A    between atoms: C_4  and  N_11 
REMARK    4  A    between atoms: C_15  and  C_8 
REMARK       I    between atoms: N_11  and  C_13 
REMARK    5  A    between atoms: C_17  and  S_12 
REMARK    6  A    between atoms: C_13  and  C_17 
ROOT
ATOM      1  N   UNL d   1     -48.368  28.805  35.229  0.00  0.00    -0.018 NA
ATOM      2  C   UNL d   1     -48.680  28.421  34.567  0.00  0.00     0.302 C 
ATOM      3  O   UNL d   1     -48.643  28.768  33.834  0.00  0.00    -0.264 OA
ENDROOT
BRANCH   2   4
ATOM      4  C   UNL d   1     -49.028  27.682  34.654  0.00  0.00     0.101 C 
BRANCH   4   5
ATOM      5  S   UNL d   1     -49.510  27.378  34.059  0.00  0.00    -0.041 SA
BRANCH   5   6
ATOM      6  C   UNL d   1     -49.415  26.602  33.805  0.00  0.00     0.219 A 
ATOM      7  N   UNL d   1     -50.071  26.174  33.519  0.00  0.00    -0.186 N 
ATOM      8  N   UNL d   1     -49.817  25.427  33.309  0.00  0.00    -0.038 NA
ATOM      9  N   UNL d   1     -49.011  25.382  33.459  0.00  0.00    -0.022 NA
ATOM     10  N   UNL d   1     -48.759  26.109  33.767  0.00  0.00    -0.101 NA
BRANCH   7  11
ATOM     11  C   UNL d   1     -50.856  26.431  33.448  0.00  0.00     0.087 A 
ATOM     12  C   UNL d   1     -51.473  25.888  33.449  0.00  0.00     0.019 A 
ATOM     13  C   UNL d   1     -52.254  26.147  33.377  0.00  0.00     0.002 A 
ATOM     14  C   UNL d   1     -52.415  26.952  33.306  0.00  0.00     0.000 A 
ATOM     15  C   UNL d   1     -51.789  27.502  33.306  0.00  0.00     0.002 A 
ATOM     16  C   UNL d   1     -51.009  27.231  33.378  0.00  0.00     0.019 A 
ENDBRANCH   7  11
ENDBRANCH   5   6
ENDBRANCH   4   5
ENDBRANCH   2   4
BRANCH   1  17
ATOM     17  C   UNL d   1     -48.013  29.555  35.147  0.00  0.00     0.760 A 
ATOM     18  N   UNL d   1     -48.324  30.213  34.746  0.00  0.00    -0.051 NA
ATOM     19  C   UNL d   1     -47.779  30.827  34.814  0.00  0.00     0.147 A 
ATOM     20  S   UNL d   1     -47.145  30.555  35.247  0.00  0.00     0.052 SA
ATOM     21  N   UNL d   1     -47.293  29.773  35.450  0.00  0.00    -0.019 NA
BRANCH  19  22
ATOM     22  C   UNL d   1     -47.790  31.608  34.527  0.00  0.00     0.026 A 
ATOM     23  C   UNL d   1     -47.268  32.169  34.834  0.00  0.00     0.002 A 
ATOM     24  C   UNL d   1     -47.283  32.943  34.546  0.00  0.00     0.000 A 
ATOM     25  C   UNL d   1     -47.807  33.151  33.966  0.00  0.00     0.000 A 
ATOM     26  C   UNL d   1     -48.338  32.594  33.650  0.00  0.00     0.000 A 
ATOM     27  C   UNL d   1     -48.324  31.819  33.937  0.00  0.00     0.002 A 
ENDBRANCH  19  22
ENDBRANCH   1  17
TORSDOF 6
ENDMDL
