MODEL 1
REMARK VINA RESULT:       0.1      0.000      0.000
REMARK  5 active torsions:
REMARK  status: ('A' for Active; 'I' for Inactive)
REMARK    1  A    between atoms: C_11  and  N_1 
REMARK    2  A    between atoms: C_2  and  S_13 
REMARK       I    between atoms: C_12  and  N_14 
REMARK    3  A    between atoms: C_18  and  C_12 
REMARK    4  A    between atoms: S_13  and  C_18 
REMARK    5  A    between atoms: N_14  and  C_19 
ROOT
ATOM      1  C   UNL d   1     -41.408-121.263 -51.477  0.00  0.00     0.286 C 
ATOM      2  N   UNL d   1     -41.376-120.894 -52.214  0.00  0.00    -0.208 NA
ATOM      3  O   UNL d   1     -41.142-120.863 -50.805  0.00  0.00    -0.265 OA
ENDROOT
BRANCH   1   4
ATOM      4  C   UNL d   1     -41.707-122.034 -51.415  0.00  0.00     0.101 C 
BRANCH   4   5
ATOM      5  S   UNL d   1     -41.324-122.581 -50.923  0.00  0.00    -0.037 SA
BRANCH   5   6
ATOM      6  C   UNL d   1     -41.719-122.866 -50.245  0.00  0.00     0.215 A 
ATOM      7  N   UNL d   1     -42.519-123.076 -50.203  0.00  0.00    -0.214 NA
ATOM      8  C   UNL d   1     -42.677-123.328 -49.432  0.00  0.00     0.107 A 
ATOM      9  C   UNL d   1     -43.366-123.598 -49.075  0.00  0.00     0.021 A 
ATOM     10  C   UNL d   1     -41.981-123.275 -49.003  0.00  0.00     0.120 A 
ATOM     11  C   UNL d   1     -43.358-123.816 -48.279  0.00  0.00     0.002 A 
ATOM     12  C   UNL d   1     -42.658-123.764 -47.843  0.00  0.00     0.002 A 
ATOM     13  C   UNL d   1     -41.964-123.492 -48.208  0.00  0.00     0.026 A 
ATOM     14  O   UNL d   1     -41.382-122.990 -49.498  0.00  0.00    -0.283 OA
ENDBRANCH   5   6
ENDBRANCH   4   5
ENDBRANCH   1   4
BRANCH   2  15
ATOM     15  C   UNL d   1     -41.640-121.289 -52.885  0.00  0.00     0.085 A 
ATOM     16  C   UNL d   1     -41.123-121.803 -53.295  0.00  0.00     0.021 A 
ATOM     17  C   UNL d   1     -41.384-122.194 -53.958  0.00  0.00     0.021 A 
ATOM     18  C   UNL d   1     -42.157-122.092 -54.237  0.00  0.00     0.086 A 
ATOM     19  C   UNL d   1     -42.664-121.585 -53.831  0.00  0.00     0.021 A 
ATOM     20  C   UNL d   1     -42.405-121.183 -53.154  0.00  0.00     0.021 A 
BRANCH  18  21
ATOM     21  N   UNL d   1     -42.420-122.486 -54.907  0.00  0.00    -0.189 N 
ATOM     22  N   UNL d   1     -42.327-123.288 -55.072  0.00  0.00    -0.038 NA
ATOM     23  N   UNL d   1     -42.677-123.438 -55.801  0.00  0.00    -0.022 NA
ATOM     24  N   UNL d   1     -42.987-122.736 -56.093  0.00  0.00    -0.104 NA
ATOM     25  C   UNL d   1     -42.828-122.145 -55.537  0.00  0.00     0.226 A 
ENDBRANCH  18  21
ENDBRANCH   2  15
TORSDOF 5
ENDMDL
