MODEL 1
REMARK VINA RESULT:      -7.7      0.000      0.000
REMARK  6 active torsions:
REMARK  status: ('A' for Active; 'I' for Inactive)
REMARK    1  A    between atoms: N_2  and  S_1 
REMARK    2  A    between atoms: C_4  and  S_1 
REMARK    3  A    between atoms: C_3  and  N_2 
REMARK    4  A    between atoms: N_7  and  C_3 
REMARK    5  A    between atoms: C_11  and  N_7 
REMARK    6  A    between atoms: C_15  and  C_14 
ROOT
ATOM      1  S   UNL d   1      50.991  34.052  52.815  0.00  0.00     0.287 S 
ATOM      2  O   UNL d   1      50.548  33.664  53.392  0.00  0.00    -0.198 OA
ATOM      3  O   UNL d   1      51.436  34.443  52.234  0.00  0.00    -0.198 OA
ENDROOT
BRANCH   1   4
ATOM      4  N   UNL d   1      51.690  33.797  53.180  0.00  0.00    -0.128 NA
BRANCH   4   5
ATOM      5  C   UNL d   1      52.393  33.368  53.135  0.00  0.00     0.232 C 
ATOM      6  S   UNL d   1      52.378  32.558  52.980  0.00  0.00    -0.036 SA
BRANCH   5   7
ATOM      7  N   UNL d   1      53.113  33.753  53.247  0.00  0.00    -0.217 NA
BRANCH   7   8
ATOM      8  C   UNL d   1      53.588  33.546  53.892  0.00  0.00     0.084 A 
ATOM      9  C   UNL d   1      53.670  34.073  54.520  0.00  0.00     0.019 A 
ATOM     10  C   UNL d   1      54.140  33.873  55.164  0.00  0.00     0.002 A 
ATOM     11  C   UNL d   1      54.525  33.153  55.182  0.00  0.00     0.000 A 
ATOM     12  C   UNL d   1      54.440  32.629  54.551  0.00  0.00     0.002 A 
ATOM     13  C   UNL d   1      53.973  32.825  53.910  0.00  0.00     0.019 A 
ENDBRANCH   7   8
ENDBRANCH   5   7
ENDBRANCH   4   5
ENDBRANCH   1   4
BRANCH   1  14
ATOM     14  C   UNL d   1      50.287  34.308  52.448  0.00  0.00     0.105 A 
ATOM     15  C   UNL d   1      50.150  34.121  51.656  0.00  0.00     0.013 A 
ATOM     16  C   UNL d   1      49.446  34.377  51.290  0.00  0.00     0.001 A 
ATOM     17  C   UNL d   1      48.884  34.819  51.718  0.00  0.00     0.000 A 
ATOM     18  C   UNL d   1      49.028  35.004  52.514  0.00  0.00     0.001 A 
ATOM     19  C   UNL d   1      49.724  34.751  52.876  0.00  0.00     0.013 A 
BRANCH  17  20
ATOM     20  C   UNL d   1      48.191  35.067  51.345  0.00  0.00     0.000 C 
ATOM     21  C   UNL d   1      47.672  35.571  51.730  0.00  0.00     0.000 C 
ENDBRANCH  17  20
ENDBRANCH   1  14
TORSDOF 6
ENDMDL
MODEL 2
REMARK VINA RESULT:      -7.1      0.900      5.001
REMARK  6 active torsions:
REMARK  status: ('A' for Active; 'I' for Inactive)
REMARK    1  A    between atoms: N_2  and  S_1 
REMARK    2  A    between atoms: C_4  and  S_1 
REMARK    3  A    between atoms: C_3  and  N_2 
REMARK    4  A    between atoms: N_7  and  C_3 
REMARK    5  A    between atoms: C_11  and  N_7 
REMARK    6  A    between atoms: C_15  and  C_14 
ROOT
ATOM      1  S   UNL d   1      52.005  34.213  53.450  0.00  0.00     0.287 S 
ATOM      2  O   UNL d   1      51.621  33.537  53.727  0.00  0.00    -0.198 OA
ATOM      3  O   UNL d   1      52.391  34.892  53.172  0.00  0.00    -0.198 OA
ENDROOT
BRANCH   1   4
ATOM      4  N   UNL d   1      51.309  34.450  53.066  0.00  0.00    -0.128 NA
BRANCH   4   5
ATOM      5  C   UNL d   1      50.703  34.276  52.534  0.00  0.00     0.232 C 
ATOM      6  S   UNL d   1      50.865  34.188  51.730  0.00  0.00    -0.036 SA
BRANCH   5   7
ATOM      7  N   UNL d   1      49.931  34.191  52.811  0.00  0.00    -0.217 NA
BRANCH   7   8
ATOM      8  C   UNL d   1      49.333  34.667  52.496  0.00  0.00     0.084 A 
ATOM      9  C   UNL d   1      49.017  35.275  52.952  0.00  0.00     0.019 A 
ATOM     10  C   UNL d   1      48.422  35.752  52.645  0.00  0.00     0.002 A 
ATOM     11  C   UNL d   1      48.143  35.622  51.888  0.00  0.00     0.000 A 
ATOM     12  C   UNL d   1      48.462  35.011  51.435  0.00  0.00     0.002 A 
ATOM     13  C   UNL d   1      49.054  34.537  51.739  0.00  0.00     0.019 A 
ENDBRANCH   7   8
ENDBRANCH   5   7
ENDBRANCH   4   5
ENDBRANCH   1   4
BRANCH   1  14
ATOM     14  C   UNL d   1      52.704  33.973  53.837  0.00  0.00     0.105 A 
ATOM     15  C   UNL d   1      52.993  34.421  54.466  0.00  0.00     0.013 A 
ATOM     16  C   UNL d   1      53.692  34.181  54.853  0.00  0.00     0.001 A 
ATOM     17  C   UNL d   1      54.097  33.495  54.607  0.00  0.00     0.000 A 
ATOM     18  C   UNL d   1      53.800  33.049  53.973  0.00  0.00     0.001 A 
ATOM     19  C   UNL d   1      53.108  33.287  53.591  0.00  0.00     0.013 A 
BRANCH  17  20
ATOM     20  C   UNL d   1      54.787  33.267  54.997  0.00  0.00     0.000 C 
ATOM     21  C   UNL d   1      55.318  33.833  55.261  0.00  0.00     0.000 C 
ENDBRANCH  17  20
ENDBRANCH   1  14
TORSDOF 6
ENDMDL
MODEL 3
REMARK VINA RESULT:      -7.1      2.078      5.003
REMARK  6 active torsions:
REMARK  status: ('A' for Active; 'I' for Inactive)
REMARK    1  A    between atoms: N_2  and  S_1 
REMARK    2  A    between atoms: C_4  and  S_1 
REMARK    3  A    between atoms: C_3  and  N_2 
REMARK    4  A    between atoms: N_7  and  C_3 
REMARK    5  A    between atoms: C_11  and  N_7 
REMARK    6  A    between atoms: C_15  and  C_14 
ROOT
ATOM      1  S   UNL d   1      52.554  32.006  52.989  0.00  0.00     0.287 S 
ATOM      2  O   UNL d   1      53.286  32.168  52.645  0.00  0.00    -0.198 OA
ATOM      3  O   UNL d   1      51.818  31.842  53.334  0.00  0.00    -0.198 OA
ENDROOT
BRANCH   1   4
ATOM      4  N   UNL d   1      52.269  32.740  52.729  0.00  0.00    -0.128 NA
BRANCH   4   5
ATOM      5  C   UNL d   1      52.138  33.540  52.882  0.00  0.00     0.232 C 
ATOM      6  S   UNL d   1      52.296  33.853  53.629  0.00  0.00    -0.036 SA
BRANCH   5   7
ATOM      7  N   UNL d   1      51.849  34.026  52.283  0.00  0.00    -0.217 NA
BRANCH   7   8
ATOM      8  C   UNL d   1      51.052  34.248  52.290  0.00  0.00     0.084 A 
ATOM      9  C   UNL d   1      50.597  34.141  51.613  0.00  0.00     0.019 A 
ATOM     10  C   UNL d   1      49.804  34.359  51.613  0.00  0.00     0.002 A 
ATOM     11  C   UNL d   1      49.468  34.681  52.284  0.00  0.00     0.000 A 
ATOM     12  C   UNL d   1      49.929  34.787  52.960  0.00  0.00     0.002 A 
ATOM     13  C   UNL d   1      50.717  34.570  52.962  0.00  0.00     0.019 A 
ENDBRANCH   7   8
ENDBRANCH   5   7
ENDBRANCH   4   5
ENDBRANCH   1   4
BRANCH   1  14
ATOM     14  C   UNL d   1      52.841  31.267  53.250  0.00  0.00     0.105 A 
ATOM     15  C   UNL d   1      52.494  30.574  52.968  0.00  0.00     0.013 A 
ATOM     16  C   UNL d   1      52.782  29.836  53.229  0.00  0.00     0.001 A 
ATOM     17  C   UNL d   1      53.414  29.797  53.771  0.00  0.00     0.000 A 
ATOM     18  C   UNL d   1      53.758  30.498  54.051  0.00  0.00     0.001 A 
ATOM     19  C   UNL d   1      53.474  31.228  53.792  0.00  0.00     0.013 A 
BRANCH  17  20
ATOM     20  C   UNL d   1      53.690  29.061  54.022  0.00  0.00     0.000 C 
ATOM     21  C   UNL d   1      53.457  28.758  54.747  0.00  0.00     0.000 C 
ENDBRANCH  17  20
ENDBRANCH   1  14
TORSDOF 6
ENDMDL
