MODEL 1
REMARK VINA RESULT:      -0.7      0.000      0.000
REMARK  7 active torsions:
REMARK  status: ('A' for Active; 'I' for Inactive)
REMARK    1  A    between atoms: C_14  and  N_3 
REMARK    2  A    between atoms: C_10  and  C_6 
REMARK    3  A    between atoms: C_15  and  C_14 
REMARK    4  A    between atoms: C_20  and  C_15 
REMARK    5  A    between atoms: N_16  and  C_20 
REMARK    6  A    between atoms: C_23  and  N_16 
REMARK    7  A    between atoms: C_24  and  N_16 
ROOT
ATOM      1  C   UNL d   1      58.011  -0.601  30.898  0.00  0.00     0.083 A 
ATOM      2  C   UNL d   1      57.451  -1.187  30.824  0.00  0.00     0.161 A 
ATOM      3  N   UNL d   1      58.393  -1.422  29.937  0.00  0.00    -0.272 N 
ATOM      4  C   UNL d   1      57.685  -1.695  30.231  0.00  0.00     0.288 A 
ATOM      5  C   UNL d   1      57.918  -0.011  31.455  0.00  0.00     0.201 A 
ATOM      6  C   UNL d   1      58.594  -0.749  30.347  0.00  0.00     0.074 A 
ATOM      7  O   UNL d   1      56.790  -1.183  31.313  0.00  0.00    -0.302 OA
ATOM      8  C   UNL d   1      57.254  -0.010  31.945  0.00  0.00     0.062 A 
ATOM      9  C   UNL d   1      56.693  -0.596  31.870  0.00  0.00     0.103 A 
ATOM     10  O   UNL d   1      57.277  -2.365  29.975  0.00  0.00    -0.264 OA
ATOM     11  O   UNL d   1      58.494   0.592  31.532  0.00  0.00    -0.286 OA
ATOM     12  C   UNL d   1      57.161   0.580  32.502  0.00  0.00     0.005 A 
ATOM     13  C   UNL d   1      56.037  -0.595  32.353  0.00  0.00     0.025 A 
ATOM     14  C   UNL d   1      56.501   0.578  32.985  0.00  0.00     0.000 A 
ATOM     15  C   UNL d   1      55.941  -0.008  32.911  0.00  0.00     0.002 A 
ENDROOT
BRANCH   3  16
ATOM     16  C   UNL d   1      58.834  -1.767  29.327  0.00  0.00     0.085 C 
BRANCH  16  17
ATOM     17  C   UNL d   1      58.855  -2.600  29.241  0.00  0.00     0.038 C 
BRANCH  17  18
ATOM     18  C   UNL d   1      59.576  -3.005  29.293  0.00  0.00     0.082 C 
BRANCH  18  19
ATOM     19  N   UNL d   1      59.720  -3.659  28.802  0.00  0.00    -0.302 N 
BRANCH  19  20
ATOM     20  C   UNL d   1      59.084  -4.110  28.512  0.00  0.00     0.080 C 
ATOM     21  C   UNL d   1      59.141  -4.940  28.482  0.00  0.00     0.021 C 
ENDBRANCH  19  20
BRANCH  19  22
ATOM     22  C   UNL d   1      60.502  -3.865  28.600  0.00  0.00     0.080 C 
ATOM     23  C   UNL d   1      61.131  -3.675  29.111  0.00  0.00     0.021 C 
ENDBRANCH  19  22
ENDBRANCH  18  19
ENDBRANCH  17  18
ENDBRANCH  16  17
ENDBRANCH   3  16
BRANCH   6  24
ATOM     24  C   UNL d   1      59.277  -0.286  30.229  0.00  0.00     0.036 A 
ATOM     25  C   UNL d   1      59.330   0.216  29.567  0.00  0.00     0.100 A 
ATOM     26  N   UNL d   1      60.008   0.676  29.449  0.00  0.00    -0.242 NA
ATOM     27  C   UNL d   1      60.641   0.639  29.993  0.00  0.00     0.099 A 
ATOM     28  C   UNL d   1      60.584   0.136  30.655  0.00  0.00     0.021 A 
ATOM     29  C   UNL d   1      59.905  -0.325  30.774  0.00  0.00     0.005 A 
ENDBRANCH   6  24
TORSDOF 7
ENDMDL
