MODEL 1
REMARK VINA RESULT:      74.0      0.000      0.000
REMARK  3 active torsions:
REMARK  status: ('A' for Active; 'I' for Inactive)
REMARK    1  A    between atoms: N_2  and  S_1 
REMARK    2  A    between atoms: C_3  and  S_1 
REMARK    3  A    between atoms: C_5  and  N_4 
ROOT
ATOM      1  N   UNL d   1     -49.244  28.263  34.572  0.00  0.00    -0.226 N 
ATOM      2  N   UNL d   1     -50.184  26.985  34.152  0.00  0.00    -0.301 N 
ATOM      3  C   UNL d   1     -49.386  27.660  35.113  0.00  0.00     0.111 A 
ATOM      4  C   UNL d   1     -49.574  28.224  33.819  0.00  0.00     0.111 A 
ATOM      5  C   UNL d   1     -49.858  27.018  34.902  0.00  0.00     0.100 A 
ATOM      6  C   UNL d   1     -50.046  27.582  33.608  0.00  0.00     0.100 A 
ENDROOT
BRANCH   1   7
ATOM      7  S   UNL d   1     -48.771  28.905  34.783  0.00  0.00     0.271 S 
ATOM      8  O   UNL d   1     -49.267  29.410  34.359  0.00  0.00    -0.200 OA
ATOM      9  O   UNL d   1     -48.275  28.401  35.207  0.00  0.00    -0.200 OA
BRANCH   7  10
ATOM     10  C   UNL d   1     -48.299  29.548  34.994  0.00  0.00     0.104 A 
ATOM     11  C   UNL d   1     -48.346  30.252  34.571  0.00  0.00     0.015 A 
ATOM     12  C   UNL d   1     -47.873  30.894  34.782  0.00  0.00     0.028 A 
ATOM     13  C   UNL d   1     -47.922  31.600  34.354  0.00  0.00     0.002 C 
ATOM     14  C   UNL d   1     -47.354  30.833  35.417  0.00  0.00     0.140 A 
ATOM     15  C   UNL d   1     -47.306  30.129  35.841  0.00  0.00     0.030 A 
ATOM     16  F   UNL d   1     -46.881  31.475  35.628  0.00  0.00    -0.204 F 
ATOM     17  C   UNL d   1     -47.779  29.487  35.630  0.00  0.00     0.015 A 
ENDBRANCH   7  10
ENDBRANCH   1   7
BRANCH   2  18
ATOM     18  C   UNL d   1     -50.656  26.343  33.940  0.00  0.00     0.064 A 
ATOM     19  C   UNL d   1     -50.333  25.712  33.522  0.00  0.00     0.016 A 
ATOM     20  C   UNL d   1     -50.805  25.070  33.310  0.00  0.00     0.001 A 
ATOM     21  C   UNL d   1     -49.532  25.723  33.312  0.00  0.00     0.002 C 
ATOM     22  C   UNL d   1     -51.602  25.057  33.517  0.00  0.00     0.000 A 
ATOM     23  C   UNL d   1     -51.925  25.687  33.936  0.00  0.00     0.002 A 
ATOM     24  C   UNL d   1     -52.074  24.415  33.306  0.00  0.00     0.000 C 
ATOM     25  C   UNL d   1     -51.453  26.330  34.147  0.00  0.00     0.018 A 
ENDBRANCH   2  18
TORSDOF 3
ENDMDL
