MODEL 1
REMARK VINA RESULT:      55.7      0.000      0.000
REMARK  7 active torsions:
REMARK  status: ('A' for Active; 'I' for Inactive)
REMARK    1  A    between atoms: C_23  and  C_3 
REMARK    2  A    between atoms: S_18  and  C_5 
REMARK    3  A    between atoms: C_11  and  C_16 
REMARK       I    between atoms: N_14  and  C_11 
REMARK    4  A    between atoms: C_17  and  N_14 
REMARK    5  A    between atoms: C_16  and  C_21 
REMARK    6  A    between atoms: C_21  and  S_18 
REMARK    7  A    between atoms: O_24  and  C_22 
ROOT
ATOM      1  C   UNL d   1     -54.825-100.515 -43.738  0.00  0.00     0.092 A 
ATOM      2  C   UNL d   1     -54.780-101.285 -42.540  0.00  0.00     0.057 A 
ATOM      3  C   UNL d   1     -54.802-101.247 -43.363  0.00  0.00     0.016 A 
ATOM      4  N   UNL d   1     -54.804 -99.859 -42.471  0.00  0.00    -0.239 NA
ATOM      5  C   UNL d   1     -54.826 -99.821 -43.292  0.00  0.00     0.120 A 
ATOM      6  C   UNL d   1     -54.781-100.591 -42.094  0.00  0.00     0.081 A 
ATOM      7  C   UNL d   1     -54.756-102.017 -42.165  0.00  0.00     0.193 A 
ATOM      8  C   UNL d   1     -54.847-100.474 -44.573  0.00  0.00     0.103 C 
ATOM      9  N   UNL d   1     -54.870-100.444 -45.406  0.00  0.00    -0.191 NA
ATOM     10  C   UNL d   1     -54.735-101.366 -40.889  0.00  0.00     0.042 A 
ATOM     11  C   UNL d   1     -54.734-102.060 -41.336  0.00  0.00     0.019 A 
ATOM     12  C   UNL d   1     -54.759-100.630 -41.273  0.00  0.00    -0.003 A 
ATOM     13  O   UNL d   1     -54.755-102.711 -42.611  0.00  0.00    -0.287 OA
ATOM     14  C   UNL d   1     -54.728-100.858 -40.231  0.00  0.00     0.009 C 
ATOM     15  C   UNL d   1     -54.712-102.093 -40.505  0.00  0.00     0.009 C 
ENDROOT
BRANCH   3  16
ATOM     16  C   UNL d   1     -54.801-101.940 -43.809  0.00  0.00     0.001 C 
ATOM     17  C   UNL d   1     -54.712-101.905 -44.627  0.00  0.00     0.000 C 
ENDBRANCH   3  16
BRANCH   5  18
ATOM     18  S   UNL d   1     -54.850 -99.083 -43.679  0.00  0.00    -0.067 SA
BRANCH  18  19
ATOM     19  C   UNL d   1     -55.460 -98.911 -44.208  0.00  0.00     0.042 C 
BRANCH  19  20
ATOM     20  C   UNL d   1     -55.911 -99.525 -44.528  0.00  0.00     0.070 C 
BRANCH  20  21
ATOM     21  C   UNL d   1     -56.724 -99.402 -44.683  0.00  0.00     0.280 C 
ATOM     22  N   UNL d   1     -57.215 -99.133 -44.078  0.00  0.00    -0.208 NA
ATOM     23  O   UNL d   1     -57.024 -99.552 -45.437  0.00  0.00    -0.265 OA
BRANCH  22  24
ATOM     24  C   UNL d   1     -58.032 -99.010 -44.232  0.00  0.00     0.087 A 
ATOM     25  C   UNL d   1     -58.568 -99.008 -43.604  0.00  0.00     0.043 A 
ATOM     26  C   UNL d   1     -59.368 -98.886 -43.759  0.00  0.00     0.096 A 
ATOM     27  C   UNL d   1     -59.643 -98.766 -44.535  0.00  0.00     0.024 A 
ATOM     28  C   UNL d   1     -59.103 -98.769 -45.159  0.00  0.00     0.004 A 
ATOM     29  C   UNL d   1     -58.296 -98.890 -45.014  0.00  0.00     0.019 A 
BRANCH  26  30
ATOM     30  O   UNL d   1     -59.904 -98.884 -43.132  0.00  0.00    -0.328 OA
ATOM     31  C   UNL d   1     -59.788 -99.395 -42.491  0.00  0.00     0.181 C 
ENDBRANCH  26  30
ENDBRANCH  22  24
ENDBRANCH  20  21
ENDBRANCH  19  20
ENDBRANCH  18  19
ENDBRANCH   5  18
TORSDOF 7
ENDMDL
