MODEL 1
REMARK VINA RESULT:       1.0      0.000      0.000
REMARK  4 active torsions:
REMARK  status: ('A' for Active; 'I' for Inactive)
REMARK    1  A    between atoms: N_8  and  C_1 
REMARK    2  A    between atoms: C_12  and  C_2 
REMARK    3  A    between atoms: C_4  and  C_10 
REMARK       I    between atoms: C_10  and  N_8 
REMARK       I    between atoms: C_14  and  N_11 
REMARK    4  A    between atoms: O_22  and  C_12 
ROOT
ATOM      1  C   UNL d   1     -42.239-122.671 -50.822  0.00  0.00     0.119 A 
ATOM      2  C   UNL d   1     -42.864-122.395 -50.365  0.00  0.00     0.088 A 
ATOM      3  C   UNL d   1     -41.997-123.000 -49.553  0.00  0.00     0.049 A 
ATOM      4  C   UNL d   1     -42.713-122.600 -49.576  0.00  0.00     0.016 A 
ATOM      5  S   UNL d   1     -41.699-123.047 -50.314  0.00  0.00    -0.066 SA
ATOM      6  N   UNL d   1     -42.126-123.146 -48.134  0.00  0.00    -0.272 N 
ATOM      7  C   UNL d   1     -41.705-123.274 -48.820  0.00  0.00     0.089 A 
ATOM      8  C   UNL d   1     -41.845-123.414 -47.402  0.00  0.00     0.265 C 
ATOM      9  C   UNL d   1     -43.146-122.467 -48.883  0.00  0.00     0.020 A 
ATOM     10  C   UNL d   1     -42.852-122.740 -48.166  0.00  0.00     0.083 A 
ATOM     11  O   UNL d   1     -41.127-123.816 -47.371  0.00  0.00    -0.267 OA
ATOM     12  C   UNL d   1     -42.266-123.287 -46.713  0.00  0.00     0.066 C 
ENDROOT
BRANCH   1  13
ATOM     13  N   UNL d   1     -42.158-122.589 -51.646  0.00  0.00    -0.200 NA
ATOM     14  C   UNL d   1     -41.607-123.057 -52.045  0.00  0.00     0.303 C 
ATOM     15  O   UNL d   1     -41.143-123.598 -51.645  0.00  0.00    -0.263 OA
BRANCH  14  16
ATOM     16  C   UNL d   1     -41.527-122.976 -52.862  0.00  0.00     0.169 A 
ATOM     17  N   UNL d   1     -41.628-122.277 -53.302  0.00  0.00    -0.234 NA
ATOM     18  C   UNL d   1     -41.487-122.474 -54.106  0.00  0.00     0.088 A 
ATOM     19  C   UNL d   1     -41.505-122.019 -54.794  0.00  0.00     0.020 A 
ATOM     20  C   UNL d   1     -41.306-123.283 -54.126  0.00  0.00     0.049 A 
ATOM     21  C   UNL d   1     -41.337-122.383 -55.519  0.00  0.00     0.002 A 
ATOM     22  C   UNL d   1     -41.155-123.192 -55.544  0.00  0.00     0.001 A 
ATOM     23  C   UNL d   1     -41.140-123.635 -54.855  0.00  0.00     0.008 A 
ATOM     24  S   UNL d   1     -41.334-123.574 -53.364  0.00  0.00    -0.062 SA
ENDBRANCH  14  16
ENDBRANCH   1  13
BRANCH   2  25
ATOM     25  C   UNL d   1     -43.518-121.991 -50.642  0.00  0.00     0.298 C 
ATOM     26  O   UNL d   1     -43.440-121.213 -50.898  0.00  0.00    -0.259 OA
BRANCH  25  27
ATOM     27  O   UNL d   1     -44.265-122.371 -50.663  0.00  0.00    -0.296 OA
ATOM     28  C   UNL d   1     -44.957-121.923 -50.634  0.00  0.00     0.185 C 
ENDBRANCH  25  27
ENDBRANCH   2  25
TORSDOF 4
ENDMDL
MODEL 2
REMARK VINA RESULT:       1.7      1.519      5.347
REMARK  4 active torsions:
REMARK  status: ('A' for Active; 'I' for Inactive)
REMARK    1  A    between atoms: N_8  and  C_1 
REMARK    2  A    between atoms: C_12  and  C_2 
REMARK    3  A    between atoms: C_4  and  C_10 
REMARK       I    between atoms: C_10  and  N_8 
REMARK       I    between atoms: C_14  and  N_11 
REMARK    4  A    between atoms: O_22  and  C_12 
ROOT
ATOM      1  C   UNL d   1     -41.646-122.417 -51.526  0.00  0.00     0.119 A 
ATOM      2  C   UNL d   1     -41.486-121.742 -51.967  0.00  0.00     0.088 A 
ATOM      3  C   UNL d   1     -41.844-122.709 -52.811  0.00  0.00     0.049 A 
ATOM      4  C   UNL d   1     -41.609-121.925 -52.766  0.00  0.00     0.016 A 
ATOM      5  S   UNL d   1     -41.870-123.019 -52.054  0.00  0.00    -0.066 SA
ATOM      6  N   UNL d   1     -41.936-122.599 -54.236  0.00  0.00    -0.272 N 
ATOM      7  C   UNL d   1     -42.008-123.045 -53.558  0.00  0.00     0.089 A 
ATOM      8  C   UNL d   1     -42.096-122.922 -54.982  0.00  0.00     0.265 C 
ATOM      9  C   UNL d   1     -41.534-121.466 -53.451  0.00  0.00     0.020 A 
ATOM     10  C   UNL d   1     -41.697-121.803 -54.182  0.00  0.00     0.083 A 
ATOM     11  O   UNL d   1     -42.333-123.709 -55.035  0.00  0.00    -0.267 OA
ATOM     12  C   UNL d   1     -42.024-122.476 -55.663  0.00  0.00     0.066 C 
ENDROOT
BRANCH   1  13
ATOM     13  N   UNL d   1     -41.595-122.488 -50.698  0.00  0.00    -0.200 NA
ATOM     14  C   UNL d   1     -41.990-123.107 -50.321  0.00  0.00     0.303 C 
ATOM     15  O   UNL d   1     -42.430-123.649 -50.747  0.00  0.00    -0.263 OA
BRANCH  14  16
ATOM     16  C   UNL d   1     -41.940-123.178 -49.502  0.00  0.00     0.169 A 
ATOM     17  N   UNL d   1     -41.376-123.620 -49.077  0.00  0.00    -0.234 NA
ATOM     18  C   UNL d   1     -41.553-123.519 -48.262  0.00  0.00     0.088 A 
ATOM     19  C   UNL d   1     -41.194-123.817 -47.582  0.00  0.00     0.020 A 
ATOM     20  C   UNL d   1     -42.215-123.022 -48.220  0.00  0.00     0.049 A 
ATOM     21  C   UNL d   1     -41.505-123.612 -46.842  0.00  0.00     0.002 A 
ATOM     22  C   UNL d   1     -42.167-123.115 -46.795  0.00  0.00     0.001 A 
ATOM     23  C   UNL d   1     -42.516-122.824 -47.477  0.00  0.00     0.008 A 
ATOM     24  S   UNL d   1     -42.438-122.823 -48.980  0.00  0.00    -0.062 SA
ENDBRANCH  14  16
ENDBRANCH   1  13
BRANCH   2  25
ATOM     25  C   UNL d   1     -41.247-121.020 -51.668  0.00  0.00     0.298 C 
ATOM     26  O   UNL d   1     -41.129-120.931 -50.859  0.00  0.00    -0.259 OA
BRANCH  25  27
ATOM     27  O   UNL d   1     -41.123-120.374 -52.187  0.00  0.00    -0.296 OA
ATOM     28  C   UNL d   1     -41.123-119.603 -51.894  0.00  0.00     0.185 C 
ENDBRANCH  25  27
ENDBRANCH   2  25
TORSDOF 4
ENDMDL
