MODEL 1
REMARK VINA RESULT:      32.3      0.000      0.000
REMARK  6 active torsions:
REMARK  status: ('A' for Active; 'I' for Inactive)
REMARK    1  A    between atoms: C_9  and  N_2 
REMARK    2  A    between atoms: O_11  and  C_7 
REMARK    3  A    between atoms: C_8  and  O_10 
REMARK    4  A    between atoms: C_12  and  C_9 
REMARK    5  A    between atoms: O_10  and  C_15 
REMARK    6  A    between atoms: C_15  and  C_12 
ROOT
ATOM      1  C   UNL d   1      14.893  12.652  -0.818  0.00  0.00     0.087 C 
ENDROOT
BRANCH   1   2
ATOM      2  N   UNL d   1      14.223  12.334  -1.178  0.00  0.00    -0.251 N 
ATOM      3  C   UNL d   1      13.531  12.035  -0.826  0.00  0.00     0.378 A 
ATOM      4  O   UNL d   1      13.023  11.779  -1.431  0.00  0.00    -0.258 OA
ATOM      5  O   UNL d   1      13.386  12.004  -0.017  0.00  0.00    -0.237 OA
ATOM      6  C   UNL d   1      13.397  11.918  -2.152  0.00  0.00     0.121 A 
ATOM      7  C   UNL d   1      13.167  11.781  -2.939  0.00  0.00     0.026 A 
ATOM      8  C   UNL d   1      14.138  12.260  -1.998  0.00  0.00     0.092 A 
ATOM      9  C   UNL d   1      13.668  11.981  -3.557  0.00  0.00     0.002 A 
ATOM     10  C   UNL d   1      14.402  12.320  -3.400  0.00  0.00     0.002 A 
ATOM     11  C   UNL d   1      14.641  12.461  -2.624  0.00  0.00     0.020 A 
ENDBRANCH   1   2
BRANCH   1  12
ATOM     12  C   UNL d   1      14.835  13.344  -0.387  0.00  0.00     0.046 C 
BRANCH  12  13
ATOM     13  C   UNL d   1      15.304  13.993  -0.584  0.00  0.00     0.124 C 
BRANCH  13  14
ATOM     14  O   UNL d   1      14.994  14.602  -1.047  0.00  0.00    -0.303 OA
BRANCH  14  15
ATOM     15  C   UNL d   1      15.176  15.387  -0.871  0.00  0.00     0.122 A 
ATOM     16  C   UNL d   1      14.884  15.994  -1.348  0.00  0.00     0.117 A 
ATOM     17  C   UNL d   1      15.062  16.780  -1.176  0.00  0.00     0.026 A 
ATOM     18  C   UNL d   1      15.539  16.959  -0.520  0.00  0.00     0.002 A 
ATOM     19  C   UNL d   1      15.831  16.357  -0.043  0.00  0.00     0.002 A 
ATOM     20  C   UNL d   1      15.650  15.571  -0.219  0.00  0.00     0.027 A 
BRANCH  16  21
ATOM     21  O   UNL d   1      14.409  15.811  -2.001  0.00  0.00    -0.326 OA
ATOM     22  C   UNL d   1      14.581  16.146  -2.738  0.00  0.00     0.181 C 
ENDBRANCH  16  21
ENDBRANCH  14  15
ENDBRANCH  13  14
ENDBRANCH  12  13
ENDBRANCH   1  12
TORSDOF 6
ENDMDL
