MODEL 1
REMARK VINA RESULT:      -8.9      0.000      0.000
REMARK  3 active torsions:
REMARK  status: ('A' for Active; 'I' for Inactive)
REMARK    1  A    between atoms: N_2  and  C_1 
REMARK    2  A    between atoms: N_3  and  C_1 
REMARK       I    between atoms: C_4  and  N_2 
REMARK    3  A    between atoms: C_9  and  C_4 
ROOT
ATOM      1  C   UNL d   1      52.431  32.888  53.149  0.00  0.00     0.209 C 
ATOM      2  S   UNL d   1      52.519  32.112  52.892  0.00  0.00    -0.038 SA
ENDROOT
BRANCH   1   3
ATOM      3  N   UNL d   1      53.023  33.226  53.623  0.00  0.00    -0.180 NA
ATOM      4  C   UNL d   1      53.626  32.745  53.920  0.00  0.00     0.281 C 
ATOM      5  O   UNL d   1      53.643  31.936  53.749  0.00  0.00    -0.265 OA
BRANCH   4   6
ATOM      6  C   UNL d   1      54.214  33.075  54.390  0.00  0.00     0.058 A 
ATOM      7  C   UNL d   1      54.121  33.112  55.215  0.00  0.00     0.005 A 
ATOM      8  C   UNL d   1      54.707  33.441  55.687  0.00  0.00     0.000 A 
ATOM      9  C   UNL d   1      55.399  33.740  55.334  0.00  0.00     0.000 A 
ATOM     10  C   UNL d   1      55.493  33.704  54.514  0.00  0.00     0.000 A 
ATOM     11  C   UNL d   1      54.899  33.372  54.049  0.00  0.00     0.005 A 
ENDBRANCH   4   6
ENDBRANCH   1   3
BRANCH   1  12
ATOM     12  N   UNL d   1      51.769  33.322  52.941  0.00  0.00    -0.281 N 
ATOM     13  C   UNL d   1      51.810  33.856  52.310  0.00  0.00     0.082 A 
ATOM     14  C   UNL d   1      51.134  34.295  52.101  0.00  0.00     0.019 A 
ATOM     15  C   UNL d   1      50.431  34.198  52.521  0.00  0.00     0.003 A 
ATOM     16  C   UNL d   1      50.397  33.667  53.146  0.00  0.00     0.019 A 
ATOM     17  C   UNL d   1      49.765  34.632  52.315  0.00  0.00     0.000 C 
ATOM     18  C   UNL d   1      51.065  33.227  53.358  0.00  0.00     0.082 A 
ENDBRANCH   1  12
TORSDOF 3
ENDMDL
MODEL 2
REMARK VINA RESULT:      -8.2      1.800      4.004
REMARK  3 active torsions:
REMARK  status: ('A' for Active; 'I' for Inactive)
REMARK    1  A    between atoms: N_2  and  C_1 
REMARK    2  A    between atoms: N_3  and  C_1 
REMARK       I    between atoms: C_4  and  N_2 
REMARK    3  A    between atoms: C_9  and  C_4 
ROOT
ATOM      1  C   UNL d   1      53.188  32.170  53.256  0.00  0.00     0.209 C 
ATOM      2  S   UNL d   1      53.869  32.627  53.311  0.00  0.00    -0.038 SA
ENDROOT
BRANCH   1   3
ATOM      3  N   UNL d   1      52.483  32.524  52.999  0.00  0.00    -0.180 NA
ATOM      4  C   UNL d   1      52.385  33.340  53.090  0.00  0.00     0.281 C 
ATOM      5  O   UNL d   1      52.980  33.800  53.432  0.00  0.00    -0.265 OA
BRANCH   4   6
ATOM      6  C   UNL d   1      51.688  33.695  52.836  0.00  0.00     0.058 A 
ATOM      7  C   UNL d   1      51.020  33.709  53.330  0.00  0.00     0.005 A 
ATOM      8  C   UNL d   1      50.323  34.064  53.081  0.00  0.00     0.000 A 
ATOM      9  C   UNL d   1      50.287  34.411  52.325  0.00  0.00     0.000 A 
ATOM     10  C   UNL d   1      50.951  34.398  51.832  0.00  0.00     0.000 A 
ATOM     11  C   UNL d   1      51.646  34.040  52.093  0.00  0.00     0.005 A 
ENDBRANCH   4   6
ENDBRANCH   1   3
BRANCH   1  12
ATOM     12  N   UNL d   1      53.204  31.375  53.452  0.00  0.00    -0.281 N 
ATOM     13  C   UNL d   1      52.901  30.815  52.924  0.00  0.00     0.082 A 
ATOM     14  C   UNL d   1      52.919  30.008  53.127  0.00  0.00     0.019 A 
ATOM     15  C   UNL d   1      53.237  29.770  53.849  0.00  0.00     0.003 A 
ATOM     16  C   UNL d   1      53.537  30.330  54.369  0.00  0.00     0.019 A 
ATOM     17  C   UNL d   1      53.255  28.974  54.048  0.00  0.00     0.000 C 
ATOM     18  C   UNL d   1      53.522  31.134  54.173  0.00  0.00     0.082 A 
ENDBRANCH   1  12
TORSDOF 3
ENDMDL
MODEL 3
REMARK VINA RESULT:      -8.2      1.704      2.371
REMARK  3 active torsions:
REMARK  status: ('A' for Active; 'I' for Inactive)
REMARK    1  A    between atoms: N_2  and  C_1 
REMARK    2  A    between atoms: N_3  and  C_1 
REMARK       I    between atoms: C_4  and  N_2 
REMARK    3  A    between atoms: C_9  and  C_4 
ROOT
ATOM      1  C   UNL d   1      52.461  33.165  53.217  0.00  0.00     0.209 C 
ATOM      2  S   UNL d   1      53.145  33.592  53.380  0.00  0.00    -0.038 SA
ENDROOT
BRANCH   1   3
ATOM      3  N   UNL d   1      52.469  32.340  53.301  0.00  0.00    -0.180 NA
ATOM      4  C   UNL d   1      53.195  31.947  53.347  0.00  0.00     0.281 C 
ATOM      5  O   UNL d   1      53.906  32.368  53.311  0.00  0.00    -0.265 OA
BRANCH   4   6
ATOM      6  C   UNL d   1      53.209  31.129  53.430  0.00  0.00     0.058 A 
ATOM      7  C   UNL d   1      52.892  30.641  52.836  0.00  0.00     0.005 A 
ATOM      8  C   UNL d   1      52.904  29.824  52.915  0.00  0.00     0.000 A 
ATOM      9  C   UNL d   1      53.237  29.484  53.598  0.00  0.00     0.000 A 
ATOM     10  C   UNL d   1      53.553  29.967  54.189  0.00  0.00     0.000 A 
ATOM     11  C   UNL d   1      53.536  30.786  54.100  0.00  0.00     0.005 A 
ENDBRANCH   4   6
ENDBRANCH   1   3
BRANCH   1  12
ATOM     12  N   UNL d   1      51.779  33.550  52.977  0.00  0.00    -0.281 N 
ATOM     13  C   UNL d   1      51.766  33.945  52.250  0.00  0.00     0.082 A 
ATOM     14  C   UNL d   1      51.071  34.336  52.008  0.00  0.00     0.019 A 
ATOM     15  C   UNL d   1      50.403  34.327  52.491  0.00  0.00     0.003 A 
ATOM     16  C   UNL d   1      50.422  33.934  53.211  0.00  0.00     0.019 A 
ATOM     17  C   UNL d   1      49.718  34.713  52.252  0.00  0.00     0.000 C 
ATOM     18  C   UNL d   1      51.110  33.544  53.456  0.00  0.00     0.082 A 
ENDBRANCH   1  12
TORSDOF 3
ENDMDL
MODEL 4
REMARK VINA RESULT:      -8.1      2.137      3.170
REMARK  3 active torsions:
REMARK  status: ('A' for Active; 'I' for Inactive)
REMARK    1  A    between atoms: N_2  and  C_1 
REMARK    2  A    between atoms: N_3  and  C_1 
REMARK       I    between atoms: C_4  and  N_2 
REMARK    3  A    between atoms: C_9  and  C_4 
ROOT
ATOM      1  C   UNL d   1      53.980  32.963  53.802  0.00  0.00     0.209 C 
ATOM      2  S   UNL d   1      54.769  32.949  53.567  0.00  0.00    -0.038 SA
ENDROOT
BRANCH   1   3
ATOM      3  N   UNL d   1      53.549  32.254  53.814  0.00  0.00    -0.180 NA
ATOM      4  C   UNL d   1      53.882  31.575  53.481  0.00  0.00     0.281 C 
ATOM      5  O   UNL d   1      54.634  31.597  53.138  0.00  0.00    -0.265 OA
BRANCH   4   6
ATOM      6  C   UNL d   1      53.459  30.870  53.491  0.00  0.00     0.058 A 
ATOM      7  C   UNL d   1      52.837  30.745  52.955  0.00  0.00     0.005 A 
ATOM      8  C   UNL d   1      52.412  30.042  52.962  0.00  0.00     0.000 A 
ATOM      9  C   UNL d   1      52.610  29.450  53.514  0.00  0.00     0.000 A 
ATOM     10  C   UNL d   1      53.228  29.572  54.048  0.00  0.00     0.000 A 
ATOM     11  C   UNL d   1      53.648  30.282  54.032  0.00  0.00     0.005 A 
ENDBRANCH   4   6
ENDBRANCH   1   3
BRANCH   1  12
ATOM     12  N   UNL d   1      53.624  33.668  54.019  0.00  0.00    -0.281 N 
ATOM     13  C   UNL d   1      53.190  34.097  53.461  0.00  0.00     0.082 A 
ATOM     14  C   UNL d   1      52.829  34.813  53.686  0.00  0.00     0.019 A 
ATOM     15  C   UNL d   1      52.905  35.090  54.458  0.00  0.00     0.003 A 
ATOM     16  C   UNL d   1      53.338  34.660  55.008  0.00  0.00     0.019 A 
ATOM     17  C   UNL d   1      52.549  35.797  54.679  0.00  0.00     0.000 C 
ATOM     18  C   UNL d   1      53.699  33.948  54.790  0.00  0.00     0.082 A 
ENDBRANCH   1  12
TORSDOF 3
ENDMDL
MODEL 5
REMARK VINA RESULT:      -8.0      0.710      4.074
REMARK  3 active torsions:
REMARK  status: ('A' for Active; 'I' for Inactive)
REMARK    1  A    between atoms: N_2  and  C_1 
REMARK    2  A    between atoms: N_3  and  C_1 
REMARK       I    between atoms: C_4  and  N_2 
REMARK    3  A    between atoms: C_9  and  C_4 
ROOT
ATOM      1  C   UNL d   1      53.211  32.739  53.671  0.00  0.00     0.209 C 
ATOM      2  S   UNL d   1      53.220  31.966  53.392  0.00  0.00    -0.038 SA
ENDROOT
BRANCH   1   3
ATOM      3  N   UNL d   1      52.561  33.225  53.494  0.00  0.00    -0.180 NA
ATOM      4  C   UNL d   1      52.067  33.024  52.863  0.00  0.00     0.281 C 
ATOM      5  O   UNL d   1      52.215  32.348  52.410  0.00  0.00    -0.265 OA
BRANCH   4   6
ATOM      6  C   UNL d   1      51.423  33.502  52.684  0.00  0.00     0.058 A 
ATOM      7  C   UNL d   1      51.431  33.981  52.005  0.00  0.00     0.005 A 
ATOM      8  C   UNL d   1      50.789  34.460  51.823  0.00  0.00     0.000 A 
ATOM      9  C   UNL d   1      50.125  34.464  52.325  0.00  0.00     0.000 A 
ATOM     10  C   UNL d   1      50.115  33.988  53.002  0.00  0.00     0.000 A 
ATOM     11  C   UNL d   1      50.765  33.511  53.175  0.00  0.00     0.005 A 
ENDBRANCH   4   6
ENDBRANCH   1   3
BRANCH   1  12
ATOM     12  N   UNL d   1      53.834  33.027  54.117  0.00  0.00    -0.281 N 
ATOM     13  C   UNL d   1      54.577  33.126  53.768  0.00  0.00     0.082 A 
ATOM     14  C   UNL d   1      55.209  33.419  54.224  0.00  0.00     0.019 A 
ATOM     15  C   UNL d   1      55.092  33.608  55.018  0.00  0.00     0.003 A 
ATOM     16  C   UNL d   1      54.352  33.508  55.359  0.00  0.00     0.019 A 
ATOM     17  C   UNL d   1      55.716  33.897  55.468  0.00  0.00     0.000 C 
ATOM     18  C   UNL d   1      53.721  33.218  54.910  0.00  0.00     0.082 A 
ENDBRANCH   1  12
TORSDOF 3
ENDMDL
