MODEL 1
REMARK VINA RESULT:      93.3      0.000      0.000
REMARK  6 active torsions:
REMARK  status: ('A' for Active; 'I' for Inactive)
REMARK    1  A    between atoms: C_3  and  N_1 
REMARK    2  A    between atoms: N_7  and  C_3 
REMARK    3  A    between atoms: C_10  and  C_4 
REMARK    4  A    between atoms: C_9  and  C_5 
REMARK    5  A    between atoms: C_13  and  N_7 
REMARK    6  A    between atoms: O_17  and  C_14 
ROOT
ATOM      1  N   UNL d   1     -49.762  27.557  35.856  0.00  0.00    -0.203 N 
ATOM      2  N   UNL d   1     -49.211  28.128  36.050  0.00  0.00    -0.163 NA
ATOM      3  C   UNL d   1     -48.766  28.281  35.398  0.00  0.00     0.103 A 
ATOM      4  C   UNL d   1     -49.664  27.341  35.063  0.00  0.00     0.087 A 
ATOM      5  C   UNL d   1     -49.041  27.797  34.785  0.00  0.00     0.040 A 
ENDROOT
BRANCH   1   6
ATOM      6  C   UNL d   1     -50.334  27.249  36.400  0.00  0.00     0.222 C 
ATOM      7  S   UNL d   1     -51.133  27.185  36.177  0.00  0.00    -0.037 SA
BRANCH   6   8
ATOM      8  N   UNL d   1     -50.107  27.012  37.150  0.00  0.00    -0.217 NA
BRANCH   8   9
ATOM      9  C   UNL d   1     -50.672  26.831  37.730  0.00  0.00     0.084 A 
ATOM     10  C   UNL d   1     -50.749  27.315  38.386  0.00  0.00     0.019 A 
ATOM     11  C   UNL d   1     -51.317  27.133  38.969  0.00  0.00     0.002 A 
ATOM     12  C   UNL d   1     -51.794  26.466  38.876  0.00  0.00     0.000 A 
ATOM     13  C   UNL d   1     -51.698  25.998  38.213  0.00  0.00     0.002 A 
ATOM     14  C   UNL d   1     -51.138  26.173  37.633  0.00  0.00     0.019 A 
ENDBRANCH   8   9
ENDBRANCH   6   8
ENDBRANCH   1   6
BRANCH   4  15
ATOM     15  C   UNL d   1     -50.091  26.788  34.625  0.00  0.00     0.018 A 
ATOM     16  C   UNL d   1     -50.885  26.941  34.437  0.00  0.00     0.004 A 
ATOM     17  C   UNL d   1     -51.308  26.403  34.009  0.00  0.00     0.024 A 
ATOM     18  C   UNL d   1     -50.961  25.687  33.748  0.00  0.00     0.094 A 
ATOM     19  C   UNL d   1     -50.182  25.550  33.939  0.00  0.00     0.024 A 
ATOM     20  C   UNL d   1     -49.736  26.100  34.381  0.00  0.00     0.004 A 
BRANCH  18  21
ATOM     21  O   UNL d   1     -51.406  25.137  33.306  0.00  0.00    -0.328 OA
ATOM     22  C   UNL d   1     -51.229  24.323  33.306  0.00  0.00     0.181 C 
ENDBRANCH  18  21
ENDBRANCH   4  15
BRANCH   3  23
ATOM     23  C   UNL d   1     -48.160  28.821  35.382  0.00  0.00     0.019 A 
ATOM     24  C   UNL d   1     -48.303  29.619  35.558  0.00  0.00     0.002 A 
ATOM     25  C   UNL d   1     -47.682  30.168  35.541  0.00  0.00     0.000 A 
ATOM     26  C   UNL d   1     -46.925  29.921  35.349  0.00  0.00     0.000 A 
ATOM     27  C   UNL d   1     -46.782  29.123  35.173  0.00  0.00     0.000 A 
ATOM     28  C   UNL d   1     -47.404  28.575  35.191  0.00  0.00     0.002 A 
ENDBRANCH   3  23
TORSDOF 6
ENDMDL
MODEL 2
REMARK VINA RESULT:      93.6      3.334      5.902
REMARK  6 active torsions:
REMARK  status: ('A' for Active; 'I' for Inactive)
REMARK    1  A    between atoms: C_3  and  N_1 
REMARK    2  A    between atoms: N_7  and  C_3 
REMARK    3  A    between atoms: C_10  and  C_4 
REMARK    4  A    between atoms: C_9  and  C_5 
REMARK    5  A    between atoms: C_13  and  N_7 
REMARK    6  A    between atoms: O_17  and  C_14 
ROOT
ATOM      1  N   UNL d   1     -48.058  30.019  34.652  0.00  0.00    -0.203 N 
ATOM      2  N   UNL d   1     -48.590  29.662  34.145  0.00  0.00    -0.163 NA
ATOM      3  C   UNL d   1     -48.770  28.935  34.437  0.00  0.00     0.103 A 
ATOM      4  C   UNL d   1     -47.897  29.507  35.282  0.00  0.00     0.087 A 
ATOM      5  C   UNL d   1     -48.344  28.834  35.140  0.00  0.00     0.040 A 
ENDROOT
BRANCH   1   6
ATOM      6  C   UNL d   1     -47.737  30.793  34.531  0.00  0.00     0.222 C 
ATOM      7  S   UNL d   1     -46.948  30.886  34.282  0.00  0.00    -0.037 SA
BRANCH   6   8
ATOM      8  N   UNL d   1     -48.198  31.458  34.657  0.00  0.00    -0.217 NA
BRANCH   8   9
ATOM      9  C   UNL d   1     -48.091  32.144  34.204  0.00  0.00     0.084 A 
ATOM     10  C   UNL d   1     -48.744  32.557  33.933  0.00  0.00     0.019 A 
ATOM     11  C   UNL d   1     -48.636  33.248  33.477  0.00  0.00     0.002 A 
ATOM     12  C   UNL d   1     -47.872  33.506  33.306  0.00  0.00     0.000 A 
ATOM     13  C   UNL d   1     -47.236  33.077  33.588  0.00  0.00     0.002 A 
ATOM     14  C   UNL d   1     -47.336  32.393  34.039  0.00  0.00     0.019 A 
ENDBRANCH   8   9
ENDBRANCH   6   8
ENDBRANCH   1   6
BRANCH   4  15
ATOM     15  C   UNL d   1     -47.395  29.627  35.926  0.00  0.00     0.018 A 
ATOM     16  C   UNL d   1     -47.720  29.810  36.667  0.00  0.00     0.004 A 
ATOM     17  C   UNL d   1     -47.234  29.929  37.301  0.00  0.00     0.024 A 
ATOM     18  C   UNL d   1     -46.402  29.872  37.226  0.00  0.00     0.094 A 
ATOM     19  C   UNL d   1     -46.097  29.693  36.493  0.00  0.00     0.024 A 
ATOM     20  C   UNL d   1     -46.591  29.568  35.832  0.00  0.00     0.004 A 
BRANCH  18  21
ATOM     21  O   UNL d   1     -45.908  29.997  37.887  0.00  0.00    -0.328 OA
ATOM     22  C   UNL d   1     -46.211  30.239  38.625  0.00  0.00     0.181 C 
ENDBRANCH  18  21
ENDBRANCH   4  15
BRANCH   3  23
ATOM     23  C   UNL d   1     -49.283  28.419  34.078  0.00  0.00     0.019 A 
ATOM     24  C   UNL d   1     -49.153  27.600  34.119  0.00  0.00     0.002 A 
ATOM     25  C   UNL d   1     -49.681  27.076  33.751  0.00  0.00     0.000 A 
ATOM     26  C   UNL d   1     -50.331  27.368  33.347  0.00  0.00     0.000 A 
ATOM     27  C   UNL d   1     -50.460  28.186  33.307  0.00  0.00     0.000 A 
ATOM     28  C   UNL d   1     -49.932  28.709  33.675  0.00  0.00     0.002 A 
ENDBRANCH   3  23
TORSDOF 6
ENDMDL
MODEL 3
REMARK VINA RESULT:      96.1      1.279      3.299
REMARK  6 active torsions:
REMARK  status: ('A' for Active; 'I' for Inactive)
REMARK    1  A    between atoms: C_3  and  N_1 
REMARK    2  A    between atoms: N_7  and  C_3 
REMARK    3  A    between atoms: C_10  and  C_4 
REMARK    4  A    between atoms: C_9  and  C_5 
REMARK    5  A    between atoms: C_13  and  N_7 
REMARK    6  A    between atoms: O_17  and  C_14 
ROOT
ATOM      1  N   UNL d   1     -50.116  27.305  35.482  0.00  0.00    -0.203 N 
ATOM      2  N   UNL d   1     -49.516  27.749  35.150  0.00  0.00    -0.163 NA
ATOM      3  C   UNL d   1     -49.115  28.116  35.743  0.00  0.00     0.103 A 
ATOM      4  C   UNL d   1     -50.095  27.391  36.306  0.00  0.00     0.087 A 
ATOM      5  C   UNL d   1     -49.469  27.898  36.460  0.00  0.00     0.040 A 
ENDROOT
BRANCH   1   6
ATOM      6  C   UNL d   1     -50.661  26.837  35.034  0.00  0.00     0.222 C 
ATOM      7  S   UNL d   1     -51.407  26.645  35.348  0.00  0.00    -0.037 SA
BRANCH   6   8
ATOM      8  N   UNL d   1     -50.460  26.569  34.287  0.00  0.00    -0.217 NA
BRANCH   8   9
ATOM      9  C   UNL d   1     -50.830  25.904  33.958  0.00  0.00     0.084 A 
ATOM     10  C   UNL d   1     -50.374  25.295  33.654  0.00  0.00     0.019 A 
ATOM     11  C   UNL d   1     -50.746  24.626  33.323  0.00  0.00     0.002 A 
ATOM     12  C   UNL d   1     -51.570  24.586  33.307  0.00  0.00     0.000 A 
ATOM     13  C   UNL d   1     -52.004  25.206  33.616  0.00  0.00     0.002 A 
ATOM     14  C   UNL d   1     -51.641  25.871  33.944  0.00  0.00     0.019 A 
ENDBRANCH   8   9
ENDBRANCH   6   8
ENDBRANCH   1   6
BRANCH   4  15
ATOM     15  C   UNL d   1     -50.590  27.049  36.870  0.00  0.00     0.018 A 
ATOM     16  C   UNL d   1     -50.383  27.089  37.673  0.00  0.00     0.004 A 
ATOM     17  C   UNL d   1     -50.863  26.756  38.229  0.00  0.00     0.024 A 
ATOM     18  C   UNL d   1     -51.573  26.367  38.013  0.00  0.00     0.094 A 
ATOM     19  C   UNL d   1     -51.764  26.336  37.223  0.00  0.00     0.024 A 
ATOM     20  C   UNL d   1     -51.274  26.677  36.640  0.00  0.00     0.004 A 
BRANCH  18  21
ATOM     21  O   UNL d   1     -52.063  26.026  38.596  0.00  0.00    -0.328 OA
ATOM     22  C   UNL d   1     -52.494  25.326  38.456  0.00  0.00     0.181 C 
ENDBRANCH  18  21
ENDBRANCH   4  15
BRANCH   3  23
ATOM     23  C   UNL d   1     -48.479  28.606  35.622  0.00  0.00     0.019 A 
ATOM     24  C   UNL d   1     -48.246  29.145  36.208  0.00  0.00     0.002 A 
ATOM     25  C   UNL d   1     -47.596  29.644  36.080  0.00  0.00     0.000 A 
ATOM     26  C   UNL d   1     -47.184  29.605  35.373  0.00  0.00     0.000 A 
ATOM     27  C   UNL d   1     -47.419  29.066  34.787  0.00  0.00     0.000 A 
ATOM     28  C   UNL d   1     -48.068  28.567  34.916  0.00  0.00     0.002 A 
ENDBRANCH   3  23
TORSDOF 6
ENDMDL
