MODEL 1
REMARK VINA RESULT:      -8.8      0.000      0.000
REMARK  2 active torsions:
REMARK  status: ('A' for Active; 'I' for Inactive)
REMARK    1  A    between atoms: C_3  and  C_1 
REMARK       I    between atoms: C_2  and  N_4 
REMARK    2  A    between atoms: N_4  and  C_7 
ROOT
ATOM      1  C   UNL d   1      54.253  33.192  54.463  0.00  0.00     0.073 A 
ATOM      2  C   UNL d   1      53.500  33.535  54.438  0.00  0.00     0.024 A 
ATOM      3  C   UNL d   1      52.966  33.310  53.851  0.00  0.00     0.100 A 
ATOM      4  C   UNL d   1      54.469  32.628  53.904  0.00  0.00     0.004 A 
ATOM      5  C   UNL d   1      53.934  32.403  53.317  0.00  0.00     0.002 A 
ATOM      6  C   UNL d   1      53.184  32.742  53.290  0.00  0.00     0.020 A 
ENDROOT
BRANCH   1   7
ATOM      7  C   UNL d   1      54.792  33.420  55.056  0.00  0.00     0.419 C 
ATOM      8  F   UNL d   1      55.278  33.624  55.589  0.00  0.00    -0.166 F 
ATOM      9  F   UNL d   1      55.409  34.022  55.025  0.00  0.00    -0.166 F 
ATOM     10  F   UNL d   1      54.879  33.116  55.855  0.00  0.00    -0.166 F 
ENDBRANCH   1   7
BRANCH   3  11
ATOM     11  N   UNL d   1      52.214  33.647  53.820  0.00  0.00    -0.056 NA
ATOM     12  C   UNL d   1      52.069  34.284  53.325  0.00  0.00     0.787 C 
ATOM     13  N   UNL d   1      51.321  34.624  53.292  0.00  0.00     0.064 N 
ATOM     14  N   UNL d   1      52.680  34.584  52.860  0.00  0.00     0.064 N 
ENDBRANCH   3  11
TORSDOF 2
ENDMDL
MODEL 2
REMARK VINA RESULT:      -8.6      2.562      3.259
REMARK  2 active torsions:
REMARK  status: ('A' for Active; 'I' for Inactive)
REMARK    1  A    between atoms: C_3  and  C_1 
REMARK       I    between atoms: C_2  and  N_4 
REMARK    2  A    between atoms: N_4  and  C_7 
ROOT
ATOM      1  C   UNL d   1      53.247  31.227  53.327  0.00  0.00     0.073 A 
ATOM      2  C   UNL d   1      53.894  31.627  53.651  0.00  0.00     0.024 A 
ATOM      3  C   UNL d   1      53.912  32.452  53.645  0.00  0.00     0.100 A 
ATOM      4  C   UNL d   1      52.621  31.650  52.999  0.00  0.00     0.004 A 
ATOM      5  C   UNL d   1      52.640  32.475  52.994  0.00  0.00     0.002 A 
ATOM      6  C   UNL d   1      53.283  32.876  53.316  0.00  0.00     0.020 A 
ENDROOT
BRANCH   1   7
ATOM      7  C   UNL d   1      53.229  30.394  53.332  0.00  0.00     0.419 C 
ATOM      8  F   UNL d   1      53.212  29.644  53.337  0.00  0.00    -0.166 F 
ATOM      9  F   UNL d   1      53.223  29.856  54.007  0.00  0.00    -0.166 F 
ATOM     10  F   UNL d   1      53.210  29.848  52.669  0.00  0.00    -0.166 F 
ENDBRANCH   1   7
BRANCH   3  11
ATOM     11  N   UNL d   1      54.555  32.857  53.967  0.00  0.00    -0.056 NA
ATOM     12  C   UNL d   1      54.507  33.170  54.722  0.00  0.00     0.787 C 
ATOM     13  N   UNL d   1      55.146  33.575  55.047  0.00  0.00     0.064 N 
ATOM     14  N   UNL d   1      53.813  33.078  55.158  0.00  0.00     0.064 N 
ENDBRANCH   3  11
TORSDOF 2
ENDMDL
MODEL 3
REMARK VINA RESULT:      -8.4      1.505      2.093
REMARK  2 active torsions:
REMARK  status: ('A' for Active; 'I' for Inactive)
REMARK    1  A    between atoms: C_3  and  C_1 
REMARK       I    between atoms: C_2  and  N_4 
REMARK    2  A    between atoms: N_4  and  C_7 
ROOT
ATOM      1  C   UNL d   1      53.970  33.081  54.406  0.00  0.00     0.073 A 
ATOM      2  C   UNL d   1      53.981  32.413  53.919  0.00  0.00     0.024 A 
ATOM      3  C   UNL d   1      53.402  32.316  53.340  0.00  0.00     0.100 A 
ATOM      4  C   UNL d   1      53.381  33.649  54.314  0.00  0.00     0.004 A 
ATOM      5  C   UNL d   1      52.802  33.553  53.735  0.00  0.00     0.002 A 
ATOM      6  C   UNL d   1      52.810  32.888  53.248  0.00  0.00     0.020 A 
ENDROOT
BRANCH   1   7
ATOM      7  C   UNL d   1      54.555  33.179  54.991  0.00  0.00     0.419 C 
ATOM      8  F   UNL d   1      55.082  33.266  55.517  0.00  0.00    -0.166 F 
ATOM      9  F   UNL d   1      55.309  33.596  54.939  0.00  0.00    -0.166 F 
ATOM     10  F   UNL d   1      54.566  32.891  55.801  0.00  0.00    -0.166 F 
ENDBRANCH   1   7
BRANCH   3  11
ATOM     11  N   UNL d   1      53.407  31.652  52.851  0.00  0.00    -0.056 NA
ATOM     12  C   UNL d   1      52.898  31.027  53.000  0.00  0.00     0.787 C 
ATOM     13  N   UNL d   1      52.900  30.363  52.515  0.00  0.00     0.064 N 
ATOM     14  N   UNL d   1      52.380  31.069  53.641  0.00  0.00     0.064 N 
ENDBRANCH   3  11
TORSDOF 2
ENDMDL
MODEL 4
REMARK VINA RESULT:      -8.2      2.513      2.958
REMARK  2 active torsions:
REMARK  status: ('A' for Active; 'I' for Inactive)
REMARK    1  A    between atoms: C_3  and  C_1 
REMARK       I    between atoms: C_2  and  N_4 
REMARK    2  A    between atoms: N_4  and  C_7 
ROOT
ATOM      1  C   UNL d   1      53.102  31.105  53.253  0.00  0.00     0.073 A 
ATOM      2  C   UNL d   1      52.683  31.679  52.832  0.00  0.00     0.024 A 
ATOM      3  C   UNL d   1      52.866  32.478  52.932  0.00  0.00     0.100 A 
ATOM      4  C   UNL d   1      53.702  31.328  53.771  0.00  0.00     0.004 A 
ATOM      5  C   UNL d   1      53.885  32.126  53.871  0.00  0.00     0.002 A 
ATOM      6  C   UNL d   1      53.469  32.701  53.453  0.00  0.00     0.020 A 
ENDROOT
BRANCH   1   7
ATOM      7  C   UNL d   1      52.917  30.299  53.152  0.00  0.00     0.419 C 
ATOM      8  F   UNL d   1      52.751  29.573  53.061  0.00  0.00    -0.166 F 
ATOM      9  F   UNL d   1      53.046  29.795  52.464  0.00  0.00    -0.166 F 
ATOM     10  F   UNL d   1      52.549  29.754  53.705  0.00  0.00    -0.166 F 
ENDBRANCH   1   7
BRANCH   3  11
ATOM     11  N   UNL d   1      52.451  33.056  52.515  0.00  0.00    -0.056 NA
ATOM     12  C   UNL d   1      51.889  33.514  52.896  0.00  0.00     0.787 C 
ATOM     13  N   UNL d   1      51.473  34.092  52.484  0.00  0.00     0.064 N 
ATOM     14  N   UNL d   1      51.742  33.393  53.699  0.00  0.00     0.064 N 
ENDBRANCH   3  11
TORSDOF 2
ENDMDL
MODEL 5
REMARK VINA RESULT:      -8.1      2.590      3.205
REMARK  2 active torsions:
REMARK  status: ('A' for Active; 'I' for Inactive)
REMARK    1  A    between atoms: C_3  and  C_1 
REMARK       I    between atoms: C_2  and  N_4 
REMARK    2  A    between atoms: N_4  and  C_7 
ROOT
ATOM      1  C   UNL d   1      52.569  32.791  53.134  0.00  0.00     0.073 A 
ATOM      2  C   UNL d   1      53.200  33.207  53.470  0.00  0.00     0.024 A 
ATOM      3  C   UNL d   1      53.878  32.803  53.708  0.00  0.00     0.100 A 
ATOM      4  C   UNL d   1      52.617  31.975  53.037  0.00  0.00     0.004 A 
ATOM      5  C   UNL d   1      53.296  31.570  53.274  0.00  0.00     0.002 A 
ATOM      6  C   UNL d   1      53.926  31.982  53.609  0.00  0.00     0.020 A 
ENDROOT
BRANCH   1   7
ATOM      7  C   UNL d   1      51.884  33.199  52.894  0.00  0.00     0.419 C 
ATOM      8  F   UNL d   1      51.267  33.567  52.678  0.00  0.00    -0.166 F 
ATOM      9  F   UNL d   1      51.122  33.261  53.293  0.00  0.00    -0.166 F 
ATOM     10  F   UNL d   1      51.752  33.668  52.185  0.00  0.00    -0.166 F 
ENDBRANCH   1   7
BRANCH   3  11
ATOM     11  N   UNL d   1      54.512  33.212  54.043  0.00  0.00    -0.056 NA
ATOM     12  C   UNL d   1      54.608  33.224  54.857  0.00  0.00     0.787 C 
ATOM     13  N   UNL d   1      55.238  33.630  55.196  0.00  0.00     0.064 N 
ATOM     14  N   UNL d   1      54.068  32.824  55.336  0.00  0.00     0.064 N 
ENDBRANCH   3  11
TORSDOF 2
ENDMDL
MODEL 6
REMARK VINA RESULT:      -7.9      2.138      2.642
REMARK  2 active torsions:
REMARK  status: ('A' for Active; 'I' for Inactive)
REMARK    1  A    between atoms: C_3  and  C_1 
REMARK       I    between atoms: C_2  and  N_4 
REMARK    2  A    between atoms: N_4  and  C_7 
ROOT
ATOM      1  C   UNL d   1      53.550  34.281  54.475  0.00  0.00     0.073 A 
ATOM      2  C   UNL d   1      53.264  33.530  54.279  0.00  0.00     0.024 A 
ATOM      3  C   UNL d   1      53.667  32.857  54.535  0.00  0.00     0.100 A 
ATOM      4  C   UNL d   1      54.235  34.358  54.925  0.00  0.00     0.004 A 
ATOM      5  C   UNL d   1      54.638  33.685  55.182  0.00  0.00     0.002 A 
ATOM      6  C   UNL d   1      54.356  32.935  54.988  0.00  0.00     0.020 A 
ENDROOT
BRANCH   1   7
ATOM      7  C   UNL d   1      53.143  34.960  54.216  0.00  0.00     0.419 C 
ATOM      8  F   UNL d   1      52.776  35.572  53.983  0.00  0.00    -0.166 F 
ATOM      9  F   UNL d   1      53.055  35.267  53.415  0.00  0.00    -0.166 F 
ATOM     10  F   UNL d   1      52.702  35.536  54.677  0.00  0.00    -0.166 F 
ENDBRANCH   1   7
BRANCH   3  11
ATOM     11  N   UNL d   1      53.388  32.105  54.343  0.00  0.00    -0.056 NA
ATOM     12  C   UNL d   1      53.702  31.701  53.703  0.00  0.00     0.787 C 
ATOM     13  N   UNL d   1      53.426  30.951  53.508  0.00  0.00     0.064 N 
ATOM     14  N   UNL d   1      54.298  32.052  53.253  0.00  0.00     0.064 N 
ENDBRANCH   3  11
TORSDOF 2
ENDMDL
