MODEL 1
REMARK VINA RESULT:       2.4      0.000      0.000
REMARK  6 active torsions:
REMARK  status: ('A' for Active; 'I' for Inactive)
REMARK       I    between atoms: C_2  and  N_1 
REMARK    1  A    between atoms: C_4  and  N_1 
REMARK    2  A    between atoms: C_11  and  N_1 
REMARK    3  A    between atoms: C_3  and  C_2 
REMARK    4  A    between atoms: C_5  and  C_4 
REMARK       I    between atoms: N_10  and  C_5 
REMARK    5  A    between atoms: C_21  and  N_10 
REMARK    6  A    between atoms: C_13  and  C_11 
ROOT
ATOM      1  N   UNL d   1     -41.768-122.213 -51.064  0.00  0.00    -0.281 N 
ATOM      2  C   UNL d   1     -42.236-122.571 -50.485  0.00  0.00     0.263 C 
ATOM      3  O   UNL d   1     -42.857-123.050 -50.691  0.00  0.00    -0.267 OA
ENDROOT
BRANCH   1   4
ATOM      4  C   UNL d   1     -41.883-122.306 -52.471  0.00  0.00     0.181 A 
ATOM      5  C   UNL d   1     -41.839-122.543 -53.133  0.00  0.00     0.007 A 
ATOM      6  C   UNL d   1     -41.489-123.263 -53.258  0.00  0.00    -0.002 A 
ATOM      7  C   UNL d   1     -41.198-123.696 -52.632  0.00  0.00    -0.001 A 
ATOM      8  C   UNL d   1     -41.263-123.396 -51.869  0.00  0.00    -0.002 A 
ATOM      9  C   UNL d   1     -41.612-122.676 -51.743  0.00  0.00     0.007 A 
BRANCH   4  10
ATOM     10  C   UNL d   1     -42.086-122.224 -53.877  0.00  0.00     0.282 C 
ATOM     11  N   UNL d   1     -42.503-121.729 -54.389  0.00  0.00    -0.210 NA
ATOM     12  O   UNL d   1     -41.647-122.856 -54.165  0.00  0.00    -0.268 OA
BRANCH  11  13
ATOM     13  C   UNL d   1     -42.481-121.870 -55.202  0.00  0.00     0.084 A 
ATOM     14  C   UNL d   1     -41.874-121.657 -55.707  0.00  0.00     0.019 A 
ATOM     15  C   UNL d   1     -42.075-121.897 -56.454  0.00  0.00     0.002 A 
ATOM     16  C   UNL d   1     -42.811-122.263 -56.415  0.00  0.00     0.002 A 
ATOM     17  C   UNL d   1     -43.052-122.241 -55.644  0.00  0.00     0.019 A 
ENDBRANCH  11  13
ENDBRANCH   4  10
ENDBRANCH   1   4
BRANCH   1  18
ATOM     18  C   UNL d   1     -41.123-121.714 -50.775  0.00  0.00     0.104 C 
BRANCH  18  19
ATOM     19  C   UNL d   1     -41.123-120.858 -50.957  0.00  0.00     0.117 A 
ATOM     20  O   UNL d   1     -41.123-120.544 -51.658  0.00  0.00    -0.304 OA
ATOM     21  C   UNL d   1     -41.123-119.671 -51.572  0.00  0.00     0.123 A 
ATOM     22  C   UNL d   1     -41.123-119.459 -50.815  0.00  0.00     0.029 A 
ATOM     23  C   UNL d   1     -41.123-120.212 -50.372  0.00  0.00     0.028 A 
ENDBRANCH  18  19
ENDBRANCH   1  18
BRANCH   2  24
ATOM     24  C   UNL d   1     -42.481-122.756 -49.552  0.00  0.00     0.076 A 
ATOM     25  C   UNL d   1     -41.659-123.089 -49.433  0.00  0.00     0.107 A 
ATOM     26  N   UNL d   1     -41.418-123.402 -48.665  0.00  0.00    -0.206 NA
ATOM     27  C   UNL d   1     -41.967-123.392 -48.023  0.00  0.00     0.279 A 
ATOM     28  C   UNL d   1     -42.776-123.072 -48.115  0.00  0.00     0.063 A 
ATOM     29  O   UNL d   1     -41.714-123.710 -47.252  0.00  0.00    -0.265 OA
ATOM     30  C   UNL d   1     -43.025-122.756 -48.884  0.00  0.00     0.011 A 
ENDBRANCH   2  24
TORSDOF 6
ENDMDL
