MODEL 1
REMARK VINA RESULT:      -3.9      0.000      0.000
REMARK  0 active torsions:
REMARK  status: ('A' for Active; 'I' for Inactive)
ROOT
ATOM      1  N   UNL d   1      56.681  -1.153  31.920  0.00  0.00    -0.219 NA
ATOM      2  C   UNL d   1      56.978  -0.437  31.636  0.00  0.00     0.215 A 
ATOM      3  S   UNL d   1      56.679   0.170  32.098  0.00  0.00    -0.045 SA
ATOM      4  C   UNL d   1      56.194  -0.983  32.564  0.00  0.00     0.090 A 
ATOM      5  C   UNL d   1      56.190  -0.161  32.679  0.00  0.00     0.050 A 
ATOM      6  N   UNL d   1      57.491  -0.348  30.992  0.00  0.00    -0.120 N 
ATOM      7  C   UNL d   1      55.780  -1.532  33.020  0.00  0.00     0.021 C 
ATOM      8  C   UNL d   1      55.780   0.251  33.257  0.00  0.00     0.009 C 
ENDROOT
TORSDOF 0
ENDMDL
MODEL 2
REMARK VINA RESULT:      -3.9      1.551      2.066
REMARK  0 active torsions:
REMARK  status: ('A' for Active; 'I' for Inactive)
ROOT
ATOM      1  N   UNL d   1      55.262  -0.544  33.369  0.00  0.00    -0.219 NA
ATOM      2  C   UNL d   1      55.247   0.271  33.501  0.00  0.00     0.215 A 
ATOM      3  S   UNL d   1      55.841   0.617  33.058  0.00  0.00    -0.045 SA
ATOM      4  C   UNL d   1      55.874  -0.698  32.837  0.00  0.00     0.090 A 
ATOM      5  C   UNL d   1      56.237   0.021  32.641  0.00  0.00     0.050 A 
ATOM      6  N   UNL d   1      54.718   0.670  33.999  0.00  0.00    -0.120 N 
ATOM      7  C   UNL d   1      56.092  -1.439  32.547  0.00  0.00     0.021 C 
ATOM      8  C   UNL d   1      56.870   0.128  32.130  0.00  0.00     0.009 C 
ENDROOT
TORSDOF 0
ENDMDL
MODEL 3
REMARK VINA RESULT:      -2.9      8.395      9.010
REMARK  0 active torsions:
REMARK  status: ('A' for Active; 'I' for Inactive)
ROOT
ATOM      1  N   UNL d   1      60.062  -7.572  35.244  0.00  0.00    -0.219 NA
ATOM      2  C   UNL d   1      59.671  -7.226  35.884  0.00  0.00     0.215 A 
ATOM      3  S   UNL d   1      59.327  -7.820  36.330  0.00  0.00    -0.045 SA
ATOM      4  C   UNL d   1      59.955  -8.388  35.299  0.00  0.00     0.090 A 
ATOM      5  C   UNL d   1      59.498  -8.547  35.973  0.00  0.00     0.050 A 
ATOM      6  N   UNL d   1      59.635  -6.414  36.047  0.00  0.00    -0.120 N 
ATOM      7  C   UNL d   1      60.249  -8.954  34.776  0.00  0.00     0.021 C 
ATOM      8  C   UNL d   1      59.258  -9.284  36.240  0.00  0.00     0.009 C 
ENDROOT
TORSDOF 0
ENDMDL
MODEL 4
REMARK VINA RESULT:      -2.6      8.753      9.314
REMARK  0 active torsions:
REMARK  status: ('A' for Active; 'I' for Inactive)
ROOT
ATOM      1  N   UNL d   1      60.378  -7.949  34.945  0.00  0.00    -0.219 NA
ATOM      2  C   UNL d   1      60.460  -8.724  34.672  0.00  0.00     0.215 A 
ATOM      3  S   UNL d   1      60.017  -9.218  35.152  0.00  0.00    -0.045 SA
ATOM      4  C   UNL d   1      59.878  -7.969  35.602  0.00  0.00     0.090 A 
ATOM      5  C   UNL d   1      59.651  -8.756  35.734  0.00  0.00     0.050 A 
ATOM      6  N   UNL d   1      60.914  -8.961  34.021  0.00  0.00    -0.120 N 
ATOM      7  C   UNL d   1      59.641  -7.320  36.053  0.00  0.00     0.021 C 
ATOM      8  C   UNL d   1      59.157  -9.030  36.329  0.00  0.00     0.009 C 
ENDROOT
TORSDOF 0
ENDMDL
MODEL 5
REMARK VINA RESULT:      -2.2      9.039      9.416
REMARK  0 active torsions:
REMARK  status: ('A' for Active; 'I' for Inactive)
ROOT
ATOM      1  N   UNL d   1      59.217  -8.640  35.100  0.00  0.00    -0.219 NA
ATOM      2  C   UNL d   1      59.716  -8.198  35.588  0.00  0.00     0.215 A 
ATOM      3  S   UNL d   1      60.486  -8.292  35.325  0.00  0.00    -0.045 SA
ATOM      4  C   UNL d   1      59.688  -9.008  34.531  0.00  0.00     0.090 A 
ATOM      5  C   UNL d   1      60.478  -8.795  34.667  0.00  0.00     0.050 A 
ATOM      6  N   UNL d   1      59.477  -7.739  36.234  0.00  0.00    -0.120 N 
ATOM      7  C   UNL d   1      59.423  -9.505  33.928  0.00  0.00     0.021 C 
ATOM      8  C   UNL d   1      61.131  -9.034  34.234  0.00  0.00     0.009 C 
ENDROOT
TORSDOF 0
ENDMDL
MODEL 6
REMARK VINA RESULT:      -2.0      1.950      2.975
REMARK  0 active torsions:
REMARK  status: ('A' for Active; 'I' for Inactive)
ROOT
ATOM      1  N   UNL d   1      57.589  -0.732  30.651  0.00  0.00    -0.219 NA
ATOM      2  C   UNL d   1      57.425  -0.052  31.088  0.00  0.00     0.215 A 
ATOM      3  S   UNL d   1      57.907   0.553  30.819  0.00  0.00    -0.045 SA
ATOM      4  C   UNL d   1      58.180  -0.543  30.107  0.00  0.00     0.090 A 
ATOM      5  C   UNL d   1      58.382   0.256  30.208  0.00  0.00     0.050 A 
ATOM      6  N   UNL d   1      56.865   0.010  31.695  0.00  0.00    -0.120 N 
ATOM      7  C   UNL d   1      58.517  -1.055  29.556  0.00  0.00     0.021 C 
ATOM      8  C   UNL d   1      58.944   0.676  29.785  0.00  0.00     0.009 C 
ENDROOT
TORSDOF 0
ENDMDL
MODEL 7
REMARK VINA RESULT:      -1.8      3.527      4.204
REMARK  0 active torsions:
REMARK  status: ('A' for Active; 'I' for Inactive)
ROOT
ATOM      1  N   UNL d   1      58.267  -1.189  29.679  0.00  0.00    -0.219 NA
ATOM      2  C   UNL d   1      58.500  -0.398  29.661  0.00  0.00     0.215 A 
ATOM      3  S   UNL d   1      59.204  -0.344  29.245  0.00  0.00    -0.045 SA
ATOM      4  C   UNL d   1      58.834  -1.626  29.269  0.00  0.00     0.090 A 
ATOM      5  C   UNL d   1      59.419  -1.105  28.997  0.00  0.00     0.050 A 
ATOM      6  N   UNL d   1      58.092   0.235  30.005  0.00  0.00    -0.120 N 
ATOM      7  C   UNL d   1      58.826  -2.442  29.148  0.00  0.00     0.021 C 
ATOM      8  C   UNL d   1      60.087  -1.301  28.564  0.00  0.00     0.009 C 
ENDROOT
TORSDOF 0
ENDMDL
MODEL 8
REMARK VINA RESULT:      -1.8      3.019      3.736
REMARK  0 active torsions:
REMARK  status: ('A' for Active; 'I' for Inactive)
ROOT
ATOM      1  N   UNL d   1      58.121  -1.003  29.901  0.00  0.00    -0.219 NA
ATOM      2  C   UNL d   1      58.688  -1.355  29.414  0.00  0.00     0.215 A 
ATOM      3  S   UNL d   1      59.203  -0.774  29.154  0.00  0.00    -0.045 SA
ATOM      4  C   UNL d   1      58.292  -0.197  29.939  0.00  0.00     0.090 A 
ATOM      5  C   UNL d   1      58.964  -0.049  29.476  0.00  0.00     0.050 A 
ATOM      6  N   UNL d   1      58.728  -2.160  29.222  0.00  0.00    -0.120 N 
ATOM      7  C   UNL d   1      57.870   0.371  30.363  0.00  0.00     0.021 C 
ATOM      8  C   UNL d   1      59.327   0.676  29.356  0.00  0.00     0.009 C 
ENDROOT
TORSDOF 0
ENDMDL
MODEL 9
REMARK VINA RESULT:      -1.7      4.054      4.874
REMARK  0 active torsions:
REMARK  status: ('A' for Active; 'I' for Inactive)
ROOT
ATOM      1  N   UNL d   1      58.535  -2.587  29.235  0.00  0.00    -0.219 NA
ATOM      2  C   UNL d   1      59.059  -3.094  28.849  0.00  0.00     0.215 A 
ATOM      3  S   UNL d   1      59.727  -2.667  28.641  0.00  0.00    -0.045 SA
ATOM      4  C   UNL d   1      58.885  -1.841  29.264  0.00  0.00     0.090 A 
ATOM      5  C   UNL d   1      59.627  -1.885  28.896  0.00  0.00     0.050 A 
ATOM      6  N   UNL d   1      58.932  -3.898  28.697  0.00  0.00    -0.120 N 
ATOM      7  C   UNL d   1      58.559  -1.162  29.601  0.00  0.00     0.021 C 
ATOM      8  C   UNL d   1      60.165  -1.274  28.800  0.00  0.00     0.009 C 
ENDROOT
TORSDOF 0
ENDMDL
