MODEL 1
REMARK VINA RESULT:      33.9      0.000      0.000
REMARK  3 active torsions:
REMARK  status: ('A' for Active; 'I' for Inactive)
REMARK    1  A    between atoms: C_3  and  C_1 
REMARK       I    between atoms: N_7  and  C_3 
REMARK    2  A    between atoms: C_11  and  N_7 
REMARK    3  A    between atoms: O_17  and  C_12 
ROOT
ATOM      1  C   UNL d   1     -54.781-101.249 -42.963  0.00  0.00     0.121 A 
ATOM      2  C   UNL d   1     -54.820-101.670 -43.648  0.00  0.00     0.305 A 
ATOM      3  C   UNL d   1     -54.749-100.419 -42.992  0.00  0.00     0.012 A 
ATOM      4  O   UNL d   1     -54.827-101.269 -44.373  0.00  0.00    -0.273 OA
ATOM      5  C   UNL d   1     -54.756-100.029 -43.715  0.00  0.00     0.023 A 
ATOM      6  C   UNL d   1     -54.795-100.450 -44.400  0.00  0.00     0.103 A 
ATOM      7  O   UNL d   1     -54.852-102.493 -43.618  0.00  0.00    -0.259 OA
ATOM      8  C   UNL d   1     -54.724 -99.202 -43.741  0.00  0.00     0.002 A 
ATOM      9  C   UNL d   1     -54.802-100.052 -45.123  0.00  0.00     0.025 A 
ATOM     10  C   UNL d   1     -54.770 -99.226 -45.155  0.00  0.00     0.002 A 
ATOM     11  C   UNL d   1     -54.731 -98.804 -44.470  0.00  0.00     0.000 A 
ENDROOT
BRANCH   1  12
ATOM     12  C   UNL d   1     -54.774-101.643 -42.237  0.00  0.00     0.284 C 
ATOM     13  N   UNL d   1     -54.769-101.229 -41.525  0.00  0.00    -0.208 NA
ATOM     14  O   UNL d   1     -54.771-102.468 -42.191  0.00  0.00    -0.265 OA
BRANCH  13  15
ATOM     15  C   UNL d   1     -54.762-101.631 -40.834  0.00  0.00     0.085 A 
ATOM     16  C   UNL d   1     -54.787-102.460 -40.813  0.00  0.00     0.021 A 
ATOM     17  C   UNL d   1     -54.780-102.878 -40.117  0.00  0.00     0.026 A 
ATOM     18  C   UNL d   1     -54.746-102.442 -39.385  0.00  0.00     0.094 A 
ATOM     19  C   UNL d   1     -54.720-101.597 -39.406  0.00  0.00     0.026 A 
ATOM     20  C   UNL d   1     -54.729-101.222 -40.127  0.00  0.00     0.021 A 
BRANCH  18  21
ATOM     21  O   UNL d   1     -54.738-102.843 -38.663  0.00  0.00    -0.328 OA
ATOM     22  C   UNL d   1     -54.742-102.408 -37.962  0.00  0.00     0.181 C 
ENDBRANCH  18  21
ENDBRANCH  13  15
ENDBRANCH   1  12
TORSDOF 3
ENDMDL
