MODEL 1
REMARK VINA RESULT:      56.6      0.000      0.000
REMARK  6 active torsions:
REMARK  status: ('A' for Active; 'I' for Inactive)
REMARK    1  A    between atoms: N_2  and  S_1 
REMARK    2  A    between atoms: C_7  and  S_1 
REMARK    3  A    between atoms: C_8  and  N_2 
REMARK    4  A    between atoms: N_3  and  C_9 
REMARK    5  A    between atoms: N_4  and  N_3 
REMARK    6  A    between atoms: C_10  and  N_4 
ROOT
ATOM      1  C   UNL d   1     -47.787  29.386  35.402  0.00  0.00     0.094 A 
ATOM      2  C   UNL d   1     -48.657  28.086  34.893  0.00  0.00     0.103 A 
ATOM      3  C   UNL d   1     -47.521  28.931  34.762  0.00  0.00     0.021 A 
ATOM      4  C   UNL d   1     -48.490  29.185  35.784  0.00  0.00     0.021 A 
ATOM      5  C   UNL d   1     -48.934  28.531  35.534  0.00  0.00     0.022 A 
ATOM      6  C   UNL d   1     -47.954  28.287  34.511  0.00  0.00     0.022 A 
ENDROOT
BRANCH   1   7
ATOM      7  N   UNL d   1     -47.353  30.038  35.658  0.00  0.00    -0.158 NA
BRANCH   7   8
ATOM      8  S   UNL d   1     -47.420  30.754  35.255  0.00  0.00     0.285 S 
ATOM      9  O   UNL d   1     -47.669  31.114  35.954  0.00  0.00    -0.198 OA
ATOM     10  O   UNL d   1     -47.171  30.394  34.556  0.00  0.00    -0.198 OA
BRANCH   8  11
ATOM     11  C   UNL d   1     -47.493  31.479  34.866  0.00  0.00     0.105 A 
ATOM     12  C   UNL d   1     -46.845  31.999  34.857  0.00  0.00     0.013 A 
ATOM     13  C   UNL d   1     -46.909  32.725  34.471  0.00  0.00     0.001 A 
ATOM     14  C   UNL d   1     -47.612  32.933  34.097  0.00  0.00     0.000 A 
ATOM     15  C   UNL d   1     -48.260  32.412  34.107  0.00  0.00     0.001 A 
ATOM     16  C   UNL d   1     -48.196  31.686  34.493  0.00  0.00     0.013 A 
ENDBRANCH   8  11
ENDBRANCH   7   8
ENDBRANCH   1   7
BRANCH   2  17
ATOM     17  N   UNL d   1     -49.091  27.432  34.634  0.00  0.00    -0.148 NA
BRANCH  17  18
ATOM     18  N   UNL d   1     -49.443  27.445  33.887  0.00  0.00    -0.148 NA
BRANCH  18  19
ATOM     19  C   UNL d   1     -50.011  26.876  33.693  0.00  0.00     0.103 A 
ATOM     20  C   UNL d   1     -50.787  27.094  33.547  0.00  0.00     0.021 A 
ATOM     21  C   UNL d   1     -51.348  26.534  33.355  0.00  0.00     0.002 A 
ATOM     22  C   UNL d   1     -51.133  25.739  33.308  0.00  0.00     0.000 A 
ATOM     23  C   UNL d   1     -50.357  25.504  33.452  0.00  0.00     0.002 A 
ATOM     24  C   UNL d   1     -49.796  26.081  33.646  0.00  0.00     0.021 A 
ENDBRANCH  18  19
ENDBRANCH  17  18
ENDBRANCH   2  17
TORSDOF 6
ENDMDL
