MODEL 1
REMARK VINA RESULT:       3.8      0.000      0.000
REMARK  3 active torsions:
REMARK  status: ('A' for Active; 'I' for Inactive)
REMARK    1  A    between atoms: N_10  and  C_7 
REMARK       I    between atoms: C_9  and  N_10 
REMARK    2  A    between atoms: C_12  and  C_9 
REMARK    3  A    between atoms: O_20  and  C_17 
ROOT
ATOM      1  C   UNL d   1     -43.143-122.342 -49.884  0.00  0.00     0.081 A 
ATOM      2  C   UNL d   1     -43.560-122.249 -49.186  0.00  0.00     0.301 A 
ATOM      3  C   UNL d   1     -42.431-122.754 -49.907  0.00  0.00     0.090 A 
ATOM      4  O   UNL d   1     -43.256-122.579 -48.484  0.00  0.00    -0.273 OA
ATOM      5  N   UNL d   1     -42.019-122.842 -50.619  0.00  0.00    -0.226 NA
ATOM      6  C   UNL d   1     -42.133-123.079 -49.210  0.00  0.00     0.041 A 
ATOM      7  C   UNL d   1     -42.330-122.509 -51.315  0.00  0.00     0.166 A 
ATOM      8  C   UNL d   1     -43.448-122.012 -50.583  0.00  0.00     0.010 A 
ATOM      9  C   UNL d   1     -42.543-122.994 -48.496  0.00  0.00     0.105 A 
ATOM     10  C   UNL d   1     -43.042-122.096 -51.298  0.00  0.00     0.039 A 
ATOM     11  O   UNL d   1     -44.277-121.833 -49.168  0.00  0.00    -0.259 OA
ATOM     12  C   UNL d   1     -41.418-123.495 -49.225  0.00  0.00     0.004 A 
ATOM     13  C   UNL d   1     -44.161-121.600 -50.557  0.00  0.00     0.000 C 
ATOM     14  C   UNL d   1     -42.249-123.315 -47.806  0.00  0.00     0.025 A 
ATOM     15  C   UNL d   1     -41.125-123.817 -48.526  0.00  0.00     0.000 A 
ATOM     16  C   UNL d   1     -41.541-123.727 -47.816  0.00  0.00     0.002 A 
ENDROOT
BRANCH   7  17
ATOM     17  N   UNL d   1     -41.915-122.596 -52.036  0.00  0.00    -0.189 NA
ATOM     18  C   UNL d   1     -42.334-122.687 -52.739  0.00  0.00     0.281 C 
ATOM     19  O   UNL d   1     -43.166-122.693 -52.730  0.00  0.00    -0.265 OA
BRANCH  18  20
ATOM     20  C   UNL d   1     -41.934-122.772 -53.443  0.00  0.00     0.060 A 
ATOM     21  C   UNL d   1     -41.907-122.162 -53.967  0.00  0.00     0.029 A 
ATOM     22  C   UNL d   1     -41.499-122.249 -54.686  0.00  0.00     0.094 A 
ATOM     23  C   UNL d   1     -41.123-122.947 -54.870  0.00  0.00     0.024 A 
ATOM     24  C   UNL d   1     -41.154-123.577 -54.321  0.00  0.00     0.002 A 
ATOM     25  C   UNL d   1     -41.558-123.488 -53.614  0.00  0.00     0.005 A 
BRANCH  22  26
ATOM     26  O   UNL d   1     -41.473-121.617 -55.225  0.00  0.00    -0.328 OA
ATOM     27  C   UNL d   1     -42.029-121.580 -55.851  0.00  0.00     0.181 C 
ENDBRANCH  22  26
ENDBRANCH  18  20
ENDBRANCH   7  17
TORSDOF 3
ENDMDL
