MODEL 1
REMARK VINA RESULT:       2.5      0.000      0.000
REMARK  7 active torsions:
REMARK  status: ('A' for Active; 'I' for Inactive)
REMARK    1  A    between atoms: C_10  and  C_4 
REMARK    2  A    between atoms: N_12  and  C_5 
REMARK    3  A    between atoms: C_11  and  C_8 
REMARK    4  A    between atoms: C_21  and  N_12 
REMARK    5  A    between atoms: N_16  and  C_25 
REMARK    6  A    between atoms: C_20  and  C_21 
REMARK    7  A    between atoms: C_25  and  C_20 
ROOT
ATOM      1  C   UNL d   1     -41.528-122.205 -52.431  0.00  0.00     0.168 A 
ATOM      2  N   UNL d   1     -41.433-122.570 -51.687  0.00  0.00    -0.184 N 
ATOM      3  N   UNL d   1     -41.451-121.397 -52.495  0.00  0.00    -0.231 NA
ATOM      4  C   UNL d   1     -41.694-122.655 -53.080  0.00  0.00     0.057 A 
ATOM      5  C   UNL d   1     -41.266-122.109 -51.043  0.00  0.00     0.217 A 
ATOM      6  N   UNL d   1     -41.674-123.817 -52.273  0.00  0.00    -0.160 NA
ATOM      7  C   UNL d   1     -41.188-121.299 -51.100  0.00  0.00     0.067 A 
ATOM      8  C   UNL d   1     -41.283-120.936 -51.841  0.00  0.00     0.064 A 
ATOM      9  C   UNL d   1     -41.767-123.460 -53.001  0.00  0.00     0.124 A 
ENDROOT
BRANCH   4  10
ATOM     10  C   UNL d   1     -41.787-122.298 -53.809  0.00  0.00     0.005 A 
ATOM     11  C   UNL d   1     -42.494-121.955 -54.015  0.00  0.00     0.001 A 
ATOM     12  C   UNL d   1     -42.588-121.594 -54.751  0.00  0.00     0.011 A 
ATOM     13  C   UNL d   1     -41.974-121.580 -55.273  0.00  0.00     0.058 A 
ATOM     14  C   UNL d   1     -41.256-121.929 -55.061  0.00  0.00     0.011 A 
ATOM     15 CL   UNL d   1     -42.070-121.210 -56.028  0.00  0.00    -0.082 Cl
ATOM     16  C   UNL d   1     -41.164-122.281 -54.344  0.00  0.00     0.001 A 
ENDBRANCH   4  10
BRANCH   5  17
ATOM     17  N   UNL d   1     -41.169-122.481 -50.283  0.00  0.00    -0.380 NA
BRANCH  17  18
ATOM     18  C   UNL d   1     -41.125-122.898 -49.549  0.00  0.00     0.164 C 
BRANCH  18  19
ATOM     19  C   UNL d   1     -41.803-122.913 -49.047  0.00  0.00     0.054 C 
BRANCH  19  20
ATOM     20  C   UNL d   1     -41.744-123.281 -48.274  0.00  0.00     0.083 C 
BRANCH  20  21
ATOM     21  N   UNL d   1     -42.443-123.436 -47.828  0.00  0.00    -0.300 N 
ATOM     22  C   UNL d   1     -42.145-123.004 -47.159  0.00  0.00     0.100 C 
ATOM     23  C   UNL d   1     -43.209-123.790 -47.773  0.00  0.00     0.100 C 
ENDBRANCH  20  21
ENDBRANCH  19  20
ENDBRANCH  18  19
ENDBRANCH  17  18
ENDBRANCH   5  17
BRANCH   8  24
ATOM     24  C   UNL d   1     -41.204-120.090 -51.915  0.00  0.00     0.036 C 
ATOM     25  C   UNL d   1     -41.126-119.250 -51.984  0.00  0.00     0.006 C 
ATOM     26  C   UNL d   1     -41.151-119.734 -52.689  0.00  0.00     0.006 C 
ATOM     27  C   UNL d   1     -41.179-119.606 -51.211  0.00  0.00     0.006 C 
ENDBRANCH   8  24
TORSDOF 7
ENDMDL
