MODEL 1
REMARK VINA RESULT:       1.2      0.000      0.000
REMARK  8 active torsions:
REMARK  status: ('A' for Active; 'I' for Inactive)
REMARK    1  A    between atoms: C_16  and  N_1 
REMARK    2  A    between atoms: S_7  and  C_2 
REMARK       I    between atoms: C_6  and  N_12 
REMARK    3  A    between atoms: C_9  and  C_6 
REMARK    4  A    between atoms: C_13  and  S_7 
REMARK    5  A    between atoms: C_8  and  C_13 
REMARK    6  A    between atoms: N_12  and  C_22 
REMARK    7  A    between atoms: C_22  and  C_16 
REMARK    8  A    between atoms: O_24  and  C_18 
ROOT
ATOM      1  N   UNL d   1      56.882   0.677  32.782  0.00  0.00    -0.302 N 
ATOM      2  C   UNL d   1      56.290   0.676  33.983  0.00  0.00     0.049 A 
ATOM      3  C   UNL d   1      56.145   0.676  33.170  0.00  0.00     0.087 A 
ATOM      4  C   UNL d   1      57.114   0.676  34.106  0.00  0.00     0.024 A 
ATOM      5  C   UNL d   1      57.478   0.677  33.357  0.00  0.00     0.065 A 
ATOM      6  C   UNL d   1      57.581   0.676  34.783  0.00  0.00     0.002 A 
ATOM      7  C   UNL d   1      58.308   0.678  33.299  0.00  0.00     0.018 A 
ATOM      8  C   UNL d   1      58.398   0.677  34.728  0.00  0.00     0.000 A 
ATOM      9  C   UNL d   1      58.763   0.678  33.979  0.00  0.00     0.002 A 
ENDROOT
BRANCH   1  10
ATOM     10  C   UNL d   1      56.996   0.677  31.965  0.00  0.00     0.101 C 
BRANCH  10  11
ATOM     11  C   UNL d   1      56.961  -0.029  31.541  0.00  0.00     0.121 C 
BRANCH  11  12
ATOM     12  N   UNL d   1      57.540  -0.206  30.980  0.00  0.00    -0.205 NA
ATOM     13  C   UNL d   1      57.628  -0.977  30.708  0.00  0.00     0.279 C 
ATOM     14  O   UNL d   1      57.140  -1.578  30.995  0.00  0.00    -0.265 OA
BRANCH  13  15
ATOM     15  C   UNL d   1      58.206  -1.154  30.147  0.00  0.00     0.058 A 
ATOM     16  C   UNL d   1      58.419  -1.950  30.004  0.00  0.00     0.007 A 
ATOM     17  C   UNL d   1      58.997  -2.128  29.443  0.00  0.00     0.024 A 
ATOM     18  C   UNL d   1      59.360  -1.508  29.028  0.00  0.00     0.094 A 
ATOM     19  C   UNL d   1      59.149  -0.724  29.171  0.00  0.00     0.024 A 
ATOM     20  C   UNL d   1      58.576  -0.553  29.727  0.00  0.00     0.007 A 
BRANCH  18  21
ATOM     21  O   UNL d   1      59.949  -1.676  28.455  0.00  0.00    -0.328 OA
ATOM     22  C   UNL d   1      60.675  -2.017  28.666  0.00  0.00     0.181 C 
ENDBRANCH  18  21
ENDBRANCH  13  15
ENDBRANCH  11  12
ENDBRANCH  10  11
ENDBRANCH   1  10
BRANCH   2  23
ATOM     23  S   UNL d   1      55.720   0.675  34.581  0.00  0.00    -0.080 SA
BRANCH  23  24
ATOM     24  C   UNL d   1      55.025   0.233  34.489  0.00  0.00     0.100 C 
BRANCH  24  25
ATOM     25  C   UNL d   1      54.355   0.413  34.930  0.00  0.00     0.303 C 
ATOM     26  O   UNL d   1      53.614   0.398  34.570  0.00  0.00    -0.263 OA
ATOM     27  N   UNL d   1      54.423   0.607  35.728  0.00  0.00    -0.102 N 
ENDBRANCH  24  25
ENDBRANCH  23  24
ENDBRANCH   2  23
TORSDOF 8
ENDMDL
MODEL 2
REMARK VINA RESULT:       2.2      5.317      8.207
REMARK  8 active torsions:
REMARK  status: ('A' for Active; 'I' for Inactive)
REMARK    1  A    between atoms: C_16  and  N_1 
REMARK    2  A    between atoms: S_7  and  C_2 
REMARK       I    between atoms: C_6  and  N_12 
REMARK    3  A    between atoms: C_9  and  C_6 
REMARK    4  A    between atoms: C_13  and  S_7 
REMARK    5  A    between atoms: C_8  and  C_13 
REMARK    6  A    between atoms: N_12  and  C_22 
REMARK    7  A    between atoms: C_22  and  C_16 
REMARK    8  A    between atoms: O_24  and  C_18 
ROOT
ATOM      1  N   UNL d   1      57.812  -6.448  28.456  0.00  0.00    -0.302 N 
ATOM      2  C   UNL d   1      58.282  -7.702  28.456  0.00  0.00     0.049 A 
ATOM      3  C   UNL d   1      58.506  -6.907  28.455  0.00  0.00     0.087 A 
ATOM      4  C   UNL d   1      57.450  -7.742  28.458  0.00  0.00     0.024 A 
ATOM      5  C   UNL d   1      57.161  -6.961  28.457  0.00  0.00     0.065 A 
ATOM      6  C   UNL d   1      56.918  -8.369  28.459  0.00  0.00     0.002 A 
ATOM      7  C   UNL d   1      56.341  -6.821  28.458  0.00  0.00     0.018 A 
ATOM      8  C   UNL d   1      56.110  -8.234  28.460  0.00  0.00     0.000 A 
ATOM      9  C   UNL d   1      55.821  -7.452  28.460  0.00  0.00     0.002 A 
ENDROOT
BRANCH   1  10
ATOM     10  C   UNL d   1      57.779  -5.624  28.455  0.00  0.00     0.101 C 
BRANCH  10  11
ATOM     11  C   UNL d   1      58.476  -5.181  28.466  0.00  0.00     0.121 C 
BRANCH  11  12
ATOM     12  N   UNL d   1      58.457  -4.382  28.668  0.00  0.00    -0.205 NA
ATOM     13  C   UNL d   1      59.151  -3.941  28.667  0.00  0.00     0.279 C 
ATOM     14  O   UNL d   1      59.869  -4.294  28.466  0.00  0.00    -0.265 OA
BRANCH  13  15
ATOM     15  C   UNL d   1      59.132  -3.141  28.869  0.00  0.00     0.058 A 
ATOM     16  C   UNL d   1      59.769  -2.642  28.656  0.00  0.00     0.007 A 
ATOM     17  C   UNL d   1      59.751  -1.842  28.857  0.00  0.00     0.024 A 
ATOM     18  C   UNL d   1      59.097  -1.545  29.272  0.00  0.00     0.094 A 
ATOM     19  C   UNL d   1      58.471  -2.039  29.481  0.00  0.00     0.024 A 
ATOM     20  C   UNL d   1      58.493  -2.829  29.280  0.00  0.00     0.007 A 
BRANCH  18  21
ATOM     21  O   UNL d   1      59.067  -0.734  29.482  0.00  0.00    -0.328 OA
ATOM     22  C   UNL d   1      59.066  -0.137  28.908  0.00  0.00     0.181 C 
ENDBRANCH  18  21
ENDBRANCH  13  15
ENDBRANCH  11  12
ENDBRANCH  10  11
ENDBRANCH   1  10
BRANCH   2  23
ATOM     23  S   UNL d   1      58.789  -8.353  28.456  0.00  0.00    -0.080 SA
BRANCH  23  24
ATOM     24  C   UNL d   1      59.503  -8.320  28.874  0.00  0.00     0.100 C 
BRANCH  24  25
ATOM     25  C   UNL d   1      60.005  -8.971  28.895  0.00  0.00     0.303 C 
ATOM     26  O   UNL d   1      59.711  -9.707  29.123  0.00  0.00    -0.263 OA
ATOM     27  N   UNL d   1      60.800  -8.890  28.690  0.00  0.00    -0.102 N 
ENDBRANCH  24  25
ENDBRANCH  23  24
ENDBRANCH   2  23
TORSDOF 8
ENDMDL
MODEL 3
REMARK VINA RESULT:       2.7      2.742      6.193
REMARK  8 active torsions:
REMARK  status: ('A' for Active; 'I' for Inactive)
REMARK    1  A    between atoms: C_16  and  N_1 
REMARK    2  A    between atoms: S_7  and  C_2 
REMARK       I    between atoms: C_6  and  N_12 
REMARK    3  A    between atoms: C_9  and  C_6 
REMARK    4  A    between atoms: C_13  and  S_7 
REMARK    5  A    between atoms: C_8  and  C_13 
REMARK    6  A    between atoms: N_12  and  C_22 
REMARK    7  A    between atoms: C_22  and  C_16 
REMARK    8  A    between atoms: O_24  and  C_18 
ROOT
ATOM      1  N   UNL d   1      59.025  -2.680  29.765  0.00  0.00    -0.302 N 
ATOM      2  C   UNL d   1      58.762  -3.701  28.940  0.00  0.00     0.049 A 
ATOM      3  C   UNL d   1      58.417  -3.080  29.363  0.00  0.00     0.087 A 
ATOM      4  C   UNL d   1      59.584  -3.690  29.076  0.00  0.00     0.024 A 
ATOM      5  C   UNL d   1      59.744  -3.053  29.590  0.00  0.00     0.065 A 
ATOM      6  C   UNL d   1      60.203  -4.160  28.811  0.00  0.00     0.002 A 
ATOM      7  C   UNL d   1      60.525  -2.899  29.829  0.00  0.00     0.018 A 
ATOM      8  C   UNL d   1      60.974  -4.010  29.046  0.00  0.00     0.000 A 
ATOM      9  C   UNL d   1      61.133  -3.374  29.559  0.00  0.00     0.002 A 
ENDROOT
BRANCH   1  10
ATOM     10  C   UNL d   1      58.927  -2.022  30.254  0.00  0.00     0.101 C 
BRANCH  10  11
ATOM     11  C   UNL d   1      58.223  -1.593  30.236  0.00  0.00     0.121 C 
BRANCH  11  12
ATOM     12  N   UNL d   1      57.843  -1.388  30.939  0.00  0.00    -0.205 NA
ATOM     13  C   UNL d   1      57.385  -0.707  30.976  0.00  0.00     0.279 C 
ATOM     14  O   UNL d   1      57.302  -0.224  30.312  0.00  0.00    -0.265 OA
BRANCH  13  15
ATOM     15  C   UNL d   1      57.005  -0.502  31.679  0.00  0.00     0.058 A 
ATOM     16  C   UNL d   1      56.307  -0.904  31.908  0.00  0.00     0.007 A 
ATOM     17  C   UNL d   1      55.926  -0.700  32.611  0.00  0.00     0.024 A 
ATOM     18  C   UNL d   1      56.245  -0.095  33.081  0.00  0.00     0.094 A 
ATOM     19  C   UNL d   1      56.932   0.299  32.854  0.00  0.00     0.024 A 
ATOM     20  C   UNL d   1      57.306   0.093  32.157  0.00  0.00     0.007 A 
BRANCH  18  21
ATOM     21  O   UNL d   1      55.867   0.121  33.798  0.00  0.00    -0.328 OA
ATOM     22  C   UNL d   1      55.042   0.181  33.852  0.00  0.00     0.181 C 
ENDBRANCH  18  21
ENDBRANCH  13  15
ENDBRANCH  11  12
ENDBRANCH  10  11
ENDBRANCH   1  10
BRANCH   2  23
ATOM     23  S   UNL d   1      58.367  -4.245  28.461  0.00  0.00    -0.080 SA
BRANCH  23  24
ATOM     24  C   UNL d   1      58.397  -5.053  28.642  0.00  0.00     0.100 C 
BRANCH  24  25
ATOM     25  C   UNL d   1      57.722  -5.519  28.587  0.00  0.00     0.303 C 
ATOM     26  O   UNL d   1      56.979  -5.163  28.588  0.00  0.00    -0.263 OA
ATOM     27  N   UNL d   1      57.787  -6.339  28.531  0.00  0.00    -0.102 N 
ENDBRANCH  24  25
ENDBRANCH  23  24
ENDBRANCH   2  23
TORSDOF 8
ENDMDL
MODEL 4
REMARK VINA RESULT:       3.3      8.298      9.887
REMARK  8 active torsions:
REMARK  status: ('A' for Active; 'I' for Inactive)
REMARK    1  A    between atoms: C_16  and  N_1 
REMARK    2  A    between atoms: S_7  and  C_2 
REMARK       I    between atoms: C_6  and  N_12 
REMARK    3  A    between atoms: C_9  and  C_6 
REMARK    4  A    between atoms: C_13  and  S_7 
REMARK    5  A    between atoms: C_8  and  C_13 
REMARK    6  A    between atoms: N_12  and  C_22 
REMARK    7  A    between atoms: C_22  and  C_16 
REMARK    8  A    between atoms: O_24  and  C_18 
ROOT
ATOM      1  N   UNL d   1      59.162  -9.710  33.728  0.00  0.00    -0.302 N 
ATOM      2  C   UNL d   1      58.674  -9.505  32.498  0.00  0.00     0.049 A 
ATOM      3  C   UNL d   1      58.464  -9.585  33.293  0.00  0.00     0.087 A 
ATOM      4  C   UNL d   1      59.501  -9.578  32.434  0.00  0.00     0.024 A 
ATOM      5  C   UNL d   1      59.801  -9.705  33.201  0.00  0.00     0.065 A 
ATOM      6  C   UNL d   1      60.020  -9.548  31.797  0.00  0.00     0.002 A 
ATOM      7  C   UNL d   1      60.620  -9.801  33.316  0.00  0.00     0.018 A 
ATOM      8  C   UNL d   1      60.826  -9.642  31.908  0.00  0.00     0.000 A 
ATOM      9  C   UNL d   1      61.126  -9.769  32.675  0.00  0.00     0.002 A 
ENDROOT
BRANCH   1  10
ATOM     10  C   UNL d   1      59.208  -9.818  34.544  0.00  0.00     0.101 C 
BRANCH  10  11
ATOM     11  C   UNL d   1      58.963  -9.220  35.057  0.00  0.00     0.121 C 
BRANCH  11  12
ATOM     12  N   UNL d   1      59.459  -8.581  35.218  0.00  0.00    -0.205 NA
ATOM     13  C   UNL d   1      59.149  -7.890  35.539  0.00  0.00     0.279 C 
ATOM     14  O   UNL d   1      58.342  -7.832  35.701  0.00  0.00    -0.265 OA
BRANCH  13  15
ATOM     15  C   UNL d   1      59.645  -7.251  35.701  0.00  0.00     0.058 A 
ATOM     16  C   UNL d   1      60.331  -7.363  36.167  0.00  0.00     0.007 A 
ATOM     17  C   UNL d   1      60.828  -6.725  36.329  0.00  0.00     0.024 A 
ATOM     18  C   UNL d   1      60.636  -5.977  36.025  0.00  0.00     0.094 A 
ATOM     19  C   UNL d   1      59.959  -5.869  35.566  0.00  0.00     0.024 A 
ATOM     20  C   UNL d   1      59.471  -6.504  35.408  0.00  0.00     0.007 A 
BRANCH  18  21
ATOM     21  O   UNL d   1      61.133  -5.321  36.183  0.00  0.00    -0.328 OA
ATOM     22  C   UNL d   1      60.866  -4.542  36.088  0.00  0.00     0.181 C 
ENDBRANCH  18  21
ENDBRANCH  13  15
ENDBRANCH  11  12
ENDBRANCH  10  11
ENDBRANCH   1  10
BRANCH   2  23
ATOM     23  S   UNL d   1      58.158  -9.374  31.867  0.00  0.00    -0.080 SA
BRANCH  23  24
ATOM     24  C   UNL d   1      57.450  -9.802  31.816  0.00  0.00     0.100 C 
BRANCH  24  25
ATOM     25  C   UNL d   1      56.880  -9.600  31.261  0.00  0.00     0.303 C 
ATOM     26  O   UNL d   1      56.096  -9.499  31.497  0.00  0.00    -0.263 OA
ATOM     27  N   UNL d   1      57.088  -9.498  30.469  0.00  0.00    -0.102 N 
ENDBRANCH  24  25
ENDBRANCH  23  24
ENDBRANCH   2  23
TORSDOF 8
ENDMDL
