MODEL 1
REMARK VINA RESULT:      -4.8      0.000      0.000
REMARK  5 active torsions:
REMARK  status: ('A' for Active; 'I' for Inactive)
REMARK    1  A    between atoms: N_4  and  C_2 
REMARK    2  A    between atoms: S_8  and  C_3 
REMARK    3  A    between atoms: C_11  and  S_8 
REMARK    4  A    between atoms: C_9  and  C_11 
REMARK    5  A    between atoms: C_10  and  C_9 
ROOT
ATOM      1  N   UNL d   1      58.987  -0.952  29.593  0.00  0.00    -0.203 NA
ATOM      2  C   UNL d   1      59.671  -1.316  29.313  0.00  0.00     0.152 A 
ATOM      3  C   UNL d   1      59.006  -0.154  29.830  0.00  0.00     0.196 A 
ATOM      4  C   UNL d   1      60.373  -0.880  29.271  0.00  0.00     0.057 A 
ATOM      5  N   UNL d   1      59.708   0.274  29.786  0.00  0.00    -0.221 NA
ATOM      6  C   UNL d   1      60.392  -0.089  29.506  0.00  0.00     0.087 A 
ATOM      7  C   UNL d   1      61.098   0.339  29.460  0.00  0.00     0.021 C 
ENDROOT
BRANCH   3   8
ATOM      8  S   UNL d   1      58.314   0.210  30.113  0.00  0.00    -0.045 SA
BRANCH   8   9
ATOM      9  C   UNL d   1      57.932  -0.099  30.778  0.00  0.00     0.080 C 
BRANCH   9  10
ATOM     10  C   UNL d   1      57.186   0.181  30.989  0.00  0.00     0.202 C 
ATOM     11  O   UNL d   1      56.778   0.682  30.476  0.00  0.00    -0.286 OA
BRANCH  10  12
ATOM     12  C   UNL d   1      56.856  -0.042  31.710  0.00  0.00     0.040 A 
ATOM     13  C   UNL d   1      56.626  -0.829  31.825  0.00  0.00     0.004 A 
ATOM     14  C   UNL d   1      56.295  -1.058  32.545  0.00  0.00     0.011 A 
ATOM     15  C   UNL d   1      56.197  -0.498  33.144  0.00  0.00     0.058 A 
ATOM     16  C   UNL d   1      56.428   0.285  33.026  0.00  0.00     0.011 A 
ATOM     17 CL   UNL d   1      55.866  -0.724  33.867  0.00  0.00    -0.082 Cl
ATOM     18  C   UNL d   1      56.758   0.508  32.305  0.00  0.00     0.004 A 
ENDBRANCH  10  12
ENDBRANCH   9  10
ENDBRANCH   8   9
ENDBRANCH   3   8
BRANCH   2  19
ATOM     19  N   UNL d   1      59.656  -2.106  29.077  0.00  0.00    -0.285 N 
ATOM     20  C   UNL d   1      60.311  -2.582  29.206  0.00  0.00     0.108 A 
ATOM     21  C   UNL d   1      60.293  -3.372  28.968  0.00  0.00     0.142 A 
ATOM     22  O   UNL d   1      59.616  -3.677  28.603  0.00  0.00    -0.300 OA
ATOM     23  C   UNL d   1      58.962  -3.193  28.477  0.00  0.00     0.142 A 
ATOM     24  C   UNL d   1      58.980  -2.411  28.712  0.00  0.00     0.108 A 
ENDBRANCH   2  19
TORSDOF 5
ENDMDL
MODEL 2
REMARK VINA RESULT:      -3.3      2.305      4.919
REMARK  5 active torsions:
REMARK  status: ('A' for Active; 'I' for Inactive)
REMARK    1  A    between atoms: N_4  and  C_2 
REMARK    2  A    between atoms: S_8  and  C_3 
REMARK    3  A    between atoms: C_11  and  S_8 
REMARK    4  A    between atoms: C_9  and  C_11 
REMARK    5  A    between atoms: C_10  and  C_9 
ROOT
ATOM      1  N   UNL d   1      56.959   0.038  31.689  0.00  0.00    -0.203 NA
ATOM      2  C   UNL d   1      56.892   0.133  32.505  0.00  0.00     0.152 A 
ATOM      3  C   UNL d   1      57.692   0.158  31.314  0.00  0.00     0.196 A 
ATOM      4  C   UNL d   1      57.559   0.348  32.944  0.00  0.00     0.057 A 
ATOM      5  N   UNL d   1      58.353   0.372  31.757  0.00  0.00    -0.221 NA
ATOM      6  C   UNL d   1      58.286   0.467  32.572  0.00  0.00     0.087 A 
ATOM      7  C   UNL d   1      58.948   0.682  33.019  0.00  0.00     0.021 C 
ENDROOT
BRANCH   3   8
ATOM      8  S   UNL d   1      57.756   0.061  30.491  0.00  0.00    -0.045 SA
BRANCH   8   9
ATOM      9  C   UNL d   1      58.447  -0.261  30.170  0.00  0.00     0.080 C 
BRANCH   9  10
ATOM     10  C   UNL d   1      58.457  -0.505  29.382  0.00  0.00     0.202 C 
ATOM     11  O   UNL d   1      57.964  -0.136  28.834  0.00  0.00    -0.286 OA
BRANCH  10  12
ATOM     12  C   UNL d   1      58.960  -1.115  29.151  0.00  0.00     0.040 A 
ATOM     13  C   UNL d   1      58.637  -1.824  28.873  0.00  0.00     0.004 A 
ATOM     14  C   UNL d   1      59.136  -2.438  28.641  0.00  0.00     0.011 A 
ATOM     15  C   UNL d   1      59.954  -2.338  28.689  0.00  0.00     0.058 A 
ATOM     16  C   UNL d   1      60.273  -1.629  28.967  0.00  0.00     0.011 A 
ATOM     17 CL   UNL d   1      60.457  -2.951  28.457  0.00  0.00    -0.082 Cl
ATOM     18  C   UNL d   1      59.769  -1.019  29.197  0.00  0.00     0.004 A 
ENDBRANCH  10  12
ENDBRANCH   9  10
ENDBRANCH   8   9
ENDBRANCH   3   8
BRANCH   2  19
ATOM     19  N   UNL d   1      56.166   0.016  32.880  0.00  0.00    -0.285 N 
ATOM     20  C   UNL d   1      55.856  -0.741  32.939  0.00  0.00     0.108 A 
ATOM     21  C   UNL d   1      55.130  -0.854  33.315  0.00  0.00     0.142 A 
ATOM     22  O   UNL d   1      54.723  -0.207  33.629  0.00  0.00    -0.300 OA
ATOM     23  C   UNL d   1      55.041   0.550  33.567  0.00  0.00     0.142 A 
ATOM     24  C   UNL d   1      55.759   0.663  33.194  0.00  0.00     0.108 A 
ENDBRANCH   2  19
TORSDOF 5
ENDMDL
MODEL 3
REMARK VINA RESULT:      -3.2      2.720      5.505
REMARK  5 active torsions:
REMARK  status: ('A' for Active; 'I' for Inactive)
REMARK    1  A    between atoms: N_4  and  C_2 
REMARK    2  A    between atoms: S_8  and  C_3 
REMARK    3  A    between atoms: C_11  and  S_8 
REMARK    4  A    between atoms: C_9  and  C_11 
REMARK    5  A    between atoms: C_10  and  C_9 
ROOT
ATOM      1  N   UNL d   1      56.289   0.655  32.841  0.00  0.00    -0.203 NA
ATOM      2  C   UNL d   1      56.255   0.664  33.664  0.00  0.00     0.152 A 
ATOM      3  C   UNL d   1      57.026   0.656  32.454  0.00  0.00     0.196 A 
ATOM      4  C   UNL d   1      56.958   0.673  34.099  0.00  0.00     0.057 A 
ATOM      5  N   UNL d   1      57.724   0.665  32.893  0.00  0.00    -0.221 NA
ATOM      6  C   UNL d   1      57.689   0.673  33.715  0.00  0.00     0.087 A 
ATOM      7  C   UNL d   1      58.388   0.682  34.158  0.00  0.00     0.021 C 
ENDROOT
BRANCH   3   8
ATOM      8  S   UNL d   1      57.057   0.647  31.623  0.00  0.00    -0.045 SA
BRANCH   8   9
ATOM      9  C   UNL d   1      57.646   0.211  31.241  0.00  0.00     0.080 C 
BRANCH   9  10
ATOM     10  C   UNL d   1      57.665   0.183  30.416  0.00  0.00     0.202 C 
ATOM     11  O   UNL d   1      57.116   0.618  29.981  0.00  0.00    -0.286 OA
BRANCH  10  12
ATOM     12  C   UNL d   1      58.233  -0.278  30.037  0.00  0.00     0.040 A 
ATOM     13  C   UNL d   1      58.907   0.086  29.724  0.00  0.00     0.004 A 
ATOM     14  C   UNL d   1      59.479  -0.371  29.343  0.00  0.00     0.011 A 
ATOM     15  C   UNL d   1      59.372  -1.187  29.280  0.00  0.00     0.058 A 
ATOM     16  C   UNL d   1      58.699  -1.546  29.594  0.00  0.00     0.011 A 
ATOM     17 CL   UNL d   1      59.943  -1.648  28.899  0.00  0.00    -0.082 Cl
ATOM     18  C   UNL d   1      58.131  -1.085  29.973  0.00  0.00     0.004 A 
ENDBRANCH  10  12
ENDBRANCH   9  10
ENDBRANCH   8   9
ENDBRANCH   3   8
BRANCH   2  19
ATOM     19  N   UNL d   1      55.526   0.663  34.051  0.00  0.00    -0.285 N 
ATOM     20  C   UNL d   1      54.833   0.676  33.615  0.00  0.00     0.108 A 
ATOM     21  C   UNL d   1      54.106   0.676  34.005  0.00  0.00     0.142 A 
ATOM     22  O   UNL d   1      54.083   0.662  34.832  0.00  0.00    -0.300 OA
ATOM     23  C   UNL d   1      54.783   0.649  35.265  0.00  0.00     0.142 A 
ATOM     24  C   UNL d   1      55.503   0.650  34.878  0.00  0.00     0.108 A 
ENDBRANCH   2  19
TORSDOF 5
ENDMDL
MODEL 4
REMARK VINA RESULT:      -3.0      8.449      9.061
REMARK  5 active torsions:
REMARK  status: ('A' for Active; 'I' for Inactive)
REMARK    1  A    between atoms: N_4  and  C_2 
REMARK    2  A    between atoms: S_8  and  C_3 
REMARK    3  A    between atoms: C_11  and  S_8 
REMARK    4  A    between atoms: C_9  and  C_11 
REMARK    5  A    between atoms: C_10  and  C_9 
ROOT
ATOM      1  N   UNL d   1      58.901  -9.614  33.158  0.00  0.00    -0.203 NA
ATOM      2  C   UNL d   1      58.959  -9.674  32.338  0.00  0.00     0.152 A 
ATOM      3  C   UNL d   1      59.589  -9.613  33.627  0.00  0.00     0.196 A 
ATOM      4  C   UNL d   1      59.707  -9.734  31.989  0.00  0.00     0.057 A 
ATOM      5  N   UNL d   1      60.330  -9.673  33.272  0.00  0.00    -0.221 NA
ATOM      6  C   UNL d   1      60.388  -9.733  32.453  0.00  0.00     0.087 A 
ATOM      7  C   UNL d   1      61.132  -9.793  32.095  0.00  0.00     0.021 C 
ENDROOT
BRANCH   3   8
ATOM      8  S   UNL d   1      59.526  -9.553  34.453  0.00  0.00    -0.045 SA
BRANCH   8   9
ATOM      9  C   UNL d   1      59.371  -8.817  34.798  0.00  0.00     0.080 C 
BRANCH   9  10
ATOM     10  C   UNL d   1      59.662  -8.648  35.551  0.00  0.00     0.202 C 
ATOM     11  O   UNL d   1      59.744  -9.256  36.102  0.00  0.00    -0.286 OA
BRANCH  10  12
ATOM     12  C   UNL d   1      59.868  -7.874  35.743  0.00  0.00     0.040 A 
ATOM     13  C   UNL d   1      59.272  -7.310  35.846  0.00  0.00     0.004 A 
ATOM     14  C   UNL d   1      59.473  -6.533  36.039  0.00  0.00     0.011 A 
ATOM     15  C   UNL d   1      60.268  -6.329  36.128  0.00  0.00     0.058 A 
ATOM     16  C   UNL d   1      60.859  -6.895  36.025  0.00  0.00     0.011 A 
ATOM     17 CL   UNL d   1      60.473  -5.551  36.321  0.00  0.00    -0.082 Cl
ATOM     18  C   UNL d   1      60.653  -7.669  35.832  0.00  0.00     0.004 A 
ENDBRANCH  10  12
ENDBRANCH   9  10
ENDBRANCH   8   9
ENDBRANCH   3   8
BRANCH   2  19
ATOM     19  N   UNL d   1      58.280  -9.675  31.870  0.00  0.00    -0.285 N 
ATOM     20  C   UNL d   1      58.339  -9.818  31.066  0.00  0.00     0.108 A 
ATOM     21  C   UNL d   1      57.657  -9.818  30.601  0.00  0.00     0.142 A 
ATOM     22  O   UNL d   1      56.921  -9.674  30.950  0.00  0.00    -0.300 OA
ATOM     23  C   UNL d   1      56.868  -9.531  31.759  0.00  0.00     0.142 A 
ATOM     24  C   UNL d   1      57.544  -9.531  32.219  0.00  0.00     0.108 A 
ENDBRANCH   2  19
TORSDOF 5
ENDMDL
