MODEL 1
REMARK VINA RESULT:       8.6      0.000      0.000
REMARK  2 active torsions:
REMARK  status: ('A' for Active; 'I' for Inactive)
REMARK    1  A    between atoms: C_6  and  C_1 
REMARK    2  A    between atoms: O_12  and  C_9 
ROOT
ATOM      1  C   UNL d   1     -50.874  26.059  33.349  0.00  0.00     0.128 A 
ATOM      2  C   UNL d   1     -51.692  26.172  33.332  0.00  0.00     0.306 A 
ATOM      3  O   UNL d   1     -52.187  25.533  33.324  0.00  0.00    -0.271 OA
ATOM      4  C   UNL d   1     -50.575  25.311  33.358  0.00  0.00     0.013 A 
ATOM      5  C   UNL d   1     -51.888  24.745  33.333  0.00  0.00     0.125 A 
ATOM      6  C   UNL d   1     -51.071  24.633  33.350  0.00  0.00     0.025 A 
ATOM      7  O   UNL d   1     -51.996  26.919  33.323  0.00  0.00    -0.259 OA
ATOM      8  C   UNL d   1     -52.386  24.085  33.325  0.00  0.00     0.117 A 
ATOM      9  C   UNL d   1     -50.774  23.863  33.359  0.00  0.00     0.002 A 
ATOM     10  C   UNL d   1     -51.268  23.198  33.351  0.00  0.00     0.002 A 
ATOM     11  C   UNL d   1     -52.085  23.310  33.334  0.00  0.00     0.026 A 
ENDROOT
BRANCH   1  12
ATOM     12  C   UNL d   1     -50.353  26.693  33.357  0.00  0.00     0.216 C 
ATOM     13  O   UNL d   1     -49.516  26.569  33.341  0.00  0.00    -0.644 OA
ATOM     14  O   UNL d   1     -50.703  27.411  33.381  0.00  0.00    -0.644 OA
ENDBRANCH   1  12
BRANCH   8  15
ATOM     15  O   UNL d   1     -53.195  24.196  33.308  0.00  0.00    -0.326 OA
ATOM     16  C   UNL d   1     -53.694  23.559  33.311  0.00  0.00     0.181 C 
ENDBRANCH   8  15
TORSDOF 2
ENDMDL
