MODEL 1
REMARK VINA RESULT:      59.4      0.000      0.000
REMARK  5 active torsions:
REMARK  status: ('A' for Active; 'I' for Inactive)
REMARK    1  A    between atoms: C_5  and  C_1 
REMARK    2  A    between atoms: C_2  and  C_5 
REMARK    3  A    between atoms: C_7  and  C_2 
REMARK    4  A    between atoms: N_4  and  C_11 
REMARK       I    between atoms: N_12  and  C_7 
REMARK    5  A    between atoms: C_17  and  N_12 
ROOT
ATOM      1  C   UNL d   1     -51.011  26.352  34.050  0.00  0.00     0.126 C 
ATOM      2  C   UNL d   1     -50.241  26.543  33.849  0.00  0.00     0.106 C 
ATOM      3  N   UNL d   1     -49.461  26.737  33.649  0.00  0.00    -0.191 NA
ENDROOT
BRANCH   1   4
ATOM      4  C   UNL d   1     -51.492  25.953  33.506  0.00  0.00     0.017 C 
BRANCH   4   5
ATOM      5  C   UNL d   1     -51.461  25.131  33.449  0.00  0.00     0.020 A 
ATOM      6  C   UNL d   1     -50.768  24.677  33.423  0.00  0.00     0.080 A 
ATOM      7  N   UNL d   1     -50.991  23.877  33.365  0.00  0.00    -0.303 N 
ATOM      8  C   UNL d   1     -50.483  23.234  33.324  0.00  0.00     0.100 C 
ATOM      9  C   UNL d   1     -51.823  23.842  33.355  0.00  0.00     0.064 A 
ATOM     10  C   UNL d   1     -52.111  24.623  33.407  0.00  0.00     0.018 A 
ATOM     11  C   UNL d   1     -52.353  23.212  33.306  0.00  0.00     0.018 A 
ATOM     12  C   UNL d   1     -52.924  24.759  33.409  0.00  0.00     0.002 A 
ATOM     13  C   UNL d   1     -53.445  24.126  33.360  0.00  0.00     0.000 A 
ATOM     14  C   UNL d   1     -53.164  23.356  33.309  0.00  0.00     0.002 A 
ENDBRANCH   4   5
ENDBRANCH   1   4
BRANCH   1  15
ATOM     15  C   UNL d   1     -51.312  26.557  34.794  0.00  0.00     0.289 C 
ATOM     16  N   UNL d   1     -50.941  26.272  35.474  0.00  0.00    -0.207 NA
ATOM     17  O   UNL d   1     -51.973  27.039  34.850  0.00  0.00    -0.264 OA
BRANCH  16  18
ATOM     18  C   UNL d   1     -51.125  26.389  36.271  0.00  0.00     0.086 A 
ATOM     19  C   UNL d   1     -51.736  25.969  36.618  0.00  0.00     0.043 A 
ATOM     20  C   UNL d   1     -51.919  26.087  37.414  0.00  0.00     0.128 A 
ATOM     21  C   UNL d   1     -51.478  26.635  37.860  0.00  0.00     0.024 A 
ATOM     22  C   UNL d   1     -50.862  27.055  37.500  0.00  0.00     0.003 A 
ATOM     23  C   UNL d   1     -50.690  26.929  36.709  0.00  0.00     0.019 A 
BRANCH  20  24
ATOM     24  N   UNL d   1     -52.535  25.665  37.768  0.00  0.00    -0.114 N 
ATOM     25  O   UNL d   1     -52.563  25.598  38.590  0.00  0.00    -0.532 OA
ATOM     26  O   UNL d   1     -53.120  25.313  37.297  0.00  0.00    -0.532 OA
ENDBRANCH  20  24
ENDBRANCH  16  18
ENDBRANCH   1  15
TORSDOF 5
ENDMDL
