MODEL 1
REMARK VINA RESULT:       7.0      0.000      0.000
REMARK  8 active torsions:
REMARK  status: ('A' for Active; 'I' for Inactive)
REMARK    1  A    between atoms: S_7  and  C_3 
REMARK    2  A    between atoms: C_8  and  C_4 
REMARK    3  A    between atoms: C_14  and  S_7 
REMARK    4  A    between atoms: C_17  and  C_8 
REMARK    5  A    between atoms: C_9  and  C_14 
REMARK       I    between atoms: N_12  and  C_9 
REMARK    6  A    between atoms: C_15  and  N_12 
REMARK    7  A    between atoms: O_22  and  C_16 
REMARK    8  A    between atoms: C_23  and  O_22 
ROOT
ATOM      1  N   UNL d   1     -41.644-123.282 -50.655  0.00  0.00    -0.149 N 
ATOM      2  C   UNL d   1     -41.624-123.289 -49.848  0.00  0.00     0.303 A 
ATOM      3  C   UNL d   1     -42.138-122.761 -51.060  0.00  0.00     0.220 A 
ATOM      4  C   UNL d   1     -42.104-122.769 -49.435  0.00  0.00     0.161 A 
ATOM      5  N   UNL d   1     -42.599-122.248 -49.815  0.00  0.00    -0.141 NA
ATOM      6  N   UNL d   1     -42.618-122.241 -50.623  0.00  0.00    -0.121 NA
ATOM      7  O   UNL d   1     -41.124-123.817 -49.443  0.00  0.00    -0.263 OA
ATOM      8  N   UNL d   1     -41.164-123.803 -51.108  0.00  0.00    -0.037 N 
ENDROOT
BRANCH   3   9
ATOM      9  S   UNL d   1     -42.163-122.748 -51.877  0.00  0.00    -0.041 SA
BRANCH   9  10
ATOM     10  C   UNL d   1     -42.698-122.245 -52.265  0.00  0.00     0.101 C 
BRANCH  10  11
ATOM     11  C   UNL d   1     -42.524-121.984 -53.020  0.00  0.00     0.286 C 
ATOM     12  N   UNL d   1     -42.390-122.534 -53.620  0.00  0.00    -0.208 NA
ATOM     13  O   UNL d   1     -42.473-121.185 -53.221  0.00  0.00    -0.265 OA
BRANCH  12  14
ATOM     14  C   UNL d   1     -42.216-122.290 -54.378  0.00  0.00     0.085 A 
ATOM     15  C   UNL d   1     -42.801-121.980 -54.883  0.00  0.00     0.021 A 
ATOM     16  C   UNL d   1     -42.609-121.736 -55.649  0.00  0.00     0.026 A 
ATOM     17  C   UNL d   1     -41.848-121.789 -55.934  0.00  0.00     0.100 A 
ATOM     18  C   UNL d   1     -41.263-122.099 -55.429  0.00  0.00     0.026 A 
ATOM     19  C   UNL d   1     -41.435-122.340 -54.685  0.00  0.00     0.021 A 
BRANCH  17  20
ATOM     20  O   UNL d   1     -41.677-121.549 -56.678  0.00  0.00    -0.305 OA
BRANCH  20  21
ATOM     21  C   UNL d   1     -41.456-120.770 -56.846  0.00  0.00     0.123 C 
ATOM     22  C   UNL d   1     -41.422-120.484 -57.619  0.00  0.00     0.029 C 
ENDBRANCH  20  21
ENDBRANCH  17  20
ENDBRANCH  12  14
ENDBRANCH  10  11
ENDBRANCH   9  10
ENDBRANCH   3   9
BRANCH   4  23
ATOM     23  C   UNL d   1     -42.084-122.776 -48.594  0.00  0.00     0.026 C 
BRANCH  23  24
ATOM     24  C   UNL d   1     -42.698-123.119 -48.186  0.00  0.00     0.002 A 
ATOM     25  C   UNL d   1     -43.333-123.466 -48.569  0.00  0.00     0.000 A 
ATOM     26  C   UNL d   1     -43.940-123.806 -48.162  0.00  0.00     0.000 A 
ATOM     27  C   UNL d   1     -43.924-123.805 -47.321  0.00  0.00     0.000 A 
ATOM     28  C   UNL d   1     -43.288-123.458 -46.920  0.00  0.00     0.000 A 
ATOM     29  C   UNL d   1     -42.682-123.119 -47.345  0.00  0.00     0.000 A 
ENDBRANCH  23  24
ENDBRANCH   4  23
TORSDOF 8
ENDMDL
