MODEL 1
REMARK VINA RESULT:       2.1      0.000      0.000
REMARK  5 active torsions:
REMARK  status: ('A' for Active; 'I' for Inactive)
REMARK    1  A    between atoms: S_13  and  C_7 
REMARK    2  A    between atoms: C_22  and  C_10 
REMARK    3  A    between atoms: C_11  and  C_16 
REMARK       I    between atoms: N_12  and  C_11 
REMARK    4  A    between atoms: C_16  and  S_13 
REMARK    5  A    between atoms: C_23  and  C_22 
ROOT
ATOM      1  N   UNL d   1     -41.828-123.088 -54.046  0.00  0.00    -0.224 N 
ATOM      2  N   UNL d   1     -41.676-121.664 -54.152  0.00  0.00    -0.241 N 
ATOM      3  C   UNL d   1     -41.818-122.393 -54.507  0.00  0.00     0.343 A 
ATOM      4  C   UNL d   1     -41.543-121.629 -53.336  0.00  0.00     0.160 A 
ATOM      5  C   UNL d   1     -41.694-123.045 -53.234  0.00  0.00     0.273 A 
ATOM      6  C   UNL d   1     -41.552-122.317 -52.879  0.00  0.00     0.115 A 
ATOM      7  C   UNL d   1     -41.419-122.274 -52.068  0.00  0.00     0.120 A 
ATOM      8  N   UNL d   1     -41.399-120.895 -52.974  0.00  0.00    -0.209 NA
ATOM      9  N   UNL d   1     -41.277-121.549 -51.711  0.00  0.00    -0.220 NA
ATOM     10  C   UNL d   1     -41.266-120.854 -52.163  0.00  0.00     0.165 A 
ATOM     11  O   UNL d   1     -41.952-122.438 -55.321  0.00  0.00    -0.245 OA
ATOM     12  O   UNL d   1     -41.704-123.735 -52.782  0.00  0.00    -0.266 OA
ATOM     13  C   UNL d   1     -41.970-123.810 -54.405  0.00  0.00     0.107 C 
ATOM     14  C   UNL d   1     -41.667-120.977 -54.608  0.00  0.00     0.105 C 
ENDROOT
BRANCH   7  15
ATOM     15  S   UNL d   1     -41.429-122.963 -51.615  0.00  0.00    -0.062 SA
BRANCH  15  16
ATOM     16  C   UNL d   1     -41.440-122.916 -50.791  0.00  0.00     0.098 C 
BRANCH  16  17
ATOM     17  C   UNL d   1     -42.064-123.243 -50.365  0.00  0.00     0.271 C 
ATOM     18  N   UNL d   1     -42.013-123.303 -49.540  0.00  0.00    -0.272 N 
ATOM     19  C   UNL d   1     -42.715-123.660 -49.181  0.00  0.00     0.083 A 
ATOM     20  C   UNL d   1     -41.380-123.043 -49.262  0.00  0.00     0.083 A 
ATOM     21  C   UNL d   1     -42.911-123.817 -48.502  0.00  0.00     0.019 A 
ATOM     22  C   UNL d   1     -42.465-123.685 -47.803  0.00  0.00     0.002 A 
ATOM     23  C   UNL d   1     -41.660-123.322 -47.766  0.00  0.00     0.002 A 
ATOM     24  C   UNL d   1     -41.157-123.025 -48.440  0.00  0.00     0.019 A 
ATOM     25  O   UNL d   1     -42.739-123.511 -50.757  0.00  0.00    -0.266 OA
ENDBRANCH  16  17
ENDBRANCH  15  16
ENDBRANCH   7  15
BRANCH  10  26
ATOM     26  C   UNL d   1     -41.123-120.125 -51.803  0.00  0.00     0.039 C 
BRANCH  26  27
ATOM     27  C   UNL d   1     -41.229-119.426 -52.234  0.00  0.00     0.003 C 
ATOM     28  C   UNL d   1     -41.158-118.698 -51.869  0.00  0.00     0.000 C 
ENDBRANCH  26  27
ENDBRANCH  10  26
TORSDOF 5
ENDMDL
