MODEL 1
REMARK VINA RESULT:      26.0      0.000      0.000
REMARK  4 active torsions:
REMARK  status: ('A' for Active; 'I' for Inactive)
REMARK    1  A    between atoms: C_7  and  C_1 
REMARK    2  A    between atoms: N_6  and  C_3 
REMARK       I    between atoms: C_8  and  N_6 
REMARK    3  A    between atoms: C_12  and  C_8 
REMARK    4  A    between atoms: C_15  and  C_12 
ROOT
ATOM      1  C   UNL d   1      13.525  12.310  -3.086  0.00  0.00     0.206 A 
ATOM      2  O   UNL d   1      14.266  12.231  -2.736  0.00  0.00    -0.253 OA
ATOM      3  C   UNL d   1      14.159  11.934  -1.954  0.00  0.00     0.297 A 
ATOM      4  N   UNL d   1      12.951  12.065  -2.526  0.00  0.00    -0.119 NA
ATOM      5  N   UNL d   1      13.349  11.837  -1.838  0.00  0.00    -0.101 NA
ENDROOT
BRANCH   3   6
ATOM      6  N   UNL d   1      14.746  11.779  -1.427  0.00  0.00    -0.165 NA
ATOM      7  C   UNL d   1      14.849  12.276  -0.785  0.00  0.00     0.282 C 
ATOM      8  O   UNL d   1      15.457  12.119  -0.236  0.00  0.00    -0.265 OA
BRANCH   7   9
ATOM      9  C   UNL d   1      14.365  12.929  -0.669  0.00  0.00     0.063 C 
BRANCH   9  10
ATOM     10  C   UNL d   1      14.688  13.670  -0.506  0.00  0.00     0.005 A 
ATOM     11  C   UNL d   1      15.510  13.752  -0.400  0.00  0.00     0.003 A 
ATOM     12  C   UNL d   1      15.823  14.499  -0.237  0.00  0.00     0.030 A 
ATOM     13  C   UNL d   1      15.340  15.158  -0.177  0.00  0.00     0.140 A 
ATOM     14  C   UNL d   1      14.526  15.076  -0.281  0.00  0.00     0.030 A 
ATOM     15  F   UNL d   1      15.654  15.896  -0.015  0.00  0.00    -0.204 F 
ATOM     16  C   UNL d   1      14.195  14.335  -0.446  0.00  0.00     0.003 A 
ENDBRANCH   9  10
ENDBRANCH   7   9
ENDBRANCH   3   6
BRANCH   1  17
ATOM     17  C   UNL d   1      13.377  12.578  -3.838  0.00  0.00     0.043 A 
ATOM     18  C   UNL d   1      13.325  13.405  -3.981  0.00  0.00     0.004 A 
ATOM     19  C   UNL d   1      13.176  13.684  -4.741  0.00  0.00     0.000 A 
ATOM     20  C   UNL d   1      13.422  13.935  -3.365  0.00  0.00     0.000 C 
ATOM     21  C   UNL d   1      13.076  13.151  -5.369  0.00  0.00     0.000 A 
ATOM     22  C   UNL d   1      13.131  12.331  -5.216  0.00  0.00     0.000 A 
ATOM     23  C   UNL d   1      13.281  12.060  -4.447  0.00  0.00     0.004 A 
ATOM     24  C   UNL d   1      13.036  11.782  -5.825  0.00  0.00     0.000 C 
ENDBRANCH   1  17
TORSDOF 4
ENDMDL
