MODEL 1
REMARK VINA RESULT:      60.2      0.000      0.000
REMARK  1 active torsions:
REMARK  status: ('A' for Active; 'I' for Inactive)
REMARK    1  A    between atoms: C_2  and  C_1 
REMARK       I    between atoms: N_6  and  C_2 
ROOT
ATOM      1  C   UNL d   1      60.571  49.253  50.845  0.00  0.00     0.057 A 
ATOM      2  C   UNL d   1      59.751  49.275  50.782  0.00  0.00     0.005 A 
ATOM      3  C   UNL d   1      59.287  49.428  51.457  0.00  0.00     0.001 A 
ATOM      4  C   UNL d   1      60.933  49.382  51.575  0.00  0.00     0.011 A 
ATOM      5  C   UNL d   1      59.652  49.555  52.182  0.00  0.00     0.006 A 
ATOM      6  C   UNL d   1      60.472  49.533  52.247  0.00  0.00     0.035 A 
ATOM      7 BR   UNL d   1      60.837  49.661  52.972  0.00  0.00    -0.049 Br
ATOM      8  C   UNL d   1      59.208  49.177  50.170  0.00  0.00     0.000 C 
ATOM      9  C   UNL d   1      58.510  49.407  51.187  0.00  0.00     0.000 C 
ATOM     10  C   UNL d   1      59.193  49.707  52.855  0.00  0.00     0.001 C 
ENDROOT
BRANCH   1  11
ATOM     11  C   UNL d   1      61.033  49.102  50.176  0.00  0.00     0.265 C 
ATOM     12  N   UNL d   1      61.345  48.347  50.053  0.00  0.00    -0.272 N 
ATOM     13  C   UNL d   1      61.244  47.695  50.542  0.00  0.00     0.083 A 
ATOM     14  C   UNL d   1      61.813  48.116  49.413  0.00  0.00     0.083 A 
ATOM     15  C   UNL d   1      61.648  47.059  50.211  0.00  0.00     0.021 A 
ATOM     16  C   UNL d   1      62.001  47.320  49.511  0.00  0.00     0.021 A 
ATOM     17  O   UNL d   1      61.181  49.703  49.634  0.00  0.00    -0.267 OA
ENDBRANCH   1  11
TORSDOF 1
ENDMDL
