MODEL 1
REMARK VINA RESULT:      25.1      0.000      0.000
REMARK  2 active torsions:
REMARK  status: ('A' for Active; 'I' for Inactive)
REMARK    1  A    between atoms: C_6  and  C_3 
REMARK    2  A    between atoms: C_13  and  C_7 
ROOT
ATOM      1  C   UNL d   1      59.746  49.679  51.268  0.00  0.00     0.018 A 
ATOM      2  C   UNL d   1      58.262  49.675  50.558  0.00  0.00     0.000 A 
ATOM      3  C   UNL d   1      59.069  49.650  51.735  0.00  0.00     0.002 A 
ATOM      4  C   UNL d   1      59.686  49.706  50.444  0.00  0.00     0.002 A 
ATOM      5  C   UNL d   1      58.323  49.647  51.382  0.00  0.00     0.000 A 
ATOM      6  C   UNL d   1      58.943  49.704  50.093  0.00  0.00     0.000 A 
ENDROOT
BRANCH   1   7
ATOM      7  C   UNL d   1      60.493  49.681  51.621  0.00  0.00     0.090 A 
ATOM      8  N   UNL d   1      60.648  49.698  52.431  0.00  0.00    -0.219 NA
ATOM      9  C   UNL d   1      61.464  49.694  52.536  0.00  0.00     0.215 A 
ATOM     10  S   UNL d   1      61.825  49.675  51.794  0.00  0.00    -0.045 SA
ATOM     11  N   UNL d   1      61.862  49.707  53.260  0.00  0.00    -0.120 N 
ATOM     12  C   UNL d   1      61.225  49.667  51.224  0.00  0.00     0.058 A 
ENDBRANCH   1   7
BRANCH   2  13
ATOM     13  C   UNL d   1      57.517  49.673  50.202  0.00  0.00     0.000 A 
ATOM     14  C   UNL d   1      56.842  49.707  50.675  0.00  0.00     0.000 A 
ATOM     15  C   UNL d   1      56.109  49.705  50.322  0.00  0.00     0.000 A 
ATOM     16  C   UNL d   1      56.034  49.669  49.501  0.00  0.00     0.000 A 
ATOM     17  C   UNL d   1      56.708  49.635  49.037  0.00  0.00     0.000 A 
ATOM     18  C   UNL d   1      57.453  49.637  49.387  0.00  0.00     0.000 A 
ENDBRANCH   2  13
TORSDOF 2
ENDMDL
