MODEL 1
REMARK VINA RESULT:      -7.4      0.000      0.000
REMARK  3 active torsions:
REMARK  status: ('A' for Active; 'I' for Inactive)
REMARK    1  A    between atoms: N_2  and  S_1 
REMARK    2  A    between atoms: C_3  and  S_1 
REMARK    3  A    between atoms: C_5  and  N_4 
ROOT
ATOM      1  N   UNL d   1      52.160  33.791  53.423  0.00  0.00    -0.226 N 
ATOM      2  N   UNL d   1      50.735  34.227  52.737  0.00  0.00    -0.286 N 
ATOM      3  C   UNL d   1      52.118  34.465  52.957  0.00  0.00     0.111 A 
ATOM      4  C   UNL d   1      51.489  33.334  53.547  0.00  0.00     0.111 A 
ATOM      5  C   UNL d   1      50.777  33.553  53.203  0.00  0.00     0.101 A 
ATOM      6  C   UNL d   1      51.405  34.683  52.613  0.00  0.00     0.101 A 
ENDROOT
BRANCH   1   7
ATOM      7  S   UNL d   1      52.884  33.564  53.775  0.00  0.00     0.277 S 
ATOM      8  O   UNL d   1      53.077  33.119  53.099  0.00  0.00    -0.199 OA
ATOM      9  O   UNL d   1      52.692  34.012  54.456  0.00  0.00    -0.199 OA
BRANCH   7  10
ATOM     10  C   UNL d   1      53.609  33.338  54.128  0.00  0.00     0.133 A 
ATOM     11  S   UNL d   1      54.180  32.841  53.792  0.00  0.00    -0.074 SA
ATOM     12  C   UNL d   1      54.809  32.770  54.340  0.00  0.00     0.036 A 
ATOM     13  C   UNL d   1      54.617  33.227  55.009  0.00  0.00     0.008 A 
ATOM     14  C   UNL d   1      53.878  33.579  54.884  0.00  0.00     0.020 A 
ENDBRANCH   7  10
ENDBRANCH   1   7
BRANCH   2  15
ATOM     15  C   UNL d   1      50.027  34.454  52.389  0.00  0.00     0.148 A 
ATOM     16  N   UNL d   1      49.488  34.888  52.828  0.00  0.00    -0.227 NA
ATOM     17  C   UNL d   1      48.778  35.119  52.489  0.00  0.00     0.101 A 
ATOM     18  C   UNL d   1      48.607  34.915  51.708  0.00  0.00     0.021 A 
ATOM     19  C   UNL d   1      49.154  34.477  51.273  0.00  0.00     0.005 A 
ATOM     20  C   UNL d   1      49.864  34.247  51.611  0.00  0.00     0.037 A 
ENDBRANCH   2  15
TORSDOF 3
ENDMDL
MODEL 2
REMARK VINA RESULT:      -7.4      1.531      4.508
REMARK  3 active torsions:
REMARK  status: ('A' for Active; 'I' for Inactive)
REMARK    1  A    between atoms: N_2  and  S_1 
REMARK    2  A    between atoms: C_3  and  S_1 
REMARK    3  A    between atoms: C_5  and  N_4 
ROOT
ATOM      1  N   UNL d   1      51.274  34.133  52.876  0.00  0.00    -0.226 N 
ATOM      2  N   UNL d   1      52.671  33.760  53.650  0.00  0.00    -0.286 N 
ATOM      3  C   UNL d   1      51.891  34.674  52.894  0.00  0.00     0.111 A 
ATOM      4  C   UNL d   1      51.355  33.405  53.245  0.00  0.00     0.111 A 
ATOM      5  C   UNL d   1      52.053  33.218  53.632  0.00  0.00     0.101 A 
ATOM      6  C   UNL d   1      52.589  34.488  53.281  0.00  0.00     0.101 A 
ENDROOT
BRANCH   1   7
ATOM      7  S   UNL d   1      50.559  34.319  52.482  0.00  0.00     0.277 S 
ATOM      8  O   UNL d   1      50.204  34.508  53.211  0.00  0.00    -0.199 OA
ATOM      9  O   UNL d   1      50.915  34.130  51.748  0.00  0.00    -0.199 OA
BRANCH   7  10
ATOM     10  C   UNL d   1      49.845  34.505  52.087  0.00  0.00     0.133 A 
ATOM     11  S   UNL d   1      49.193  34.895  52.418  0.00  0.00    -0.074 SA
ATOM     12  C   UNL d   1      48.608  34.961  51.823  0.00  0.00     0.036 A 
ATOM     13  C   UNL d   1      48.907  34.609  51.131  0.00  0.00     0.008 A 
ATOM     14  C   UNL d   1      49.670  34.326  51.288  0.00  0.00     0.020 A 
ENDBRANCH   7  10
ENDBRANCH   1   7
BRANCH   2  15
ATOM     15  C   UNL d   1      53.373  33.582  54.035  0.00  0.00     0.148 A 
ATOM     16  N   UNL d   1      53.499  33.873  54.792  0.00  0.00    -0.227 NA
ATOM     17  C   UNL d   1      54.198  33.702  55.184  0.00  0.00     0.101 A 
ATOM     18  C   UNL d   1      54.774  33.237  54.818  0.00  0.00     0.021 A 
ATOM     19  C   UNL d   1      54.641  32.948  54.057  0.00  0.00     0.005 A 
ATOM     20  C   UNL d   1      53.942  33.120  53.665  0.00  0.00     0.037 A 
ENDBRANCH   2  15
TORSDOF 3
ENDMDL
MODEL 3
REMARK VINA RESULT:      -5.8      2.646      4.108
REMARK  3 active torsions:
REMARK  status: ('A' for Active; 'I' for Inactive)
REMARK    1  A    between atoms: N_2  and  S_1 
REMARK    2  A    between atoms: C_3  and  S_1 
REMARK    3  A    between atoms: C_5  and  N_4 
ROOT
ATOM      1  N   UNL d   1      53.154  33.090  53.974  0.00  0.00    -0.226 N 
ATOM      2  N   UNL d   1      53.157  31.468  53.729  0.00  0.00    -0.286 N 
ATOM      3  C   UNL d   1      52.596  32.749  53.479  0.00  0.00     0.111 A 
ATOM      4  C   UNL d   1      53.714  32.621  54.348  0.00  0.00     0.111 A 
ATOM      5  C   UNL d   1      53.715  31.810  54.225  0.00  0.00     0.101 A 
ATOM      6  C   UNL d   1      52.597  31.937  53.356  0.00  0.00     0.101 A 
ENDROOT
BRANCH   1   7
ATOM      7  S   UNL d   1      53.156  33.917  54.102  0.00  0.00     0.277 S 
ATOM      8  O   UNL d   1      52.375  33.966  53.819  0.00  0.00    -0.199 OA
ATOM      9  O   UNL d   1      53.942  33.870  54.387  0.00  0.00    -0.199 OA
BRANCH   7  10
ATOM     10  C   UNL d   1      53.159  34.745  54.231  0.00  0.00     0.133 A 
ATOM     11  S   UNL d   1      52.977  35.127  54.943  0.00  0.00    -0.074 SA
ATOM     12  C   UNL d   1      53.052  35.951  54.814  0.00  0.00     0.036 A 
ATOM     13  C   UNL d   1      53.281  36.066  54.022  0.00  0.00     0.008 A 
ATOM     14  C   UNL d   1      53.348  35.325  53.657  0.00  0.00     0.020 A 
ENDBRANCH   7  10
ENDBRANCH   1   7
BRANCH   2  15
ATOM     15  C   UNL d   1      53.150  30.658  53.600  0.00  0.00     0.148 A 
ATOM     16  N   UNL d   1      53.355  30.154  54.214  0.00  0.00    -0.227 NA
ATOM     17  C   UNL d   1      53.350  29.343  54.094  0.00  0.00     0.101 A 
ATOM     18  C   UNL d   1      53.141  29.035  53.358  0.00  0.00     0.021 A 
ATOM     19  C   UNL d   1      52.937  29.548  52.745  0.00  0.00     0.005 A 
ATOM     20  C   UNL d   1      52.941  30.359  52.864  0.00  0.00     0.037 A 
ENDBRANCH   2  15
TORSDOF 3
ENDMDL
MODEL 4
REMARK VINA RESULT:      -5.8      2.657      3.647
REMARK  3 active torsions:
REMARK  status: ('A' for Active; 'I' for Inactive)
REMARK    1  A    between atoms: N_2  and  S_1 
REMARK    2  A    between atoms: C_3  and  S_1 
REMARK    3  A    between atoms: C_5  and  N_4 
ROOT
ATOM      1  N   UNL d   1      53.121  32.114  53.749  0.00  0.00    -0.226 N 
ATOM      2  N   UNL d   1      53.168  33.712  54.118  0.00  0.00    -0.286 N 
ATOM      3  C   UNL d   1      52.458  32.583  53.630  0.00  0.00     0.111 A 
ATOM      4  C   UNL d   1      53.808  32.444  54.053  0.00  0.00     0.111 A 
ATOM      5  C   UNL d   1      53.831  33.243  54.237  0.00  0.00     0.101 A 
ATOM      6  C   UNL d   1      52.481  33.383  53.814  0.00  0.00     0.101 A 
ENDROOT
BRANCH   1   7
ATOM      7  S   UNL d   1      53.102  31.299  53.563  0.00  0.00     0.277 S 
ATOM      8  O   UNL d   1      53.596  31.136  54.213  0.00  0.00    -0.199 OA
ATOM      9  O   UNL d   1      52.605  31.461  52.909  0.00  0.00    -0.199 OA
BRANCH   7  10
ATOM     10  C   UNL d   1      53.082  30.483  53.376  0.00  0.00     0.133 A 
ATOM     11  S   UNL d   1      53.228  29.860  53.901  0.00  0.00    -0.074 SA
ATOM     12  C   UNL d   1      53.147  29.144  53.474  0.00  0.00     0.036 A 
ATOM     13  C   UNL d   1      52.952  29.337  52.688  0.00  0.00     0.008 A 
ATOM     14  C   UNL d   1      52.910  30.161  52.622  0.00  0.00     0.020 A 
ENDBRANCH   7  10
ENDBRANCH   1   7
BRANCH   2  15
ATOM     15  C   UNL d   1      53.181  34.512  54.299  0.00  0.00     0.148 A 
ATOM     16  N   UNL d   1      53.250  34.744  55.083  0.00  0.00    -0.227 NA
ATOM     17  C   UNL d   1      53.264  35.541  55.273  0.00  0.00     0.101 A 
ATOM     18  C   UNL d   1      53.209  36.109  54.678  0.00  0.00     0.021 A 
ATOM     19  C   UNL d   1      53.141  35.869  53.891  0.00  0.00     0.005 A 
ATOM     20  C   UNL d   1      53.127  35.072  53.701  0.00  0.00     0.037 A 
ENDBRANCH   2  15
TORSDOF 3
ENDMDL
