MODEL 1
REMARK VINA RESULT:      51.6      0.000      0.000
REMARK  3 active torsions:
REMARK  status: ('A' for Active; 'I' for Inactive)
REMARK    1  A    between atoms: C_8  and  N_1 
REMARK    2  A    between atoms: O_16  and  C_11 
REMARK    3  A    between atoms: C_19  and  O_16 
ROOT
ATOM      1  N   UNL d   1      13.927  13.006  -2.156  0.00  0.00    -0.240 N 
ATOM      2  C   UNL d   1      14.164  13.786  -2.169  0.00  0.00     0.267 A 
ATOM      3  C   UNL d   1      13.575  12.570  -2.763  0.00  0.00     0.267 A 
ATOM      4  C   UNL d   1      13.376  12.808  -3.529  0.00  0.00     0.057 A 
ATOM      5  C   UNL d   1      14.114  14.330  -2.784  0.00  0.00     0.057 A 
ATOM      6  C   UNL d   1      13.483  13.546  -3.870  0.00  0.00     0.005 A 
ATOM      7  C   UNL d   1      13.811  14.228  -3.544  0.00  0.00     0.005 A 
ATOM      8  O   UNL d   1      14.503  14.069  -1.466  0.00  0.00    -0.267 OA
ATOM      9  O   UNL d   1      13.399  11.785  -2.575  0.00  0.00    -0.267 OA
ATOM     10  C   UNL d   1      13.035  12.200  -3.956  0.00  0.00     0.005 A 
ATOM     11  C   UNL d   1      14.417  15.053  -2.561  0.00  0.00     0.005 A 
ATOM     12  C   UNL d   1      13.814  14.850  -4.076  0.00  0.00     0.000 A 
ATOM     13  C   UNL d   1      13.244  13.678  -4.654  0.00  0.00     0.000 A 
ATOM     14  C   UNL d   1      12.899  13.063  -5.087  0.00  0.00     0.000 A 
ATOM     15  C   UNL d   1      14.119  15.582  -3.856  0.00  0.00     0.000 A 
ATOM     16  C   UNL d   1      14.423  15.684  -3.092  0.00  0.00     0.000 A 
ATOM     17  C   UNL d   1      12.796  12.332  -4.740  0.00  0.00     0.000 A 
ENDROOT
BRANCH   1  18
ATOM     18  C   UNL d   1      14.056  12.602  -1.444  0.00  0.00     0.092 A 
ATOM     19  C   UNL d   1      14.789  12.252  -1.295  0.00  0.00     0.116 A 
ATOM     20  C   UNL d   1      14.918  11.849  -0.583  0.00  0.00     0.026 A 
ATOM     21  C   UNL d   1      14.307  11.794  -0.016  0.00  0.00     0.002 A 
ATOM     22  C   UNL d   1      13.566  12.149  -0.172  0.00  0.00     0.002 A 
ATOM     23  C   UNL d   1      13.442  12.551  -0.884  0.00  0.00     0.020 A 
BRANCH  19  24
ATOM     24  O   UNL d   1      15.392  12.308  -1.857  0.00  0.00    -0.304 OA
BRANCH  24  25
ATOM     25  C   UNL d   1      16.017  11.780  -1.829  0.00  0.00     0.123 C 
ATOM     26  C   UNL d   1      16.788  12.067  -1.837  0.00  0.00     0.029 C 
ENDBRANCH  24  25
ENDBRANCH  19  24
ENDBRANCH   1  18
TORSDOF 3
ENDMDL
