MODEL 1
REMARK VINA RESULT:      42.9      0.000      0.000
REMARK  2 active torsions:
REMARK  status: ('A' for Active; 'I' for Inactive)
REMARK    1  A    between atoms: C_7  and  C_1 
REMARK    2  A    between atoms: O_15  and  C_11 
ROOT
ATOM      1  C   UNL d   1     -50.497  25.666  33.517  0.00  0.00     0.103 A 
ATOM      2  C   UNL d   1     -50.026  24.990  33.470  0.00  0.00     0.067 A 
ATOM      3  O   UNL d   1     -51.299  25.592  33.504  0.00  0.00    -0.307 OA
ATOM      4  C   UNL d   1     -50.356  24.241  33.410  0.00  0.00     0.200 A 
ATOM      5  C   UNL d   1     -51.196  24.179  33.398  0.00  0.00     0.062 A 
ATOM      6  C   UNL d   1     -51.668  24.854  33.445  0.00  0.00     0.103 A 
ATOM      7  O   UNL d   1     -49.863  23.581  33.364  0.00  0.00    -0.286 OA
ATOM      8  C   UNL d   1     -51.530  23.427  33.337  0.00  0.00     0.005 A 
ATOM      9  C   UNL d   1     -52.473  24.778  33.431  0.00  0.00     0.025 A 
ATOM     10  C   UNL d   1     -52.349  23.379  33.326  0.00  0.00     0.000 A 
ATOM     11  C   UNL d   1     -52.820  24.055  33.373  0.00  0.00     0.002 A 
ENDROOT
BRANCH   1  12
ATOM     12  C   UNL d   1     -50.146  26.392  33.575  0.00  0.00     0.023 A 
ATOM     13  C   UNL d   1     -49.318  26.464  33.600  0.00  0.00     0.004 A 
ATOM     14  C   UNL d   1     -48.940  27.191  33.660  0.00  0.00     0.024 A 
ATOM     15  C   UNL d   1     -49.428  27.881  33.695  0.00  0.00     0.094 A 
ATOM     16  C   UNL d   1     -50.256  27.810  33.669  0.00  0.00     0.024 A 
ATOM     17  C   UNL d   1     -50.613  27.089  33.611  0.00  0.00     0.004 A 
BRANCH  15  18
ATOM     18  O   UNL d   1     -49.054  28.656  33.757  0.00  0.00    -0.328 OA
ATOM     19  C   UNL d   1     -49.477  29.270  34.134  0.00  0.00     0.181 C 
ENDBRANCH  15  18
ENDBRANCH   1  12
TORSDOF 2
ENDMDL
