MODEL 1
REMARK VINA RESULT:       8.0      0.000      0.000
REMARK  4 active torsions:
REMARK  status: ('A' for Active; 'I' for Inactive)
REMARK    1  A    between atoms: S_4  and  C_1 
REMARK    2  A    between atoms: C_7  and  S_4 
REMARK       I    between atoms: C_5  and  N_6 
REMARK    3  A    between atoms: C_12  and  C_5 
REMARK    4  A    between atoms: N_6  and  C_7 
ROOT
ATOM      1  C   UNL d   1      45.959 -17.071  44.127  0.00  0.00     0.141 C 
ENDROOT
BRANCH   1   2
ATOM      2  N   UNL d   1      46.016 -16.236  44.175  0.00  0.00    -0.199 NA
ATOM      3  C   UNL d   1      45.446 -15.802  44.584  0.00  0.00     0.280 C 
ATOM      4  O   UNL d   1      44.804 -16.195  44.955  0.00  0.00    -0.265 OA
BRANCH   3   5
ATOM      5  C   UNL d   1      45.510 -14.985  44.625  0.00  0.00     0.058 A 
ATOM      6  C   UNL d   1      46.211 -14.633  44.902  0.00  0.00     0.005 A 
ATOM      7  C   UNL d   1      46.284 -13.818  44.947  0.00  0.00     0.000 A 
ATOM      8  C   UNL d   1      45.652 -13.328  44.714  0.00  0.00     0.000 A 
ATOM      9  C   UNL d   1      44.944 -13.680  44.434  0.00  0.00     0.000 A 
ATOM     10  C   UNL d   1      44.881 -14.518  44.393  0.00  0.00     0.005 A 
ENDBRANCH   3   5
ENDBRANCH   1   2
BRANCH   1  11
ATOM     11  S   UNL d   1      46.598 -17.530  43.836  0.00  0.00    -0.027 SA
BRANCH  11  12
ATOM     12  C   UNL d   1      46.510 -18.369  43.756  0.00  0.00     0.196 A 
ATOM     13  N   UNL d   1      46.475 -18.831  44.437  0.00  0.00    -0.221 NA
ATOM     14  C   UNL d   1      46.389 -19.651  44.364  0.00  0.00     0.085 A 
ATOM     15  C   UNL d   1      46.357 -20.075  44.955  0.00  0.00     0.021 C 
ATOM     16  C   UNL d   1      46.339 -20.008  43.601  0.00  0.00     0.038 A 
ATOM     17  C   UNL d   1      46.375 -19.533  42.937  0.00  0.00     0.085 A 
ATOM     18  N   UNL d   1      46.459 -18.726  42.993  0.00  0.00    -0.221 NA
ATOM     19  C   UNL d   1      46.326 -19.877  42.219  0.00  0.00     0.021 C 
ENDBRANCH  11  12
ENDBRANCH   1  11
TORSDOF 4
ENDMDL
MODEL 2
REMARK VINA RESULT:       9.1      1.113      4.916
REMARK  4 active torsions:
REMARK  status: ('A' for Active; 'I' for Inactive)
REMARK    1  A    between atoms: S_4  and  C_1 
REMARK    2  A    between atoms: C_7  and  S_4 
REMARK       I    between atoms: C_5  and  N_6 
REMARK    3  A    between atoms: C_12  and  C_5 
REMARK    4  A    between atoms: N_6  and  C_7 
ROOT
ATOM      1  C   UNL d   1      46.047 -16.608  44.284  0.00  0.00     0.141 C 
ENDROOT
BRANCH   1   2
ATOM      2  N   UNL d   1      46.157 -17.439  44.305  0.00  0.00    -0.199 NA
ATOM      3  C   UNL d   1      46.325 -17.855  43.612  0.00  0.00     0.280 C 
ATOM      4  O   UNL d   1      46.387 -17.447  42.881  0.00  0.00    -0.265 OA
BRANCH   3   5
ATOM      5  C   UNL d   1      46.432 -18.668  43.642  0.00  0.00     0.058 A 
ATOM      6  C   UNL d   1      46.441 -19.117  42.941  0.00  0.00     0.005 A 
ATOM      7  C   UNL d   1      46.547 -19.929  42.963  0.00  0.00     0.000 A 
ATOM      8  C   UNL d   1      46.647 -20.319  43.692  0.00  0.00     0.000 A 
ATOM      9  C   UNL d   1      46.638 -19.869  44.400  0.00  0.00     0.000 A 
ATOM     10  C   UNL d   1      46.529 -19.036  44.365  0.00  0.00     0.005 A 
ENDBRANCH   3   5
ENDBRANCH   1   2
BRANCH   1  11
ATOM     11  S   UNL d   1      45.759 -16.196  44.955  0.00  0.00    -0.027 SA
BRANCH  11  12
ATOM     12  C   UNL d   1      45.573 -15.371  44.893  0.00  0.00     0.196 A 
ATOM     13  N   UNL d   1      44.782 -15.143  44.880  0.00  0.00    -0.221 NA
ATOM     14  C   UNL d   1      44.595 -14.339  44.820  0.00  0.00     0.085 A 
ATOM     15  C   UNL d   1      43.901 -14.119  44.807  0.00  0.00     0.021 C 
ATOM     16  C   UNL d   1      45.208 -13.762  44.773  0.00  0.00     0.038 A 
ATOM     17  C   UNL d   1      45.987 -14.007  44.787  0.00  0.00     0.085 A 
ATOM     18  N   UNL d   1      46.186 -14.794  44.846  0.00  0.00    -0.221 NA
ATOM     19  C   UNL d   1      46.562 -13.456  44.742  0.00  0.00     0.021 C 
ENDBRANCH  11  12
ENDBRANCH   1  11
TORSDOF 4
ENDMDL
