MODEL 1
REMARK VINA RESULT:       4.2      0.000      0.000
REMARK  3 active torsions:
REMARK  status: ('A' for Active; 'I' for Inactive)
REMARK    1  A    between atoms: C_8  and  N_2 
REMARK    2  A    between atoms: C_12  and  C_8 
REMARK    3  A    between atoms: N_11  and  C_12 
ROOT
ATOM      1  C   UNL d   1     -41.843-122.239 -51.320  0.00  0.00     0.166 A 
ATOM      2  N   UNL d   1     -41.691-122.025 -52.104  0.00  0.00    -0.288 N 
ATOM      3  C   UNL d   1     -41.736-121.574 -50.840  0.00  0.00     0.117 A 
ATOM      4  N   UNL d   1     -42.066-122.962 -50.993  0.00  0.00    -0.225 NA
ATOM      5  N   UNL d   1     -41.853-121.635 -50.030  0.00  0.00    -0.241 NA
ATOM      6  C   UNL d   1     -41.517-120.947 -51.330  0.00  0.00     0.037 A 
ATOM      7  C   UNL d   1     -41.491-121.229 -52.094  0.00  0.00     0.067 A 
ATOM      8  C   UNL d   1     -42.184-123.026 -50.186  0.00  0.00     0.101 A 
ATOM      9  C   UNL d   1     -42.077-122.364 -49.706  0.00  0.00     0.099 A 
ATOM     10  C   UNL d   1     -41.339-120.147 -51.139  0.00  0.00     0.003 A 
ATOM     11  C   UNL d   1     -41.282-120.707 -52.714  0.00  0.00     0.018 A 
ATOM     12  C   UNL d   1     -42.408-123.755 -49.862  0.00  0.00     0.021 A 
ATOM     13  C   UNL d   1     -42.199-122.478 -48.967  0.00  0.00     0.021 A 
ATOM     14  C   UNL d   1     -41.137-119.644 -51.744  0.00  0.00     0.000 A 
ATOM     15  C   UNL d   1     -41.127-119.971 -52.477  0.00  0.00     0.002 A 
ATOM     16  C   UNL d   1     -42.418-123.153 -48.575  0.00  0.00     0.002 A 
ATOM     17  C   UNL d   1     -42.524-123.816 -49.060  0.00  0.00     0.002 A 
ENDROOT
BRANCH   2  18
ATOM     18  C   UNL d   1     -41.625-122.170 -52.914  0.00  0.00     0.101 C 
BRANCH  18  19
ATOM     19  C   UNL d   1     -41.746-122.969 -52.993  0.00  0.00     0.100 C 
BRANCH  19  20
ATOM     20  N   UNL d   1     -41.713-123.108 -53.805  0.00  0.00    -0.298 N 
ATOM     21  C   UNL d   1     -42.205-122.688 -54.317  0.00  0.00     0.107 A 
ATOM     22  C   UNL d   1     -42.171-122.828 -55.129  0.00  0.00     0.142 A 
ATOM     23  O   UNL d   1     -41.644-123.391 -55.434  0.00  0.00    -0.300 OA
ATOM     24  C   UNL d   1     -41.152-123.811 -54.922  0.00  0.00     0.142 A 
ATOM     25  C   UNL d   1     -41.187-123.669 -54.106  0.00  0.00     0.107 A 
ENDBRANCH  19  20
ENDBRANCH  18  19
ENDBRANCH   2  18
TORSDOF 3
ENDMDL
