MODEL 1
REMARK VINA RESULT:      -0.4      0.000      0.000
REMARK  4 active torsions:
REMARK  status: ('A' for Active; 'I' for Inactive)
REMARK    1  A    between atoms: N_2  and  S_1 
REMARK    2  A    between atoms: C_7  and  S_1 
REMARK    3  A    between atoms: C_11  and  C_4 
REMARK    4  A    between atoms: C_18  and  C_11 
ROOT
ATOM      1  N   UNL d   1     -42.588-122.603 -50.294  0.00  0.00    -0.202 N 
ATOM      2  C   UNL d   1     -43.376-122.389 -50.202  0.00  0.00     0.218 A 
ATOM      3  C   UNL d   1     -42.303-122.858 -49.553  0.00  0.00     0.135 A 
ATOM      4  N   UNL d   1     -43.581-122.510 -49.410  0.00  0.00    -0.178 NA
ATOM      5  C   UNL d   1     -42.915-122.798 -49.021  0.00  0.00     0.298 A 
ATOM      6  S   UNL d   1     -43.887-122.100 -50.794  0.00  0.00    -0.037 SA
ATOM      7  O   UNL d   1     -42.868-122.998 -48.212  0.00  0.00    -0.264 OA
ENDROOT
BRANCH   1   8
ATOM      8  S   UNL d   1     -42.227-122.541 -51.032  0.00  0.00     0.273 S 
ATOM      9  O   UNL d   1     -42.149-123.369 -51.063  0.00  0.00    -0.200 OA
ATOM     10  O   UNL d   1     -42.305-121.721 -51.001  0.00  0.00    -0.200 OA
BRANCH   8  11
ATOM     11  C   UNL d   1     -41.866-122.479 -51.770  0.00  0.00     0.104 A 
ATOM     12  C   UNL d   1     -41.504-121.775 -51.993  0.00  0.00     0.012 A 
ATOM     13  C   UNL d   1     -41.141-121.713 -52.735  0.00  0.00     0.001 A 
ATOM     14  C   UNL d   1     -41.506-121.127 -51.467  0.00  0.00     0.001 C 
ATOM     15  C   UNL d   1     -41.142-122.355 -53.249  0.00  0.00     0.000 A 
ATOM     16  C   UNL d   1     -41.505-123.061 -53.026  0.00  0.00     0.001 A 
ATOM     17  C   UNL d   1     -41.868-123.124 -52.285  0.00  0.00     0.013 A 
ATOM     18  C   UNL d   1     -41.505-123.710 -53.549  0.00  0.00     0.000 C 
ENDBRANCH   8  11
ENDBRANCH   1   8
BRANCH   3  19
ATOM     19  C   UNL d   1     -41.544-123.126 -49.372  0.00  0.00     0.023 C 
BRANCH  19  20
ATOM     20  C   UNL d   1     -41.265-123.089 -48.599  0.00  0.00     0.002 C 
ATOM     21  C   UNL d   1     -41.126-123.782 -48.181  0.00  0.00     0.000 C 
ATOM     22  C   UNL d   1     -41.126-122.364 -48.247  0.00  0.00     0.000 C 
ENDBRANCH  19  20
ENDBRANCH   3  19
TORSDOF 4
ENDMDL
MODEL 2
REMARK VINA RESULT:       0.2      1.803      4.149
REMARK  4 active torsions:
REMARK  status: ('A' for Active; 'I' for Inactive)
REMARK    1  A    between atoms: N_2  and  S_1 
REMARK    2  A    between atoms: C_7  and  S_1 
REMARK    3  A    between atoms: C_11  and  C_4 
REMARK    4  A    between atoms: C_18  and  C_11 
ROOT
ATOM      1  N   UNL d   1     -41.697-121.948 -52.797  0.00  0.00    -0.202 N 
ATOM      2  C   UNL d   1     -41.359-121.200 -52.807  0.00  0.00     0.218 A 
ATOM      3  C   UNL d   1     -41.839-122.179 -53.585  0.00  0.00     0.135 A 
ATOM      4  N   UNL d   1     -41.291-120.965 -53.597  0.00  0.00    -0.178 NA
ATOM      5  C   UNL d   1     -41.588-121.572 -54.066  0.00  0.00     0.298 A 
ATOM      6  S   UNL d   1     -41.123-120.749 -52.147  0.00  0.00    -0.037 SA
ATOM      7  O   UNL d   1     -41.629-121.573 -54.900  0.00  0.00    -0.264 OA
ENDROOT
BRANCH   1   8
ATOM      8  S   UNL d   1     -41.834-122.329 -52.079  0.00  0.00     0.273 S 
ATOM      9  O   UNL d   1     -41.126-122.755 -52.169  0.00  0.00    -0.200 OA
ATOM     10  O   UNL d   1     -42.536-121.906 -51.989  0.00  0.00    -0.200 OA
BRANCH   8  11
ATOM     11  C   UNL d   1     -41.972-122.709 -51.360  0.00  0.00     0.104 A 
ATOM     12  C   UNL d   1     -41.619-123.435 -51.205  0.00  0.00     0.012 A 
ATOM     13  C   UNL d   1     -41.757-123.817 -50.483  0.00  0.00     0.001 A 
ATOM     14  C   UNL d   1     -41.123-123.782 -51.780  0.00  0.00     0.001 C 
ATOM     15  C   UNL d   1     -42.247-123.471 -49.921  0.00  0.00     0.000 A 
ATOM     16  C   UNL d   1     -42.601-122.742 -50.075  0.00  0.00     0.001 A 
ATOM     17  C   UNL d   1     -42.463-122.360 -50.797  0.00  0.00     0.013 A 
ATOM     18  C   UNL d   1     -43.097-122.393 -49.503  0.00  0.00     0.000 C 
ENDBRANCH   8  11
ENDBRANCH   1   8
BRANCH   3  19
ATOM     19  C   UNL d   1     -42.172-122.885 -53.850  0.00  0.00     0.023 C 
BRANCH  19  20
ATOM     20  C   UNL d   1     -42.215-123.046 -54.657  0.00  0.00     0.002 C 
ATOM     21  C   UNL d   1     -41.584-123.408 -55.035  0.00  0.00     0.000 C 
ATOM     22  C   UNL d   1     -42.885-122.845 -55.079  0.00  0.00     0.000 C 
ENDBRANCH  19  20
ENDBRANCH   3  19
TORSDOF 4
ENDMDL
MODEL 3
REMARK VINA RESULT:       2.0      1.091      3.637
REMARK  4 active torsions:
REMARK  status: ('A' for Active; 'I' for Inactive)
REMARK    1  A    between atoms: N_2  and  S_1 
REMARK    2  A    between atoms: C_7  and  S_1 
REMARK    3  A    between atoms: C_11  and  C_4 
REMARK    4  A    between atoms: C_18  and  C_11 
ROOT
ATOM      1  N   UNL d   1     -42.692-122.419 -50.278  0.00  0.00    -0.202 N 
ATOM      2  C   UNL d   1     -43.487-122.230 -50.357  0.00  0.00     0.218 A 
ATOM      3  C   UNL d   1     -42.315-122.257 -51.004  0.00  0.00     0.135 A 
ATOM      4  N   UNL d   1     -43.606-121.953 -51.127  0.00  0.00    -0.178 NA
ATOM      5  C   UNL d   1     -42.881-121.973 -51.515  0.00  0.00     0.298 A 
ATOM      6  S   UNL d   1     -44.077-122.301 -49.773  0.00  0.00    -0.037 SA
ATOM      7  O   UNL d   1     -42.741-121.742 -52.305  0.00  0.00    -0.264 OA
ENDROOT
BRANCH   1   8
ATOM      8  S   UNL d   1     -42.406-122.712 -49.563  0.00  0.00     0.273 S 
ATOM      9  O   UNL d   1     -42.002-121.997 -49.431  0.00  0.00    -0.200 OA
ATOM     10  O   UNL d   1     -42.806-123.420 -49.694  0.00  0.00    -0.200 OA
BRANCH   8  11
ATOM     11  C   UNL d   1     -42.121-123.005 -48.848  0.00  0.00     0.104 A 
ATOM     12  C   UNL d   1     -41.481-123.522 -48.841  0.00  0.00     0.012 A 
ATOM     13  C   UNL d   1     -41.194-123.817 -48.122  0.00  0.00     0.001 A 
ATOM     14  C   UNL d   1     -41.125-123.745 -49.563  0.00  0.00     0.001 C 
ATOM     15  C   UNL d   1     -41.548-123.594 -47.414  0.00  0.00     0.000 A 
ATOM     16  C   UNL d   1     -42.190-123.075 -47.420  0.00  0.00     0.001 A 
ATOM     17  C   UNL d   1     -42.477-122.780 -48.139  0.00  0.00     0.013 A 
ATOM     18  C   UNL d   1     -42.548-122.850 -46.701  0.00  0.00     0.000 C 
ENDBRANCH   8  11
ENDBRANCH   1   8
BRANCH   3  19
ATOM     19  C   UNL d   1     -41.518-122.359 -51.191  0.00  0.00     0.023 C 
BRANCH  19  20
ATOM     20  C   UNL d   1     -41.284-122.445 -51.976  0.00  0.00     0.002 C 
ATOM     21  C   UNL d   1     -41.214-121.783 -52.456  0.00  0.00     0.000 C 
ATOM     22  C   UNL d   1     -41.123-123.187 -52.276  0.00  0.00     0.000 C 
ENDBRANCH  19  20
ENDBRANCH   3  19
TORSDOF 4
ENDMDL
