MODEL 1
REMARK VINA RESULT:      -2.8      0.000      0.000
REMARK  3 active torsions:
REMARK  status: ('A' for Active; 'I' for Inactive)
REMARK    1  A    between atoms: N_2  and  S_1 
REMARK    2  A    between atoms: C_4  and  S_1 
REMARK    3  A    between atoms: C_3  and  N_2 
ROOT
ATOM      1  N   UNL d   1      30.675  17.412 -24.782  0.00  0.00    -0.157 NA
ENDROOT
BRANCH   1   2
ATOM      2  S   UNL d   1      29.985  17.023 -24.552  0.00  0.00     0.285 S 
ATOM      3  O   UNL d   1      30.216  16.358 -24.981  0.00  0.00    -0.198 OA
ATOM      4  O   UNL d   1      29.745  17.689 -24.116  0.00  0.00    -0.198 OA
BRANCH   2   5
ATOM      5  C   UNL d   1      29.295  16.635 -24.320  0.00  0.00     0.105 A 
ATOM      6  C   UNL d   1      29.094  15.903 -24.663  0.00  0.00     0.013 A 
ATOM      7  C   UNL d   1      28.403  15.515 -24.431  0.00  0.00     0.001 A 
ATOM      8  C   UNL d   1      27.910  15.848 -23.861  0.00  0.00     0.000 A 
ATOM      9  C   UNL d   1      28.107  16.573 -23.520  0.00  0.00     0.001 A 
ATOM     10  C   UNL d   1      27.218  15.453 -23.633  0.00  0.00     0.000 C 
ATOM     11  C   UNL d   1      28.798  16.965 -23.750  0.00  0.00     0.013 A 
ENDBRANCH   2   5
ENDBRANCH   1   2
BRANCH   1  12
ATOM     12  C   UNL d   1      31.346  17.382 -24.302  0.00  0.00     0.111 A 
ATOM     13  C   UNL d   1      31.955  17.931 -24.404  0.00  0.00     0.100 A 
ATOM     14  N   UNL d   1      31.892  18.518 -24.993  0.00  0.00    -0.242 NA
ATOM     15  C   UNL d   1      32.625  17.900 -23.924  0.00  0.00     0.019 A 
ATOM     16  C   UNL d   1      32.503  19.071 -25.097  0.00  0.00     0.099 A 
ATOM     17  C   UNL d   1      33.174  19.040 -24.617  0.00  0.00     0.021 A 
ATOM     18  C   UNL d   1      33.235  18.457 -24.032  0.00  0.00     0.003 A 
ATOM     19  C   UNL d   1      32.689  17.320 -23.341  0.00  0.00     0.002 A 
ATOM     20  C   UNL d   1      32.082  16.771 -23.237  0.00  0.00     0.002 A 
ATOM     21  C   UNL d   1      31.412  16.801 -23.717  0.00  0.00     0.021 A 
ENDBRANCH   1  12
TORSDOF 3
ENDMDL
MODEL 2
REMARK VINA RESULT:      -2.2      4.192      5.957
REMARK  3 active torsions:
REMARK  status: ('A' for Active; 'I' for Inactive)
REMARK    1  A    between atoms: N_2  and  S_1 
REMARK    2  A    between atoms: C_4  and  S_1 
REMARK    3  A    between atoms: C_3  and  N_2 
ROOT
ATOM      1  N   UNL d   1      32.416  20.267 -21.601  0.00  0.00    -0.157 NA
ENDROOT
BRANCH   1   2
ATOM      2  S   UNL d   1      32.485  20.953 -21.147  0.00  0.00     0.285 S 
ATOM      3  O   UNL d   1      33.241  20.723 -20.913  0.00  0.00    -0.198 OA
ATOM      4  O   UNL d   1      31.723  21.192 -21.378  0.00  0.00    -0.198 OA
BRANCH   2   5
ATOM      5  C   UNL d   1      32.552  21.639 -20.693  0.00  0.00     0.105 A 
ATOM      6  C   UNL d   1      33.103  21.674 -20.070  0.00  0.00     0.013 A 
ATOM      7  C   UNL d   1      33.170  22.361 -19.616  0.00  0.00     0.001 A 
ATOM      8  C   UNL d   1      32.694  23.013 -19.777  0.00  0.00     0.000 A 
ATOM      9  C   UNL d   1      32.147  22.981 -20.394  0.00  0.00     0.001 A 
ATOM     10  C   UNL d   1      32.767  23.699 -19.318  0.00  0.00     0.000 C 
ATOM     11  C   UNL d   1      32.077  22.295 -20.850  0.00  0.00     0.013 A 
ENDBRANCH   2   5
ENDBRANCH   1   2
BRANCH   1  12
ATOM     12  C   UNL d   1      32.691  20.259 -22.378  0.00  0.00     0.111 A 
ATOM     13  C   UNL d   1      32.807  19.541 -22.771  0.00  0.00     0.100 A 
ATOM     14  N   UNL d   1      32.645  18.822 -22.379  0.00  0.00    -0.242 NA
ATOM     15  C   UNL d   1      33.081  19.533 -23.549  0.00  0.00     0.019 A 
ATOM     16  C   UNL d   1      32.761  18.099 -22.772  0.00  0.00     0.099 A 
ATOM     17  C   UNL d   1      33.036  18.091 -23.550  0.00  0.00     0.021 A 
ATOM     18  C   UNL d   1      33.195  18.805 -23.938  0.00  0.00     0.003 A 
ATOM     19  C   UNL d   1      33.241  20.243 -23.937  0.00  0.00     0.002 A 
ATOM     20  C   UNL d   1      33.126  20.961 -23.548  0.00  0.00     0.002 A 
ATOM     21  C   UNL d   1      32.852  20.969 -22.770  0.00  0.00     0.021 A 
ENDBRANCH   1  12
TORSDOF 3
ENDMDL
MODEL 3
REMARK VINA RESULT:      -2.0      3.720      4.940
REMARK  3 active torsions:
REMARK  status: ('A' for Active; 'I' for Inactive)
REMARK    1  A    between atoms: N_2  and  S_1 
REMARK    2  A    between atoms: C_4  and  S_1 
REMARK    3  A    between atoms: C_3  and  N_2 
ROOT
ATOM      1  N   UNL d   1      33.241  20.795 -22.559  0.00  0.00    -0.157 NA
ENDROOT
BRANCH   1   2
ATOM      2  S   UNL d   1      33.048  20.022 -22.775  0.00  0.00     0.285 S 
ATOM      3  O   UNL d   1      32.856  20.282 -23.533  0.00  0.00    -0.198 OA
ATOM      4  O   UNL d   1      33.241  19.753 -22.013  0.00  0.00    -0.198 OA
BRANCH   2   5
ATOM      5  C   UNL d   1      32.856  19.249 -22.990  0.00  0.00     0.105 A 
ATOM      6  C   UNL d   1      32.376  19.108 -23.656  0.00  0.00     0.013 A 
ATOM      7  C   UNL d   1      32.184  18.335 -23.870  0.00  0.00     0.001 A 
ATOM      8  C   UNL d   1      32.465  17.700 -23.428  0.00  0.00     0.000 A 
ATOM      9  C   UNL d   1      32.941  17.835 -22.767  0.00  0.00     0.001 A 
ATOM     10  C   UNL d   1      32.269  16.925 -23.649  0.00  0.00     0.000 C 
ATOM     11  C   UNL d   1      33.135  18.609 -22.550  0.00  0.00     0.013 A 
ENDBRANCH   2   5
ENDBRANCH   1   2
BRANCH   1  12
ATOM     12  C   UNL d   1      32.846  21.159 -21.933  0.00  0.00     0.111 A 
ATOM     13  C   UNL d   1      32.802  21.983 -21.890  0.00  0.00     0.100 A 
ATOM     14  N   UNL d   1      33.160  22.449 -22.483  0.00  0.00    -0.242 NA
ATOM     15  C   UNL d   1      32.407  22.346 -21.263  0.00  0.00     0.019 A 
ATOM     16  C   UNL d   1      33.117  23.278 -22.442  0.00  0.00     0.099 A 
ATOM     17  C   UNL d   1      32.722  23.641 -21.816  0.00  0.00     0.021 A 
ATOM     18  C   UNL d   1      32.368  23.177 -21.228  0.00  0.00     0.003 A 
ATOM     19  C   UNL d   1      32.054  21.886 -20.677  0.00  0.00     0.002 A 
ATOM     20  C   UNL d   1      32.095  21.063 -20.716  0.00  0.00     0.002 A 
ATOM     21  C   UNL d   1      32.491  20.700 -21.343  0.00  0.00     0.021 A 
ENDBRANCH   1  12
TORSDOF 3
ENDMDL
MODEL 4
REMARK VINA RESULT:      -1.6      2.331      3.261
REMARK  3 active torsions:
REMARK  status: ('A' for Active; 'I' for Inactive)
REMARK    1  A    between atoms: N_2  and  S_1 
REMARK    2  A    between atoms: C_4  and  S_1 
REMARK    3  A    between atoms: C_3  and  N_2 
ROOT
ATOM      1  N   UNL d   1      33.241  19.005 -23.609  0.00  0.00    -0.157 NA
ENDROOT
BRANCH   1   2
ATOM      2  S   UNL d   1      32.719  18.390 -23.782  0.00  0.00     0.285 S 
ATOM      3  O   UNL d   1      33.209  17.862 -23.381  0.00  0.00    -0.198 OA
ATOM      4  O   UNL d   1      32.220  18.916 -24.187  0.00  0.00    -0.198 OA
BRANCH   2   5
ATOM      5  C   UNL d   1      32.196  17.776 -23.955  0.00  0.00     0.105 A 
ATOM      6  C   UNL d   1      32.426  16.985 -23.830  0.00  0.00     0.013 A 
ATOM      7  C   UNL d   1      31.903  16.370 -24.004  0.00  0.00     0.001 A 
ATOM      8  C   UNL d   1      31.153  16.535 -24.299  0.00  0.00     0.000 A 
ATOM      9  C   UNL d   1      30.921  17.317 -24.424  0.00  0.00     0.001 A 
ATOM     10  C   UNL d   1      30.632  15.913 -24.471  0.00  0.00     0.000 C 
ATOM     11  C   UNL d   1      31.443  17.935 -24.251  0.00  0.00     0.013 A 
ENDBRANCH   2   5
ENDBRANCH   1   2
BRANCH   1  12
ATOM     12  C   UNL d   1      33.241  19.347 -22.858  0.00  0.00     0.111 A 
ATOM     13  C   UNL d   1      33.241  20.170 -22.776  0.00  0.00     0.100 A 
ATOM     14  N   UNL d   1      33.241  20.656 -23.454  0.00  0.00    -0.242 NA
ATOM     15  C   UNL d   1      33.241  20.512 -22.025  0.00  0.00     0.019 A 
ATOM     16  C   UNL d   1      33.241  21.483 -23.374  0.00  0.00     0.099 A 
ATOM     17  C   UNL d   1      33.241  21.825 -22.623  0.00  0.00     0.021 A 
ATOM     18  C   UNL d   1      33.241  21.341 -21.950  0.00  0.00     0.003 A 
ATOM     19  C   UNL d   1      33.241  20.032 -21.354  0.00  0.00     0.002 A 
ATOM     20  C   UNL d   1      33.241  19.211 -21.433  0.00  0.00     0.002 A 
ATOM     21  C   UNL d   1      33.241  18.869 -22.183  0.00  0.00     0.021 A 
ENDBRANCH   1  12
TORSDOF 3
ENDMDL
MODEL 5
REMARK VINA RESULT:      -1.3      4.332      5.753
REMARK  3 active torsions:
REMARK  status: ('A' for Active; 'I' for Inactive)
REMARK    1  A    between atoms: N_2  and  S_1 
REMARK    2  A    between atoms: C_4  and  S_1 
REMARK    3  A    between atoms: C_3  and  N_2 
ROOT
ATOM      1  N   UNL d   1      32.472  20.941 -21.222  0.00  0.00    -0.157 NA
ENDROOT
BRANCH   1   2
ATOM      2  S   UNL d   1      32.623  20.310 -21.732  0.00  0.00     0.285 S 
ATOM      3  O   UNL d   1      32.057  20.599 -22.257  0.00  0.00    -0.198 OA
ATOM      4  O   UNL d   1      33.195  20.012 -21.208  0.00  0.00    -0.198 OA
BRANCH   2   5
ATOM      5  C   UNL d   1      32.774  19.679 -22.241  0.00  0.00     0.105 A 
ATOM      6  C   UNL d   1      33.089  18.968 -21.941  0.00  0.00     0.013 A 
ATOM      7  C   UNL d   1      33.240  18.336 -22.451  0.00  0.00     0.001 A 
ATOM      8  C   UNL d   1      33.081  18.405 -23.256  0.00  0.00     0.000 A 
ATOM      9  C   UNL d   1      32.769  19.108 -23.556  0.00  0.00     0.001 A 
ATOM     10  C   UNL d   1      33.235  17.767 -23.762  0.00  0.00     0.000 C 
ATOM     11  C   UNL d   1      32.617  19.742 -23.049  0.00  0.00     0.013 A 
ENDBRANCH   2   5
ENDBRANCH   1   2
BRANCH   1  12
ATOM     12  C   UNL d   1      32.721  21.702 -21.423  0.00  0.00     0.111 A 
ATOM     13  C   UNL d   1      32.700  22.308 -20.862  0.00  0.00     0.100 A 
ATOM     14  N   UNL d   1      32.427  22.151 -20.089  0.00  0.00    -0.242 NA
ATOM     15  C   UNL d   1      32.948  23.069 -21.063  0.00  0.00     0.019 A 
ATOM     16  C   UNL d   1      32.405  22.759 -19.523  0.00  0.00     0.099 A 
ATOM     17  C   UNL d   1      32.653  23.519 -19.725  0.00  0.00     0.021 A 
ATOM     18  C   UNL d   1      32.924  23.675 -20.492  0.00  0.00     0.003 A 
ATOM     19  C   UNL d   1      33.218  23.225 -21.826  0.00  0.00     0.002 A 
ATOM     20  C   UNL d   1      33.240  22.622 -22.389  0.00  0.00     0.002 A 
ATOM     21  C   UNL d   1      32.992  21.862 -22.188  0.00  0.00     0.021 A 
ENDBRANCH   1  12
TORSDOF 3
ENDMDL
MODEL 6
REMARK VINA RESULT:      -1.3      1.256      4.147
REMARK  3 active torsions:
REMARK  status: ('A' for Active; 'I' for Inactive)
REMARK    1  A    between atoms: N_2  and  S_1 
REMARK    2  A    between atoms: C_4  and  S_1 
REMARK    3  A    between atoms: C_3  and  N_2 
ROOT
ATOM      1  N   UNL d   1      30.312  15.901 -24.723  0.00  0.00    -0.157 NA
ENDROOT
BRANCH   1   2
ATOM      2  S   UNL d   1      30.897  16.478 -24.798  0.00  0.00     0.285 S 
ATOM      3  O   UNL d   1      30.317  17.053 -24.909  0.00  0.00    -0.198 OA
ATOM      4  O   UNL d   1      31.488  15.905 -24.686  0.00  0.00    -0.198 OA
BRANCH   2   5
ATOM      5  C   UNL d   1      31.483  17.054 -24.872  0.00  0.00     0.105 A 
ATOM      6  C   UNL d   1      31.272  17.856 -24.957  0.00  0.00     0.013 A 
ATOM      7  C   UNL d   1      31.859  18.432 -25.031  0.00  0.00     0.001 A 
ATOM      8  C   UNL d   1      32.654  18.218 -25.022  0.00  0.00     0.000 A 
ATOM      9  C   UNL d   1      32.867  17.425 -24.937  0.00  0.00     0.001 A 
ATOM     10  C   UNL d   1      33.238  18.801 -25.097  0.00  0.00     0.000 C 
ATOM     11  C   UNL d   1      32.282  16.846 -24.863  0.00  0.00     0.013 A 
ENDBRANCH   2   5
ENDBRANCH   1   2
BRANCH   1  12
ATOM     12  C   UNL d   1      29.959  15.765 -23.991  0.00  0.00     0.111 A 
ATOM     13  C   UNL d   1      29.139  15.677 -23.934  0.00  0.00     0.100 A 
ATOM     14  N   UNL d   1      28.667  15.725 -24.621  0.00  0.00    -0.242 NA
ATOM     15  C   UNL d   1      28.786  15.541 -23.201  0.00  0.00     0.019 A 
ATOM     16  C   UNL d   1      27.843  15.637 -24.566  0.00  0.00     0.099 A 
ATOM     17  C   UNL d   1      27.489  15.501 -23.833  0.00  0.00     0.021 A 
ATOM     18  C   UNL d   1      27.959  15.453 -23.152  0.00  0.00     0.003 A 
ATOM     19  C   UNL d   1      29.251  15.492 -22.522  0.00  0.00     0.002 A 
ATOM     20  C   UNL d   1      30.070  15.580 -22.575  0.00  0.00     0.002 A 
ATOM     21  C   UNL d   1      30.423  15.716 -23.308  0.00  0.00     0.021 A 
ENDBRANCH   1  12
TORSDOF 3
ENDMDL
MODEL 7
REMARK VINA RESULT:      -0.2      1.465      4.039
REMARK  3 active torsions:
REMARK  status: ('A' for Active; 'I' for Inactive)
REMARK    1  A    between atoms: N_2  and  S_1 
REMARK    2  A    between atoms: C_4  and  S_1 
REMARK    3  A    between atoms: C_3  and  N_2 
ROOT
ATOM      1  N   UNL d   1      31.663  17.329 -24.511  0.00  0.00    -0.157 NA
ENDROOT
BRANCH   1   2
ATOM      2  S   UNL d   1      31.978  17.979 -24.112  0.00  0.00     0.285 S 
ATOM      3  O   UNL d   1      32.733  17.655 -24.182  0.00  0.00    -0.198 OA
ATOM      4  O   UNL d   1      31.220  18.311 -24.038  0.00  0.00    -0.198 OA
BRANCH   2   5
ATOM      5  C   UNL d   1      32.292  18.629 -23.713  0.00  0.00     0.105 A 
ATOM      6  C   UNL d   1      32.505  19.315 -24.135  0.00  0.00     0.013 A 
ATOM      7  C   UNL d   1      32.819  19.965 -23.735  0.00  0.00     0.001 A 
ATOM      8  C   UNL d   1      32.924  19.939 -22.919  0.00  0.00     0.000 A 
ATOM      9  C   UNL d   1      32.715  19.261 -22.498  0.00  0.00     0.001 A 
ATOM     10  C   UNL d   1      33.241  20.596 -22.524  0.00  0.00     0.000 C 
ATOM     11  C   UNL d   1      32.400  18.608 -22.895  0.00  0.00     0.013 A 
ENDBRANCH   2   5
ENDBRANCH   1   2
BRANCH   1  12
ATOM     12  C   UNL d   1      31.302  16.720 -24.087  0.00  0.00     0.111 A 
ATOM     13  C   UNL d   1      30.536  16.477 -24.278  0.00  0.00     0.100 A 
ATOM     14  N   UNL d   1      30.125  16.849 -24.903  0.00  0.00    -0.242 NA
ATOM     15  C   UNL d   1      30.175  15.869 -23.854  0.00  0.00     0.019 A 
ATOM     16  C   UNL d   1      29.354  16.607 -25.096  0.00  0.00     0.099 A 
ATOM     17  C   UNL d   1      28.994  15.998 -24.672  0.00  0.00     0.021 A 
ATOM     18  C   UNL d   1      29.402  15.630 -24.053  0.00  0.00     0.003 A 
ATOM     19  C   UNL d   1      30.579  15.501 -23.237  0.00  0.00     0.002 A 
ATOM     20  C   UNL d   1      31.345  15.740 -23.043  0.00  0.00     0.002 A 
ATOM     21  C   UNL d   1      31.706  16.349 -23.468  0.00  0.00     0.021 A 
ENDBRANCH   1  12
TORSDOF 3
ENDMDL
MODEL 8
REMARK VINA RESULT:      -0.1      2.837      4.002
REMARK  3 active torsions:
REMARK  status: ('A' for Active; 'I' for Inactive)
REMARK    1  A    between atoms: N_2  and  S_1 
REMARK    2  A    between atoms: C_4  and  S_1 
REMARK    3  A    between atoms: C_3  and  N_2 
ROOT
ATOM      1  N   UNL d   1      32.321  19.204 -22.725  0.00  0.00    -0.157 NA
ENDROOT
BRANCH   1   2
ATOM      2  S   UNL d   1      32.431  18.511 -23.159  0.00  0.00     0.285 S 
ATOM      3  O   UNL d   1      31.749  18.673 -23.592  0.00  0.00    -0.198 OA
ATOM      4  O   UNL d   1      33.120  18.340 -22.727  0.00  0.00    -0.198 OA
BRANCH   2   5
ATOM      5  C   UNL d   1      32.542  17.818 -23.592  0.00  0.00     0.105 A 
ATOM      6  C   UNL d   1      33.045  17.221 -23.302  0.00  0.00     0.013 A 
ATOM      7  C   UNL d   1      33.156  16.527 -23.735  0.00  0.00     0.001 A 
ATOM      8  C   UNL d   1      32.772  16.422 -24.456  0.00  0.00     0.000 A 
ATOM      9  C   UNL d   1      32.273  17.011 -24.746  0.00  0.00     0.001 A 
ATOM     10  C   UNL d   1      32.888  15.723 -24.886  0.00  0.00     0.000 C 
ATOM     11  C   UNL d   1      32.159  17.707 -24.315  0.00  0.00     0.013 A 
ENDBRANCH   2   5
ENDBRANCH   1   2
BRANCH   1  12
ATOM     12  C   UNL d   1      32.604  19.922 -23.017  0.00  0.00     0.111 A 
ATOM     13  C   UNL d   1      32.661  20.580 -22.519  0.00  0.00     0.100 A 
ATOM     14  N   UNL d   1      32.433  20.517 -21.719  0.00  0.00    -0.242 NA
ATOM     15  C   UNL d   1      32.944  21.298 -22.811  0.00  0.00     0.019 A 
ATOM     16  C   UNL d   1      32.490  21.177 -21.217  0.00  0.00     0.099 A 
ATOM     17  C   UNL d   1      32.772  21.895 -21.509  0.00  0.00     0.021 A 
ATOM     18  C   UNL d   1      32.999  21.956 -22.304  0.00  0.00     0.003 A 
ATOM     19  C   UNL d   1      33.170  21.361 -23.601  0.00  0.00     0.002 A 
ATOM     20  C   UNL d   1      33.114  20.706 -24.101  0.00  0.00     0.002 A 
ATOM     21  C   UNL d   1      32.831  19.988 -23.809  0.00  0.00     0.021 A 
ENDBRANCH   1  12
TORSDOF 3
ENDMDL
