MODEL 1
REMARK VINA RESULT:     -10.8      0.000      0.000
REMARK  2 active torsions:
REMARK  status: ('A' for Active; 'I' for Inactive)
REMARK    1  A    between atoms: C_2  and  C_1 
REMARK       I    between atoms: N_7  and  C_2 
REMARK    2  A    between atoms: C_9  and  N_7 
ROOT
ATOM      1  C   UNL d   1      52.952  32.000  52.990  0.00  0.00     0.280 C 
ATOM      2  N   UNL d   1      53.534  31.734  53.510  0.00  0.00    -0.208 NA
ATOM      3  O   UNL d   1      52.551  31.454  52.517  0.00  0.00    -0.265 OA
ENDROOT
BRANCH   1   4
ATOM      4  C   UNL d   1      52.773  32.803  52.944  0.00  0.00     0.065 A 
ATOM      5  C   UNL d   1      52.029  33.140  53.065  0.00  0.00     0.011 A 
ATOM      6  C   UNL d   1      52.108  33.950  52.964  0.00  0.00     0.030 A 
ATOM      7  C   UNL d   1      51.300  32.815  53.252  0.00  0.00     0.001 A 
ATOM      8  C   UNL d   1      51.449  34.445  53.051  0.00  0.00     0.006 A 
ATOM      9  S   UNL d   1      52.895  34.115  52.781  0.00  0.00    -0.086 SA
ATOM     10  C   UNL d   1      50.732  34.127  53.235  0.00  0.00     0.001 A 
ATOM     11  C   UNL d   1      50.645  33.310  53.338  0.00  0.00     0.000 A 
ATOM     12  C   UNL d   1      53.302  33.395  52.771  0.00  0.00     0.040 A 
ENDBRANCH   1   4
BRANCH   2  13
ATOM     13  C   UNL d   1      53.940  32.282  53.988  0.00  0.00     0.085 A 
ATOM     14  C   UNL d   1      54.582  32.696  53.684  0.00  0.00     0.019 A 
ATOM     15  C   UNL d   1      54.986  33.241  54.161  0.00  0.00     0.002 A 
ATOM     16  C   UNL d   1      54.746  33.370  54.940  0.00  0.00     0.000 A 
ATOM     17  C   UNL d   1      54.096  32.948  55.240  0.00  0.00     0.002 A 
ATOM     18  C   UNL d   1      55.159  33.918  55.406  0.00  0.00     0.000 C 
ATOM     19  C   UNL d   1      53.695  32.406  54.765  0.00  0.00     0.019 A 
ENDBRANCH   2  13
TORSDOF 2
ENDMDL
MODEL 2
REMARK VINA RESULT:      -9.3      0.824      3.083
REMARK  2 active torsions:
REMARK  status: ('A' for Active; 'I' for Inactive)
REMARK    1  A    between atoms: C_2  and  C_1 
REMARK       I    between atoms: N_7  and  C_2 
REMARK    2  A    between atoms: C_9  and  N_7 
ROOT
ATOM      1  C   UNL d   1      53.077  32.399  52.891  0.00  0.00     0.280 C 
ATOM      2  N   UNL d   1      52.313  32.340  52.589  0.00  0.00    -0.208 NA
ATOM      3  O   UNL d   1      53.616  31.788  52.755  0.00  0.00    -0.265 OA
ENDROOT
BRANCH   1   4
ATOM      4  C   UNL d   1      53.300  33.064  53.324  0.00  0.00     0.065 A 
ATOM      5  C   UNL d   1      53.634  33.058  54.079  0.00  0.00     0.011 A 
ATOM      6  C   UNL d   1      53.766  33.839  54.294  0.00  0.00     0.030 A 
ATOM      7  C   UNL d   1      53.831  32.450  54.591  0.00  0.00     0.001 A 
ATOM      8  C   UNL d   1      54.101  34.016  55.032  0.00  0.00     0.006 A 
ATOM      9  S   UNL d   1      53.517  34.326  53.677  0.00  0.00    -0.086 SA
ATOM     10  C   UNL d   1      54.295  33.418  55.536  0.00  0.00     0.001 A 
ATOM     11  C   UNL d   1      54.164  32.628  55.325  0.00  0.00     0.000 A 
ATOM     12  C   UNL d   1      53.228  33.835  53.076  0.00  0.00     0.040 A 
ENDBRANCH   1   4
BRANCH   2  13
ATOM     13  C   UNL d   1      51.767  32.955  52.724  0.00  0.00     0.085 A 
ATOM     14  C   UNL d   1      51.759  33.612  52.230  0.00  0.00     0.019 A 
ATOM     15  C   UNL d   1      51.214  34.223  52.366  0.00  0.00     0.002 A 
ATOM     16  C   UNL d   1      50.682  34.174  52.994  0.00  0.00     0.000 A 
ATOM     17  C   UNL d   1      50.697  33.507  53.488  0.00  0.00     0.002 A 
ATOM     18  C   UNL d   1      50.143  34.793  53.118  0.00  0.00     0.000 C 
ATOM     19  C   UNL d   1      51.238  32.899  53.354  0.00  0.00     0.019 A 
ENDBRANCH   2  13
TORSDOF 2
ENDMDL
MODEL 3
REMARK VINA RESULT:      -9.2      1.636      2.884
REMARK  2 active torsions:
REMARK  status: ('A' for Active; 'I' for Inactive)
REMARK    1  A    between atoms: C_2  and  C_1 
REMARK       I    between atoms: N_7  and  C_2 
REMARK    2  A    between atoms: C_9  and  N_7 
ROOT
ATOM      1  C   UNL d   1      52.724  32.471  52.732  0.00  0.00     0.280 C 
ATOM      2  N   UNL d   1      52.350  31.743  52.641  0.00  0.00    -0.208 NA
ATOM      3  O   UNL d   1      52.432  33.130  52.327  0.00  0.00    -0.265 OA
ENDROOT
BRANCH   1   4
ATOM      4  C   UNL d   1      53.382  32.540  53.223  0.00  0.00     0.065 A 
ATOM      5  C   UNL d   1      53.448  33.046  53.873  0.00  0.00     0.011 A 
ATOM      6  C   UNL d   1      54.194  32.931  54.197  0.00  0.00     0.030 A 
ATOM      7  C   UNL d   1      52.932  33.588  54.206  0.00  0.00     0.001 A 
ATOM      8  C   UNL d   1      54.428  33.364  54.863  0.00  0.00     0.006 A 
ATOM      9  S   UNL d   1      54.587  32.359  53.751  0.00  0.00    -0.086 SA
ATOM     10  C   UNL d   1      53.921  33.897  55.191  0.00  0.00     0.001 A 
ATOM     11  C   UNL d   1      53.168  34.018  54.870  0.00  0.00     0.000 A 
ATOM     12  C   UNL d   1      54.074  32.121  53.147  0.00  0.00     0.040 A 
ENDBRANCH   1   4
BRANCH   2  13
ATOM     13  C   UNL d   1      52.641  31.076  53.049  0.00  0.00     0.085 A 
ATOM     14  C   UNL d   1      52.307  30.857  53.767  0.00  0.00     0.019 A 
ATOM     15  C   UNL d   1      52.598  30.193  54.172  0.00  0.00     0.002 A 
ATOM     16  C   UNL d   1      53.219  29.753  53.855  0.00  0.00     0.000 A 
ATOM     17  C   UNL d   1      53.550  29.981  53.128  0.00  0.00     0.002 A 
ATOM     18  C   UNL d   1      53.500  29.091  54.270  0.00  0.00     0.000 C 
ATOM     19  C   UNL d   1      53.262  30.641  52.726  0.00  0.00     0.019 A 
ENDBRANCH   2  13
TORSDOF 2
ENDMDL
MODEL 4
REMARK VINA RESULT:      -9.0      1.526      3.170
REMARK  2 active torsions:
REMARK  status: ('A' for Active; 'I' for Inactive)
REMARK    1  A    between atoms: C_2  and  C_1 
REMARK       I    between atoms: N_7  and  C_2 
REMARK    2  A    between atoms: C_9  and  N_7 
ROOT
ATOM      1  C   UNL d   1      53.790  33.102  54.842  0.00  0.00     0.280 C 
ATOM      2  N   UNL d   1      53.254  33.727  54.853  0.00  0.00    -0.208 NA
ATOM      3  O   UNL d   1      54.235  32.936  55.518  0.00  0.00    -0.265 OA
ENDROOT
BRANCH   1   4
ATOM      4  C   UNL d   1      53.880  32.646  54.161  0.00  0.00     0.065 A 
ATOM      5  C   UNL d   1      53.704  31.842  54.092  0.00  0.00     0.011 A 
ATOM      6  C   UNL d   1      53.877  31.619  53.321  0.00  0.00     0.030 A 
ATOM      7  C   UNL d   1      53.411  31.293  54.625  0.00  0.00     0.001 A 
ATOM      8  C   UNL d   1      53.758  30.836  53.078  0.00  0.00     0.006 A 
ATOM      9  S   UNL d   1      54.159  32.280  52.916  0.00  0.00    -0.086 SA
ATOM     10  C   UNL d   1      53.470  30.295  53.602  0.00  0.00     0.001 A 
ATOM     11  C   UNL d   1      53.293  30.513  54.381  0.00  0.00     0.000 A 
ATOM     12  C   UNL d   1      54.157  32.915  53.446  0.00  0.00     0.040 A 
ENDBRANCH   1   4
BRANCH   2  13
ATOM     13  C   UNL d   1      52.803  33.897  54.172  0.00  0.00     0.085 A 
ATOM     14  C   UNL d   1      52.057  33.564  54.081  0.00  0.00     0.019 A 
ATOM     15  C   UNL d   1      51.610  33.734  53.403  0.00  0.00     0.002 A 
ATOM     16  C   UNL d   1      51.911  34.235  52.821  0.00  0.00     0.000 A 
ATOM     17  C   UNL d   1      52.666  34.567  52.921  0.00  0.00     0.002 A 
ATOM     18  C   UNL d   1      51.452  34.396  52.148  0.00  0.00     0.000 C 
ATOM     19  C   UNL d   1      53.111  34.398  53.595  0.00  0.00     0.019 A 
ENDBRANCH   2  13
TORSDOF 2
ENDMDL
MODEL 5
REMARK VINA RESULT:      -8.8      1.669      2.121
REMARK  2 active torsions:
REMARK  status: ('A' for Active; 'I' for Inactive)
REMARK    1  A    between atoms: C_2  and  C_1 
REMARK       I    between atoms: N_7  and  C_2 
REMARK    2  A    between atoms: C_9  and  N_7 
ROOT
ATOM      1  C   UNL d   1      52.979  35.069  54.259  0.00  0.00     0.280 C 
ATOM      2  N   UNL d   1      53.469  34.601  54.728  0.00  0.00    -0.208 NA
ATOM      3  O   UNL d   1      52.773  35.826  54.517  0.00  0.00    -0.265 OA
ENDROOT
BRANCH   1   4
ATOM      4  C   UNL d   1      52.699  34.782  53.539  0.00  0.00     0.065 A 
ATOM      5  C   UNL d   1      51.907  34.642  53.350  0.00  0.00     0.011 A 
ATOM      6  C   UNL d   1      51.885  34.361  52.580  0.00  0.00     0.030 A 
ATOM      7  C   UNL d   1      51.214  34.734  53.777  0.00  0.00     0.001 A 
ATOM      8  C   UNL d   1      51.160  34.168  52.229  0.00  0.00     0.006 A 
ATOM      9  S   UNL d   1      52.657  34.327  52.292  0.00  0.00    -0.086 SA
ATOM     10  C   UNL d   1      50.477  34.258  52.647  0.00  0.00     0.001 A 
ATOM     11  C   UNL d   1      50.492  34.541  53.425  0.00  0.00     0.000 A 
ATOM     12  C   UNL d   1      53.158  34.591  52.896  0.00  0.00     0.040 A 
ENDBRANCH   1   4
BRANCH   2  13
ATOM     13  C   UNL d   1      53.679  33.837  54.471  0.00  0.00     0.085 A 
ATOM     14  C   UNL d   1      53.251  33.185  54.729  0.00  0.00     0.019 A 
ATOM     15  C   UNL d   1      53.461  32.424  54.472  0.00  0.00     0.002 A 
ATOM     16  C   UNL d   1      54.098  32.320  53.959  0.00  0.00     0.000 A 
ATOM     17  C   UNL d   1      54.526  32.985  53.702  0.00  0.00     0.002 A 
ATOM     18  C   UNL d   1      54.297  31.554  53.710  0.00  0.00     0.000 C 
ATOM     19  C   UNL d   1      54.317  33.741  53.958  0.00  0.00     0.019 A 
ENDBRANCH   2  13
TORSDOF 2
ENDMDL
MODEL 6
REMARK VINA RESULT:      -8.4      1.463      2.375
REMARK  2 active torsions:
REMARK  status: ('A' for Active; 'I' for Inactive)
REMARK    1  A    between atoms: C_2  and  C_1 
REMARK       I    between atoms: N_7  and  C_2 
REMARK    2  A    between atoms: C_9  and  N_7 
ROOT
ATOM      1  C   UNL d   1      52.660  32.601  52.870  0.00  0.00     0.280 C 
ATOM      2  N   UNL d   1      52.745  33.313  53.275  0.00  0.00    -0.208 NA
ATOM      3  O   UNL d   1      52.072  32.530  52.294  0.00  0.00    -0.265 OA
ENDROOT
BRANCH   1   4
ATOM      4  C   UNL d   1      53.158  31.966  53.038  0.00  0.00     0.065 A 
ATOM      5  C   UNL d   1      52.916  31.202  53.234  0.00  0.00     0.011 A 
ATOM      6  C   UNL d   1      53.593  30.754  53.356  0.00  0.00     0.030 A 
ATOM      7  C   UNL d   1      52.175  30.861  53.316  0.00  0.00     0.001 A 
ATOM      8  C   UNL d   1      53.531  29.954  53.563  0.00  0.00     0.006 A 
ATOM      9  S   UNL d   1      54.250  31.238  53.236  0.00  0.00    -0.086 SA
ATOM     10  C   UNL d   1      52.803  29.618  53.644  0.00  0.00     0.001 A 
ATOM     11  C   UNL d   1      52.116  30.064  53.522  0.00  0.00     0.000 A 
ATOM     12  C   UNL d   1      53.971  31.991  53.039  0.00  0.00     0.040 A 
ENDBRANCH   1   4
BRANCH   2  13
ATOM     13  C   UNL d   1      53.338  33.388  53.857  0.00  0.00     0.085 A 
ATOM     14  C   UNL d   1      54.104  33.589  53.638  0.00  0.00     0.019 A 
ATOM     15  C   UNL d   1      54.693  33.664  54.218  0.00  0.00     0.002 A 
ATOM     16  C   UNL d   1      54.512  33.537  55.012  0.00  0.00     0.000 A 
ATOM     17  C   UNL d   1      53.735  33.335  55.225  0.00  0.00     0.002 A 
ATOM     18  C   UNL d   1      55.110  33.615  55.582  0.00  0.00     0.000 C 
ATOM     19  C   UNL d   1      53.149  33.260  54.649  0.00  0.00     0.019 A 
ENDBRANCH   2  13
TORSDOF 2
ENDMDL
