MODEL 1
REMARK VINA RESULT:      58.6      0.000      0.000
REMARK  5 active torsions:
REMARK  status: ('A' for Active; 'I' for Inactive)
REMARK    1  A    between atoms: C_4  and  C_1 
REMARK    2  A    between atoms: C_3  and  N_8 
REMARK       I    between atoms: N_8  and  C_4 
REMARK    3  A    between atoms: C_13  and  C_6 
REMARK    4  A    between atoms: C_14  and  C_10 
REMARK    5  A    between atoms: C_20  and  C_14 
ROOT
ATOM      1  C   UNL d   1     -50.029  27.374  33.769  0.00  0.00     0.083 A 
ATOM      2  C   UNL d   1     -50.108  26.547  33.812  0.00  0.00     0.032 A 
ATOM      3  C   UNL d   1     -50.851  26.349  33.529  0.00  0.00     0.100 A 
ATOM      4  C   UNL d   1     -50.739  27.672  33.455  0.00  0.00     0.105 A 
ATOM      5  O   UNL d   1     -51.242  27.034  33.308  0.00  0.00    -0.307 OA
ATOM      6  C   UNL d   1     -50.899  28.471  33.318  0.00  0.00     0.027 C 
ENDROOT
BRANCH   1   7
ATOM      7  C   UNL d   1     -49.370  27.819  33.995  0.00  0.00     0.283 C 
ATOM      8  N   UNL d   1     -49.289  28.066  34.769  0.00  0.00    -0.181 NA
ATOM      9  O   UNL d   1     -48.801  28.009  33.430  0.00  0.00    -0.265 OA
BRANCH   8  10
ATOM     10  C   UNL d   1     -48.631  28.510  34.992  0.00  0.00     0.216 A 
ATOM     11  N   UNL d   1     -48.534  29.310  34.872  0.00  0.00    -0.200 NA
ATOM     12  C   UNL d   1     -47.807  29.527  35.176  0.00  0.00     0.175 A 
ATOM     13  N   UNL d   1     -47.453  28.849  35.486  0.00  0.00    -0.187 NA
ATOM     14  S   UNL d   1     -47.967  28.224  35.370  0.00  0.00     0.054 SA
BRANCH  12  15
ATOM     15  C   UNL d   1     -47.484  30.276  35.175  0.00  0.00     0.082 C 
BRANCH  15  16
ATOM     16  C   UNL d   1     -47.314  30.650  35.889  0.00  0.00     0.199 C 
ATOM     17  O   UNL d   1     -47.758  31.297  36.135  0.00  0.00    -0.286 OA
ATOM     18  C   UNL d   1     -46.698  30.376  36.357  0.00  0.00     0.045 C 
ENDBRANCH  15  16
ENDBRANCH  12  15
ENDBRANCH   8  10
ENDBRANCH   1   7
BRANCH   3  19
ATOM     19  C   UNL d   1     -51.154  25.591  33.474  0.00  0.00     0.024 A 
ATOM     20  C   UNL d   1     -51.974  25.476  33.448  0.00  0.00     0.014 A 
ATOM     21  C   UNL d   1     -52.276  24.707  33.393  0.00  0.00     0.068 A 
ATOM     22 CL   UNL d   1     -53.091  24.596  33.367  0.00  0.00    -0.082 Cl
ATOM     23  C   UNL d   1     -51.768  24.056  33.364  0.00  0.00     0.068 A 
ATOM     24  C   UNL d   1     -50.953  24.167  33.390  0.00  0.00     0.012 A 
ATOM     25 CL   UNL d   1     -52.082  23.289  33.309  0.00  0.00    -0.082 Cl
ATOM     26  C   UNL d   1     -50.640  24.932  33.445  0.00  0.00     0.003 A 
ENDBRANCH   3  19
TORSDOF 5
ENDMDL
