MODEL 1
REMARK VINA RESULT:      -4.6      0.000      0.000
REMARK  10 active torsions:
REMARK  status: ('A' for Active; 'I' for Inactive)
REMARK    1  A    between atoms: N_2  and  S_1 
REMARK    2  A    between atoms: C_12  and  S_1 
REMARK    3  A    between atoms: C_4  and  N_2 
REMARK    4  A    between atoms: O_22  and  C_6 
REMARK    5  A    between atoms: C_7  and  N_15 
REMARK    6  A    between atoms: N_8  and  C_7 
REMARK       I    between atoms: C_10  and  N_8 
REMARK    7  A    between atoms: O_23  and  C_9 
REMARK    8  A    between atoms: C_20  and  C_10 
REMARK    9  A    between atoms: N_15  and  C_21 
REMARK   10  A    between atoms: C_26  and  C_20 
ROOT
ATOM      1  C   UNL d   1     -46.064  13.042  22.736  0.00  0.00     0.105 A 
ATOM      2  C   UNL d   1     -45.651  12.346  22.732  0.00  0.00     0.015 A 
ATOM      3  C   UNL d   1     -45.815  13.666  22.274  0.00  0.00     0.015 A 
ATOM      4  C   UNL d   1     -44.731  12.892  21.796  0.00  0.00     0.084 A 
ATOM      5  C   UNL d   1     -44.984  12.244  22.273  0.00  0.00     0.020 A 
ATOM      6  C   UNL d   1     -45.153  13.585  21.809  0.00  0.00     0.020 A 
ENDROOT
BRANCH   1   7
ATOM      7  S   UNL d   1     -46.756  13.138  23.217  0.00  0.00     0.287 S 
ATOM      8  O   UNL d   1     -46.910  12.319  23.135  0.00  0.00    -0.198 OA
ATOM      9  O   UNL d   1     -46.595  13.947  23.292  0.00  0.00    -0.198 OA
BRANCH   7  10
ATOM     10  N   UNL d   1     -47.441  13.216  23.689  0.00  0.00    -0.139 NA
BRANCH  10  11
ATOM     11  C   UNL d   1     -48.190  13.355  23.339  0.00  0.00     0.182 A 
ATOM     12  N   UNL d   1     -48.411  14.095  23.160  0.00  0.00    -0.185 NA
ATOM     13  C   UNL d   1     -49.148  14.262  22.813  0.00  0.00     0.274 A 
ATOM     14  N   UNL d   1     -49.654  13.645  22.653  0.00  0.00    -0.181 NA
ATOM     15  C   UNL d   1     -49.457  12.882  22.824  0.00  0.00     0.185 A 
ATOM     16  C   UNL d   1     -48.678  12.724  23.190  0.00  0.00     0.084 A 
BRANCH  13  17
ATOM     17  O   UNL d   1     -49.382  15.039  22.623  0.00  0.00    -0.297 OA
ATOM     18  C   UNL d   1     -49.801  15.506  23.166  0.00  0.00     0.185 C 
ENDBRANCH  13  17
BRANCH  15  19
ATOM     19  O   UNL d   1     -49.995  12.273  22.650  0.00  0.00    -0.312 OA
ATOM     20  C   UNL d   1     -50.409  11.913  23.269  0.00  0.00     0.183 C 
ENDBRANCH  15  19
ENDBRANCH  10  11
ENDBRANCH   7  10
ENDBRANCH   1   7
BRANCH   4  21
ATOM     21  N   UNL d   1     -44.052  12.830  21.311  0.00  0.00    -0.217 NA
BRANCH  21  22
ATOM     22  C   UNL d   1     -43.312  12.833  21.673  0.00  0.00     0.223 C 
ATOM     23  S   UNL d   1     -43.013  12.157  22.050  0.00  0.00    -0.037 SA
BRANCH  22  24
ATOM     24  N   UNL d   1     -42.860  13.524  21.659  0.00  0.00    -0.179 NA
ATOM     25  C   UNL d   1     -42.172  13.570  21.196  0.00  0.00     0.281 C 
ATOM     26  O   UNL d   1     -41.938  12.917  20.744  0.00  0.00    -0.265 OA
BRANCH  25  27
ATOM     27  C   UNL d   1     -41.722  14.262  21.184  0.00  0.00     0.063 C 
BRANCH  27  28
ATOM     28  C   UNL d   1     -41.001  14.294  20.782  0.00  0.00     0.005 C 
ATOM     29  C   UNL d   1     -40.265  14.161  21.177  0.00  0.00     0.000 C 
ATOM     30  C   UNL d   1     -41.001  14.461  19.977  0.00  0.00     0.000 C 
ENDBRANCH  27  28
ENDBRANCH  25  27
ENDBRANCH  22  24
ENDBRANCH  21  22
ENDBRANCH   4  21
TORSDOF 10
ENDMDL
MODEL 2
REMARK VINA RESULT:      -4.5      0.296      1.368
REMARK  10 active torsions:
REMARK  status: ('A' for Active; 'I' for Inactive)
REMARK    1  A    between atoms: N_2  and  S_1 
REMARK    2  A    between atoms: C_12  and  S_1 
REMARK    3  A    between atoms: C_4  and  N_2 
REMARK    4  A    between atoms: O_22  and  C_6 
REMARK    5  A    between atoms: C_7  and  N_15 
REMARK    6  A    between atoms: N_8  and  C_7 
REMARK       I    between atoms: C_10  and  N_8 
REMARK    7  A    between atoms: O_23  and  C_9 
REMARK    8  A    between atoms: C_20  and  C_10 
REMARK    9  A    between atoms: N_15  and  C_21 
REMARK   10  A    between atoms: C_26  and  C_20 
ROOT
ATOM      1  C   UNL d   1     -46.046  13.070  22.709  0.00  0.00     0.105 A 
ATOM      2  C   UNL d   1     -45.659  12.359  22.691  0.00  0.00     0.015 A 
ATOM      3  C   UNL d   1     -45.769  13.696  22.265  0.00  0.00     0.015 A 
ATOM      4  C   UNL d   1     -44.708  12.895  21.780  0.00  0.00     0.084 A 
ATOM      5  C   UNL d   1     -44.990  12.245  22.238  0.00  0.00     0.020 A 
ATOM      6  C   UNL d   1     -45.105  13.602  21.806  0.00  0.00     0.020 A 
ENDROOT
BRANCH   1   7
ATOM      7  S   UNL d   1     -46.740  13.179  23.183  0.00  0.00     0.287 S 
ATOM      8  O   UNL d   1     -46.589  14.003  23.193  0.00  0.00    -0.198 OA
ATOM      9  O   UNL d   1     -46.882  12.363  23.169  0.00  0.00    -0.198 OA
BRANCH   7  10
ATOM     10  N   UNL d   1     -47.421  13.303  23.652  0.00  0.00    -0.139 NA
BRANCH  10  11
ATOM     11  C   UNL d   1     -48.174  13.404  23.297  0.00  0.00     0.182 A 
ATOM     12  N   UNL d   1     -48.642  12.774  23.178  0.00  0.00    -0.185 NA
ATOM     13  C   UNL d   1     -49.393  12.845  22.829  0.00  0.00     0.274 A 
ATOM     14  N   UNL d   1     -49.652  13.583  22.603  0.00  0.00    -0.181 NA
ATOM     15  C   UNL d   1     -49.199  14.241  22.711  0.00  0.00     0.185 A 
ATOM     16  C   UNL d   1     -48.411  14.149  23.080  0.00  0.00     0.084 A 
BRANCH  13  17
ATOM     17  O   UNL d   1     -49.886  12.185  22.703  0.00  0.00    -0.297 OA
ATOM     18  C   UNL d   1     -50.337  11.862  23.320  0.00  0.00     0.185 C 
ENDBRANCH  13  17
BRANCH  15  19
ATOM     19  O   UNL d   1     -49.490  14.981  22.470  0.00  0.00    -0.312 OA
ATOM     20  C   UNL d   1     -49.847  15.475  23.029  0.00  0.00     0.183 C 
ENDBRANCH  15  19
ENDBRANCH  10  11
ENDBRANCH   7  10
ENDBRANCH   1   7
BRANCH   4  21
ATOM     21  N   UNL d   1     -44.026  12.819  21.302  0.00  0.00    -0.217 NA
BRANCH  21  22
ATOM     22  C   UNL d   1     -43.288  12.834  21.669  0.00  0.00     0.223 C 
ATOM     23  S   UNL d   1     -42.988  12.167  22.060  0.00  0.00    -0.037 SA
BRANCH  22  24
ATOM     24  N   UNL d   1     -42.840  13.526  21.644  0.00  0.00    -0.179 NA
ATOM     25  C   UNL d   1     -42.150  13.568  21.183  0.00  0.00     0.281 C 
ATOM     26  O   UNL d   1     -41.911  12.908  20.744  0.00  0.00    -0.265 OA
BRANCH  25  27
ATOM     27  C   UNL d   1     -41.704  14.262  21.161  0.00  0.00     0.063 C 
BRANCH  27  28
ATOM     28  C   UNL d   1     -40.983  14.292  20.758  0.00  0.00     0.005 C 
ATOM     29  C   UNL d   1     -40.247  14.167  21.155  0.00  0.00     0.000 C 
ATOM     30  C   UNL d   1     -40.983  14.447  19.951  0.00  0.00     0.000 C 
ENDBRANCH  27  28
ENDBRANCH  25  27
ENDBRANCH  22  24
ENDBRANCH  21  22
ENDBRANCH   4  21
TORSDOF 10
ENDMDL
MODEL 3
REMARK VINA RESULT:      -3.3      2.965      7.633
REMARK  10 active torsions:
REMARK  status: ('A' for Active; 'I' for Inactive)
REMARK    1  A    between atoms: N_2  and  S_1 
REMARK    2  A    between atoms: C_12  and  S_1 
REMARK    3  A    between atoms: C_4  and  N_2 
REMARK    4  A    between atoms: O_22  and  C_6 
REMARK    5  A    between atoms: C_7  and  N_15 
REMARK    6  A    between atoms: N_8  and  C_7 
REMARK       I    between atoms: C_10  and  N_8 
REMARK    7  A    between atoms: O_23  and  C_9 
REMARK    8  A    between atoms: C_20  and  C_10 
REMARK    9  A    between atoms: N_15  and  C_21 
REMARK   10  A    between atoms: C_26  and  C_20 
ROOT
ATOM      1  C   UNL d   1     -41.094  14.809  20.190  0.00  0.00     0.105 A 
ATOM      2  C   UNL d   1     -41.663  15.236  20.576  0.00  0.00     0.015 A 
ATOM      3  C   UNL d   1     -41.016  14.010  20.335  0.00  0.00     0.015 A 
ATOM      4  C   UNL d   1     -42.085  14.064  21.260  0.00  0.00     0.084 A 
ATOM      5  C   UNL d   1     -42.170  14.891  21.114  0.00  0.00     0.020 A 
ATOM      6  C   UNL d   1     -41.511  13.646  20.868  0.00  0.00     0.020 A 
ENDROOT
BRANCH   1   7
ATOM      7  S   UNL d   1     -40.572  15.177  19.633  0.00  0.00     0.287 S 
ATOM      8  O   UNL d   1     -40.097  14.488  19.640  0.00  0.00    -0.198 OA
ATOM      9  O   UNL d   1     -41.047  15.856  19.632  0.00  0.00    -0.198 OA
BRANCH   7  10
ATOM     10  N   UNL d   1     -40.048  15.528  19.083  0.00  0.00    -0.139 NA
BRANCH  10  11
ATOM     11  C   UNL d   1     -40.054  15.298  18.277  0.00  0.00     0.182 A 
ATOM     12  N   UNL d   1     -40.724  15.358  17.855  0.00  0.00    -0.185 NA
ATOM     13  C   UNL d   1     -40.759  15.138  17.055  0.00  0.00     0.274 A 
ATOM     14  N   UNL d   1     -40.086  14.854  16.696  0.00  0.00    -0.181 NA
ATOM     15  C   UNL d   1     -39.391  14.781  17.099  0.00  0.00     0.185 A 
ATOM     16  C   UNL d   1     -39.371  15.017  17.942  0.00  0.00     0.084 A 
BRANCH  13  17
ATOM     17  O   UNL d   1     -41.461  15.201  16.610  0.00  0.00    -0.297 OA
ATOM     18  C   UNL d   1     -41.694  15.922  16.273  0.00  0.00     0.185 C 
ENDBRANCH  13  17
BRANCH  15  19
ATOM     19  O   UNL d   1     -38.721  14.487  16.706  0.00  0.00    -0.312 OA
ATOM     20  C   UNL d   1     -38.734  13.714  16.412  0.00  0.00     0.183 C 
ENDBRANCH  15  19
ENDBRANCH  10  11
ENDBRANCH   7  10
ENDBRANCH   1   7
BRANCH   4  21
ATOM     21  N   UNL d   1     -42.585  13.671  21.804  0.00  0.00    -0.217 NA
BRANCH  21  22
ATOM     22  C   UNL d   1     -43.097  13.093  21.516  0.00  0.00     0.223 C 
ATOM     23  S   UNL d   1     -42.823  12.337  21.313  0.00  0.00    -0.037 SA
BRANCH  22  24
ATOM     24  N   UNL d   1     -43.898  13.272  21.430  0.00  0.00    -0.179 NA
ATOM     25  C   UNL d   1     -44.473  12.867  21.874  0.00  0.00     0.281 C 
ATOM     26  O   UNL d   1     -44.237  12.279  22.408  0.00  0.00    -0.265 OA
BRANCH  25  27
ATOM     27  C   UNL d   1     -45.273  13.048  21.786  0.00  0.00     0.063 C 
BRANCH  27  28
ATOM     28  C   UNL d   1     -45.728  13.288  22.432  0.00  0.00     0.005 C 
ATOM     29  C   UNL d   1     -45.773  14.099  22.668  0.00  0.00     0.000 C 
ATOM     30  C   UNL d   1     -46.149  12.723  22.856  0.00  0.00     0.000 C 
ENDBRANCH  27  28
ENDBRANCH  25  27
ENDBRANCH  22  24
ENDBRANCH  21  22
ENDBRANCH   4  21
TORSDOF 10
ENDMDL
MODEL 4
REMARK VINA RESULT:      -3.2      2.953      7.764
REMARK  10 active torsions:
REMARK  status: ('A' for Active; 'I' for Inactive)
REMARK    1  A    between atoms: N_2  and  S_1 
REMARK    2  A    between atoms: C_12  and  S_1 
REMARK    3  A    between atoms: C_4  and  N_2 
REMARK    4  A    between atoms: O_22  and  C_6 
REMARK    5  A    between atoms: C_7  and  N_15 
REMARK    6  A    between atoms: N_8  and  C_7 
REMARK       I    between atoms: C_10  and  N_8 
REMARK    7  A    between atoms: O_23  and  C_9 
REMARK    8  A    between atoms: C_20  and  C_10 
REMARK    9  A    between atoms: N_15  and  C_21 
REMARK   10  A    between atoms: C_26  and  C_20 
ROOT
ATOM      1  C   UNL d   1     -40.891  14.729  20.348  0.00  0.00     0.105 A 
ATOM      2  C   UNL d   1     -41.507  15.174  20.627  0.00  0.00     0.015 A 
ATOM      3  C   UNL d   1     -40.832  13.942  20.551  0.00  0.00     0.015 A 
ATOM      4  C   UNL d   1     -42.015  14.042  21.321  0.00  0.00     0.084 A 
ATOM      5  C   UNL d   1     -42.081  14.857  21.114  0.00  0.00     0.020 A 
ATOM      6  C   UNL d   1     -41.393  13.607  21.035  0.00  0.00     0.020 A 
ENDROOT
BRANCH   1   7
ATOM      7  S   UNL d   1     -40.300  15.068  19.843  0.00  0.00     0.287 S 
ATOM      8  O   UNL d   1     -40.814  15.712  19.694  0.00  0.00    -0.198 OA
ATOM      9  O   UNL d   1     -39.798  14.427  19.995  0.00  0.00    -0.198 OA
BRANCH   7  10
ATOM     10  N   UNL d   1     -39.727  15.415  19.342  0.00  0.00    -0.139 NA
BRANCH  10  11
ATOM     11  C   UNL d   1     -39.708  15.235  18.523  0.00  0.00     0.182 A 
ATOM     12  N   UNL d   1     -39.216  14.674  18.254  0.00  0.00    -0.185 NA
ATOM     13  C   UNL d   1     -39.176  14.476  17.448  0.00  0.00     0.274 A 
ATOM     14  N   UNL d   1     -39.656  14.871  16.923  0.00  0.00    -0.181 NA
ATOM     15  C   UNL d   1     -40.166  15.446  17.167  0.00  0.00     0.185 A 
ATOM     16  C   UNL d   1     -40.196  15.643  18.019  0.00  0.00     0.084 A 
BRANCH  13  17
ATOM     17  O   UNL d   1     -38.660  13.886  17.162  0.00  0.00    -0.297 OA
ATOM     18  C   UNL d   1     -38.819  13.081  17.283  0.00  0.00     0.185 C 
ENDBRANCH  13  17
BRANCH  15  19
ATOM     19  O   UNL d   1     -40.644  15.832  16.607  0.00  0.00    -0.312 OA
ATOM     20  C   UNL d   1     -41.466  15.770  16.669  0.00  0.00     0.183 C 
ENDBRANCH  15  19
ENDBRANCH  10  11
ENDBRANCH   7  10
ENDBRANCH   1   7
BRANCH   4  21
ATOM     21  N   UNL d   1     -42.582  13.679  21.817  0.00  0.00    -0.217 NA
BRANCH  21  22
ATOM     22  C   UNL d   1     -43.128  13.164  21.476  0.00  0.00     0.223 C 
ATOM     23  S   UNL d   1     -42.895  12.424  21.183  0.00  0.00    -0.037 SA
BRANCH  22  24
ATOM     24  N   UNL d   1     -43.919  13.391  21.425  0.00  0.00    -0.179 NA
ATOM     25  C   UNL d   1     -44.505  12.981  21.849  0.00  0.00     0.281 C 
ATOM     26  O   UNL d   1     -44.291  12.339  22.326  0.00  0.00    -0.265 OA
BRANCH  25  27
ATOM     27  C   UNL d   1     -45.296  13.211  21.796  0.00  0.00     0.063 C 
BRANCH  27  28
ATOM     28  C   UNL d   1     -45.760  13.296  22.474  0.00  0.00     0.005 C 
ATOM     29  C   UNL d   1     -45.999  14.057  22.757  0.00  0.00     0.000 C 
ATOM     30  C   UNL d   1     -45.996  12.623  22.884  0.00  0.00     0.000 C 
ENDBRANCH  27  28
ENDBRANCH  25  27
ENDBRANCH  22  24
ENDBRANCH  21  22
ENDBRANCH   4  21
TORSDOF 10
ENDMDL
MODEL 5
REMARK VINA RESULT:      -3.2      1.139      1.428
REMARK  10 active torsions:
REMARK  status: ('A' for Active; 'I' for Inactive)
REMARK    1  A    between atoms: N_2  and  S_1 
REMARK    2  A    between atoms: C_12  and  S_1 
REMARK    3  A    between atoms: C_4  and  N_2 
REMARK    4  A    between atoms: O_22  and  C_6 
REMARK    5  A    between atoms: C_7  and  N_15 
REMARK    6  A    between atoms: N_8  and  C_7 
REMARK       I    between atoms: C_10  and  N_8 
REMARK    7  A    between atoms: O_23  and  C_9 
REMARK    8  A    between atoms: C_20  and  C_10 
REMARK    9  A    between atoms: N_15  and  C_21 
REMARK   10  A    between atoms: C_26  and  C_20 
ROOT
ATOM      1  C   UNL d   1     -47.151  13.284  22.995  0.00  0.00     0.105 A 
ATOM      2  C   UNL d   1     -46.736  12.592  22.922  0.00  0.00     0.015 A 
ATOM      3  C   UNL d   1     -46.766  13.999  22.922  0.00  0.00     0.015 A 
ATOM      4  C   UNL d   1     -45.540  13.328  22.699  0.00  0.00     0.084 A 
ATOM      5  C   UNL d   1     -45.933  12.586  22.775  0.00  0.00     0.020 A 
ATOM      6  C   UNL d   1     -45.967  14.015  22.775  0.00  0.00     0.020 A 
ENDROOT
BRANCH   1   7
ATOM      7  S   UNL d   1     -47.984  13.280  23.148  0.00  0.00     0.287 S 
ATOM      8  O   UNL d   1     -48.056  12.596  22.671  0.00  0.00    -0.198 OA
ATOM      9  O   UNL d   1     -47.904  13.957  23.619  0.00  0.00    -0.198 OA
BRANCH   7  10
ATOM     10  N   UNL d   1     -48.808  13.263  23.290  0.00  0.00    -0.139 NA
BRANCH  10  11
ATOM     11  C   UNL d   1     -49.331  13.743  22.844  0.00  0.00     0.182 A 
ATOM     12  N   UNL d   1     -49.488  14.483  23.084  0.00  0.00    -0.185 NA
ATOM     13  C   UNL d   1     -50.002  14.981  22.662  0.00  0.00     0.274 A 
ATOM     14  N   UNL d   1     -50.352  14.699  21.984  0.00  0.00    -0.181 NA
ATOM     15  C   UNL d   1     -50.212  13.952  21.715  0.00  0.00     0.185 A 
ATOM     16  C   UNL d   1     -49.668  13.440  22.171  0.00  0.00     0.084 A 
BRANCH  13  17
ATOM     17  O   UNL d   1     -50.169  15.759  22.912  0.00  0.00    -0.297 OA
ATOM     18  C   UNL d   1     -50.380  15.922  23.698  0.00  0.00     0.185 C 
ENDBRANCH  13  17
BRANCH  15  19
ATOM     19  O   UNL d   1     -50.584  13.692  21.019  0.00  0.00    -0.312 OA
ATOM     20  C   UNL d   1     -50.965  12.958  21.017  0.00  0.00     0.183 C 
ENDBRANCH  15  19
ENDBRANCH  10  11
ENDBRANCH   7  10
ENDBRANCH   1   7
BRANCH   4  21
ATOM     21  N   UNL d   1     -44.719  13.366  22.548  0.00  0.00    -0.217 NA
BRANCH  21  22
ATOM     22  C   UNL d   1     -44.393  12.823  22.020  0.00  0.00     0.223 C 
ATOM     23  S   UNL d   1     -44.527  12.009  22.102  0.00  0.00    -0.037 SA
BRANCH  22  24
ATOM     24  N   UNL d   1     -43.926  13.098  21.397  0.00  0.00    -0.179 NA
ATOM     25  C   UNL d   1     -43.112  12.932  21.374  0.00  0.00     0.281 C 
ATOM     26  O   UNL d   1     -42.768  12.487  21.982  0.00  0.00    -0.265 OA
BRANCH  25  27
ATOM     27  C   UNL d   1     -42.647  13.208  20.750  0.00  0.00     0.063 C 
BRANCH  27  28
ATOM     28  C   UNL d   1     -41.983  13.679  20.890  0.00  0.00     0.005 C 
ATOM     29  C   UNL d   1     -42.042  14.520  20.958  0.00  0.00     0.000 C 
ATOM     30  C   UNL d   1     -41.248  13.320  20.965  0.00  0.00     0.000 C 
ENDBRANCH  27  28
ENDBRANCH  25  27
ENDBRANCH  22  24
ENDBRANCH  21  22
ENDBRANCH   4  21
TORSDOF 10
ENDMDL
MODEL 6
REMARK VINA RESULT:      -2.8      1.390      6.594
REMARK  10 active torsions:
REMARK  status: ('A' for Active; 'I' for Inactive)
REMARK    1  A    between atoms: N_2  and  S_1 
REMARK    2  A    between atoms: C_12  and  S_1 
REMARK    3  A    between atoms: C_4  and  N_2 
REMARK    4  A    between atoms: O_22  and  C_6 
REMARK    5  A    between atoms: C_7  and  N_15 
REMARK    6  A    between atoms: N_8  and  C_7 
REMARK       I    between atoms: C_10  and  N_8 
REMARK    7  A    between atoms: O_23  and  C_9 
REMARK    8  A    between atoms: C_20  and  C_10 
REMARK    9  A    between atoms: N_15  and  C_21 
REMARK   10  A    between atoms: C_26  and  C_20 
ROOT
ATOM      1  C   UNL d   1     -43.942  12.806  21.755  0.00  0.00     0.105 A 
ATOM      2  C   UNL d   1     -44.233  12.275  22.292  0.00  0.00     0.015 A 
ATOM      3  C   UNL d   1     -44.364  13.481  21.579  0.00  0.00     0.015 A 
ATOM      4  C   UNL d   1     -45.380  13.092  22.484  0.00  0.00     0.084 A 
ATOM      5  C   UNL d   1     -44.947  12.392  22.669  0.00  0.00     0.020 A 
ATOM      6  C   UNL d   1     -45.078  13.617  21.945  0.00  0.00     0.020 A 
ENDROOT
BRANCH   1   7
ATOM      7  S   UNL d   1     -43.199  12.675  21.367  0.00  0.00     0.287 S 
ATOM      8  O   UNL d   1     -42.854  12.511  22.112  0.00  0.00    -0.198 OA
ATOM      9  O   UNL d   1     -43.549  12.839  20.634  0.00  0.00    -0.198 OA
BRANCH   7  10
ATOM     10  N   UNL d   1     -42.460  12.542  21.000  0.00  0.00    -0.139 NA
BRANCH  10  11
ATOM     11  C   UNL d   1     -41.926  13.175  20.867  0.00  0.00     0.182 A 
ATOM     12  N   UNL d   1     -41.899  13.525  20.155  0.00  0.00    -0.185 NA
ATOM     13  C   UNL d   1     -41.381  14.154  19.995  0.00  0.00     0.274 A 
ATOM     14  N   UNL d   1     -40.888  14.416  20.587  0.00  0.00    -0.181 NA
ATOM     15  C   UNL d   1     -40.893  14.081  21.321  0.00  0.00     0.185 A 
ATOM     16  C   UNL d   1     -41.445  13.419  21.473  0.00  0.00     0.084 A 
BRANCH  13  17
ATOM     17  O   UNL d   1     -41.350  14.523  19.248  0.00  0.00    -0.297 OA
ATOM     18  C   UNL d   1     -40.739  14.357  18.711  0.00  0.00     0.185 C 
ENDBRANCH  13  17
BRANCH  15  19
ATOM     19  O   UNL d   1     -40.379  14.371  21.905  0.00  0.00    -0.312 OA
ATOM     20  C   UNL d   1     -39.628  14.032  21.984  0.00  0.00     0.183 C 
ENDBRANCH  15  19
ENDBRANCH  10  11
ENDBRANCH   7  10
ENDBRANCH   1   7
BRANCH   4  21
ATOM     21  N   UNL d   1     -46.116  13.250  22.849  0.00  0.00    -0.217 NA
BRANCH  21  22
ATOM     22  C   UNL d   1     -46.691  12.660  22.842  0.00  0.00     0.223 C 
ATOM     23  S   UNL d   1     -46.762  12.121  23.468  0.00  0.00    -0.037 SA
BRANCH  22  24
ATOM     24  N   UNL d   1     -47.204  12.606  22.198  0.00  0.00    -0.179 NA
ATOM     25  C   UNL d   1     -48.022  12.716  22.299  0.00  0.00     0.281 C 
ATOM     26  O   UNL d   1     -48.323  12.882  23.053  0.00  0.00    -0.265 OA
BRANCH  25  27
ATOM     27  C   UNL d   1     -48.533  12.661  21.654  0.00  0.00     0.063 C 
BRANCH  27  28
ATOM     28  C   UNL d   1     -49.300  12.968  21.691  0.00  0.00     0.005 C 
ATOM     29  C   UNL d   1     -49.962  12.484  21.899  0.00  0.00     0.000 C 
ATOM     30  C   UNL d   1     -49.420  13.763  21.521  0.00  0.00     0.000 C 
ENDBRANCH  27  28
ENDBRANCH  25  27
ENDBRANCH  22  24
ENDBRANCH  21  22
ENDBRANCH   4  21
TORSDOF 10
ENDMDL
MODEL 7
REMARK VINA RESULT:      -2.4      2.402      7.598
REMARK  10 active torsions:
REMARK  status: ('A' for Active; 'I' for Inactive)
REMARK    1  A    between atoms: N_2  and  S_1 
REMARK    2  A    between atoms: C_12  and  S_1 
REMARK    3  A    between atoms: C_4  and  N_2 
REMARK    4  A    between atoms: O_22  and  C_6 
REMARK    5  A    between atoms: C_7  and  N_15 
REMARK    6  A    between atoms: N_8  and  C_7 
REMARK       I    between atoms: C_10  and  N_8 
REMARK    7  A    between atoms: O_23  and  C_9 
REMARK    8  A    between atoms: C_20  and  C_10 
REMARK    9  A    between atoms: N_15  and  C_21 
REMARK   10  A    between atoms: C_26  and  C_20 
ROOT
ATOM      1  C   UNL d   1     -41.561  14.122  21.012  0.00  0.00     0.105 A 
ATOM      2  C   UNL d   1     -42.264  14.516  21.087  0.00  0.00     0.015 A 
ATOM      3  C   UNL d   1     -41.550  13.307  20.990  0.00  0.00     0.015 A 
ATOM      4  C   UNL d   1     -42.959  13.276  21.120  0.00  0.00     0.084 A 
ATOM      5  C   UNL d   1     -42.975  14.119  21.143  0.00  0.00     0.020 A 
ATOM      6  C   UNL d   1     -42.248  12.892  21.044  0.00  0.00     0.020 A 
ENDROOT
BRANCH   1   7
ATOM      7  S   UNL d   1     -40.827  14.543  20.954  0.00  0.00     0.287 S 
ATOM      8  O   UNL d   1     -40.427  13.856  21.215  0.00  0.00    -0.198 OA
ATOM      9  O   UNL d   1     -41.232  15.219  20.697  0.00  0.00    -0.198 OA
BRANCH   7  10
ATOM     10  N   UNL d   1     -40.096  14.945  20.903  0.00  0.00    -0.139 NA
BRANCH  10  11
ATOM     11  C   UNL d   1     -39.646  14.930  20.196  0.00  0.00     0.182 A 
ATOM     12  N   UNL d   1     -39.040  14.423  20.124  0.00  0.00    -0.185 NA
ATOM     13  C   UNL d   1     -38.577  14.387  19.435  0.00  0.00     0.274 A 
ATOM     14  N   UNL d   1     -38.754  14.887  18.817  0.00  0.00    -0.181 NA
ATOM     15  C   UNL d   1     -39.365  15.412  18.860  0.00  0.00     0.185 A 
ATOM     16  C   UNL d   1     -39.842  15.438  19.594  0.00  0.00     0.084 A 
BRANCH  13  17
ATOM     17  O   UNL d   1     -37.940  13.856  19.358  0.00  0.00    -0.297 OA
ATOM     18  C   UNL d   1     -38.039  13.113  19.001  0.00  0.00     0.185 C 
ENDBRANCH  13  17
BRANCH  15  19
ATOM     19  O   UNL d   1     -39.521  15.910  18.214  0.00  0.00    -0.312 OA
ATOM     20  C   UNL d   1     -39.996  15.630  17.597  0.00  0.00     0.183 C 
ENDBRANCH  15  19
ENDBRANCH  10  11
ENDBRANCH   7  10
ENDBRANCH   1   7
BRANCH   4  21
ATOM     21  N   UNL d   1     -43.665  12.831  21.174  0.00  0.00    -0.217 NA
BRANCH  21  22
ATOM     22  C   UNL d   1     -43.999  12.716  21.919  0.00  0.00     0.223 C 
ATOM     23  S   UNL d   1     -43.725  12.118  22.425  0.00  0.00    -0.037 SA
BRANCH  22  24
ATOM     24  N   UNL d   1     -44.616  13.206  22.165  0.00  0.00    -0.179 NA
ATOM     25  C   UNL d   1     -45.281  12.888  22.549  0.00  0.00     0.281 C 
ATOM     26  O   UNL d   1     -45.324  12.072  22.685  0.00  0.00    -0.265 OA
BRANCH  25  27
ATOM     27  C   UNL d   1     -45.897  13.380  22.793  0.00  0.00     0.063 C 
BRANCH  27  28
ATOM     28  C   UNL d   1     -46.685  13.148  22.711  0.00  0.00     0.005 C 
ATOM     29  C   UNL d   1     -47.147  13.372  22.038  0.00  0.00     0.000 C 
ATOM     30  C   UNL d   1     -47.028  12.687  23.299  0.00  0.00     0.000 C 
ENDBRANCH  27  28
ENDBRANCH  25  27
ENDBRANCH  22  24
ENDBRANCH  21  22
ENDBRANCH   4  21
TORSDOF 10
ENDMDL
