MODEL 1
REMARK VINA RESULT:       3.3      0.000      0.000
REMARK  4 active torsions:
REMARK  status: ('A' for Active; 'I' for Inactive)
REMARK    1  A    between atoms: C_2  and  S_1 
REMARK    2  A    between atoms: C_15  and  S_1 
REMARK    3  A    between atoms: C_5  and  C_3 
REMARK    4  A    between atoms: C_16  and  C_5 
ROOT
ATOM      1  C   UNL d   1      31.084  17.384 -24.334  0.00  0.00     0.094 A 
ATOM      2  C   UNL d   1      30.331  17.103 -24.528  0.00  0.00     0.069 A 
ATOM      3  C   UNL d   1      31.295  18.158 -24.522  0.00  0.00     0.031 A 
ATOM      4  C   UNL d   1      30.757  18.652 -24.903  0.00  0.00     0.084 A 
ATOM      5  C   UNL d   1      32.046  18.437 -24.328  0.00  0.00     0.029 A 
ATOM      6  N   UNL d   1      30.006  18.374 -25.097  0.00  0.00    -0.244 NA
ATOM      7  C   UNL d   1      29.793  17.597 -24.909  0.00  0.00     0.103 A 
ATOM      8  C   UNL d   1      30.968  19.426 -25.090  0.00  0.00     0.046 A 
ATOM      9  C   UNL d   1      32.257  19.210 -24.515  0.00  0.00     0.123 A 
ATOM     10  C   UNL d   1      31.719  19.704 -24.896  0.00  0.00     0.124 A 
ATOM     11  O   UNL d   1      33.007  19.488 -24.321  0.00  0.00    -0.301 OA
ATOM     12  O   UNL d   1      31.929  20.477 -25.084  0.00  0.00    -0.301 OA
ATOM     13  C   UNL d   1      33.223  20.268 -24.509  0.00  0.00     0.149 A 
ATOM     14  C   UNL d   1      32.685  20.762 -24.890  0.00  0.00     0.149 A 
ENDROOT
BRANCH   1  15
ATOM     15  S   UNL d   1      31.629  16.896 -23.952  0.00  0.00     0.210 S 
ATOM     16  O   UNL d   1      31.346  17.163 -23.225  0.00  0.00    -0.217 OA
ATOM     17  O   UNL d   1      31.912  16.628 -24.680  0.00  0.00    -0.217 OA
BRANCH  15  18
ATOM     18  C   UNL d   1      32.168  16.414 -23.555  0.00  0.00     0.088 A 
ATOM     19  C   UNL d   1      32.688  15.935 -23.978  0.00  0.00     0.011 A 
ATOM     20  C   UNL d   1      33.227  15.453 -23.571  0.00  0.00     0.001 A 
ATOM     21  C   UNL d   1      33.240  15.454 -22.748  0.00  0.00     0.000 A 
ATOM     22  C   UNL d   1      32.723  15.929 -22.325  0.00  0.00     0.001 A 
ATOM     23  C   UNL d   1      32.181  16.414 -22.731  0.00  0.00     0.011 A 
ENDBRANCH  15  18
ENDBRANCH   1  15
BRANCH   2  24
ATOM     24  C   UNL d   1      30.115  16.323 -24.340  0.00  0.00     0.198 C 
ATOM     25  O   UNL d   1      30.677  15.720 -24.366  0.00  0.00    -0.286 OA
BRANCH  24  26
ATOM     26  C   UNL d   1      29.336  16.154 -24.127  0.00  0.00     0.039 A 
ATOM     27  C   UNL d   1      29.032  16.410 -23.399  0.00  0.00     0.003 A 
ATOM     28  C   UNL d   1      28.253  16.241 -23.185  0.00  0.00     0.000 A 
ATOM     29  C   UNL d   1      27.766  15.813 -23.694  0.00  0.00     0.000 A 
ATOM     30  C   UNL d   1      28.072  15.554 -24.431  0.00  0.00     0.000 A 
ATOM     31  C   UNL d   1      26.990  15.641 -23.489  0.00  0.00     0.000 C 
ATOM     32  C   UNL d   1      28.849  15.721 -24.647  0.00  0.00     0.003 A 
ENDBRANCH  24  26
ENDBRANCH   2  24
TORSDOF 4
ENDMDL
