MODEL 1
REMARK VINA RESULT:      -6.9      0.000      0.000
REMARK  5 active torsions:
REMARK  status: ('A' for Active; 'I' for Inactive)
REMARK    1  A    between atoms: N_2  and  C_14 
REMARK    2  A    between atoms: C_17  and  N_4 
REMARK    3  A    between atoms: C_15  and  C_9 
REMARK    4  A    between atoms: C_14  and  O_16 
REMARK    5  A    between atoms: O_16  and  C_15 
ROOT
ATOM      1  C   UNL d   1     -40.111  14.750  17.871  0.00  0.00     0.114 A 
ATOM      2  C   UNL d   1     -40.761  15.234  17.721  0.00  0.00     0.044 A 
ATOM      3  N   UNL d   1     -39.854  14.447  17.152  0.00  0.00    -0.224 N 
ATOM      4  N   UNL d   1     -40.339  14.739  16.561  0.00  0.00    -0.165 NA
ATOM      5  S   UNL d   1     -39.973  14.757  18.669  0.00  0.00    -0.062 SA
ATOM      6  C   UNL d   1     -40.530  15.242  19.029  0.00  0.00     0.094 A 
ATOM      7  C   UNL d   1     -41.019  15.536  18.429  0.00  0.00     0.015 A 
ATOM      8  C   UNL d   1     -40.899  15.225  16.903  0.00  0.00     0.103 A 
ATOM      9  C   UNL d   1     -41.495  15.632  16.515  0.00  0.00     0.022 C 
ENDROOT
BRANCH   6  10
ATOM     10  C   UNL d   1     -40.591  15.404  19.832  0.00  0.00     0.307 C 
ATOM     11  O   UNL d   1     -41.177  15.922  20.106  0.00  0.00    -0.258 OA
BRANCH  10  12
ATOM     12  O   UNL d   1     -40.069  15.052  20.368  0.00  0.00    -0.252 OA
BRANCH  12  13
ATOM     13  C   UNL d   1     -40.312  14.908  21.147  0.00  0.00     0.216 C 
BRANCH  13  14
ATOM     14  N   UNL d   1     -39.771  14.615  21.700  0.00  0.00    -0.218 N 
ATOM     15  C   UNL d   1     -39.569  13.827  21.802  0.00  0.00     0.269 A 
ATOM     16  C   UNL d   1     -39.011  13.780  22.412  0.00  0.00     0.061 A 
ATOM     17  O   UNL d   1     -39.868  13.184  21.373  0.00  0.00    -0.267 OA
ATOM     18  C   UNL d   1     -38.612  13.147  22.755  0.00  0.00     0.005 A 
ATOM     19  C   UNL d   1     -38.871  14.549  22.683  0.00  0.00     0.061 A 
ATOM     20  C   UNL d   1     -38.079  13.276  23.364  0.00  0.00     0.000 A 
ATOM     21  C   UNL d   1     -37.940  14.045  23.635  0.00  0.00     0.000 A 
ATOM     22  C   UNL d   1     -38.334  14.685  23.298  0.00  0.00     0.005 A 
ATOM     23  C   UNL d   1     -39.343  15.073  22.242  0.00  0.00     0.269 A 
ATOM     24  O   UNL d   1     -39.379  15.889  22.328  0.00  0.00    -0.267 OA
ENDBRANCH  13  14
ENDBRANCH  12  13
ENDBRANCH  10  12
ENDBRANCH   6  10
BRANCH   3  25
ATOM     25  C   UNL d   1     -39.216  13.935  17.044  0.00  0.00     0.083 A 
ATOM     26  C   UNL d   1     -39.148  13.268  17.517  0.00  0.00     0.019 A 
ATOM     27  C   UNL d   1     -38.510  12.756  17.410  0.00  0.00     0.002 A 
ATOM     28  C   UNL d   1     -37.941  12.912  16.829  0.00  0.00     0.000 A 
ATOM     29  C   UNL d   1     -38.016  13.590  16.353  0.00  0.00     0.002 A 
ATOM     30  C   UNL d   1     -38.650  14.101  16.458  0.00  0.00     0.019 A 
ENDBRANCH   3  25
TORSDOF 5
ENDMDL
MODEL 2
REMARK VINA RESULT:      -6.2      7.995      9.268
REMARK  5 active torsions:
REMARK  status: ('A' for Active; 'I' for Inactive)
REMARK    1  A    between atoms: N_2  and  C_14 
REMARK    2  A    between atoms: C_17  and  N_4 
REMARK    3  A    between atoms: C_15  and  C_9 
REMARK    4  A    between atoms: C_14  and  O_16 
REMARK    5  A    between atoms: O_16  and  C_15 
ROOT
ATOM      1  C   UNL d   1     -48.691  13.862  22.958  0.00  0.00     0.114 A 
ATOM      2  C   UNL d   1     -48.544  14.666  22.849  0.00  0.00     0.044 A 
ATOM      3  N   UNL d   1     -49.505  13.754  22.953  0.00  0.00    -0.224 N 
ATOM      4  N   UNL d   1     -49.862  14.483  22.841  0.00  0.00    -0.165 NA
ATOM      5  S   UNL d   1     -47.978  13.486  23.030  0.00  0.00    -0.062 SA
ATOM      6  C   UNL d   1     -47.377  14.043  22.966  0.00  0.00     0.094 A 
ATOM      7  C   UNL d   1     -47.740  14.778  22.853  0.00  0.00     0.015 A 
ATOM      8  C   UNL d   1     -49.277  15.049  22.776  0.00  0.00     0.103 A 
ATOM      9  C   UNL d   1     -49.386  15.852  22.660  0.00  0.00     0.022 C 
ENDROOT
BRANCH   6  10
ATOM     10  C   UNL d   1     -46.569  13.898  23.007  0.00  0.00     0.307 C 
ATOM     11  O   UNL d   1     -46.032  14.521  22.912  0.00  0.00    -0.258 OA
BRANCH  10  12
ATOM     12  O   UNL d   1     -46.291  13.131  23.143  0.00  0.00    -0.252 OA
BRANCH  12  13
ATOM     13  C   UNL d   1     -45.835  12.749  22.567  0.00  0.00     0.216 C 
BRANCH  13  14
ATOM     14  N   UNL d   1     -45.339  12.123  22.782  0.00  0.00    -0.218 N 
ATOM     15  C   UNL d   1     -44.544  12.054  22.594  0.00  0.00     0.269 A 
ATOM     16  C   UNL d   1     -44.261  11.347  22.917  0.00  0.00     0.061 A 
ATOM     17  O   UNL d   1     -44.096  12.597  22.156  0.00  0.00    -0.267 OA
ATOM     18  C   UNL d   1     -43.521  10.988  22.910  0.00  0.00     0.005 A 
ATOM     19  C   UNL d   1     -44.892  10.980  23.306  0.00  0.00     0.061 A 
ATOM     20  C   UNL d   1     -43.407  10.270  23.287  0.00  0.00     0.000 A 
ATOM     21  C   UNL d   1     -44.037   9.903  23.676  0.00  0.00     0.000 A 
ATOM     22  C   UNL d   1     -44.782  10.255  23.689  0.00  0.00     0.005 A 
ATOM     23  C   UNL d   1     -45.566  11.460  23.225  0.00  0.00     0.269 A 
ATOM     24  O   UNL d   1     -46.315  11.307  23.527  0.00  0.00    -0.267 OA
ENDBRANCH  13  14
ENDBRANCH  12  13
ENDBRANCH  10  12
ENDBRANCH   6  10
BRANCH   3  25
ATOM     25  C   UNL d   1     -49.897  13.034  23.045  0.00  0.00     0.083 A 
ATOM     26  C   UNL d   1     -49.683  12.394  22.577  0.00  0.00     0.019 A 
ATOM     27  C   UNL d   1     -50.075  11.674  22.669  0.00  0.00     0.002 A 
ATOM     28  C   UNL d   1     -50.681  11.595  23.228  0.00  0.00     0.000 A 
ATOM     29  C   UNL d   1     -50.893  12.247  23.698  0.00  0.00     0.002 A 
ATOM     30  C   UNL d   1     -50.504  12.965  23.609  0.00  0.00     0.019 A 
ENDBRANCH   3  25
TORSDOF 5
ENDMDL
MODEL 3
REMARK VINA RESULT:      -5.7      4.477      6.283
REMARK  5 active torsions:
REMARK  status: ('A' for Active; 'I' for Inactive)
REMARK    1  A    between atoms: N_2  and  C_14 
REMARK    2  A    between atoms: C_17  and  N_4 
REMARK    3  A    between atoms: C_15  and  C_9 
REMARK    4  A    between atoms: C_14  and  O_16 
REMARK    5  A    between atoms: O_16  and  C_15 
ROOT
ATOM      1  C   UNL d   1     -44.855  12.625  22.311  0.00  0.00     0.114 A 
ATOM      2  C   UNL d   1     -44.388  11.982  22.535  0.00  0.00     0.044 A 
ATOM      3  N   UNL d   1     -45.556  12.584  22.735  0.00  0.00    -0.224 N 
ATOM      4  N   UNL d   1     -45.528  11.924  23.218  0.00  0.00    -0.165 NA
ATOM      5  S   UNL d   1     -44.443  13.050  21.758  0.00  0.00    -0.062 SA
ATOM      6  C   UNL d   1     -43.718  12.684  21.628  0.00  0.00     0.094 A 
ATOM      7  C   UNL d   1     -43.693  12.017  22.118  0.00  0.00     0.015 A 
ATOM      8  C   UNL d   1     -44.813  11.548  23.101  0.00  0.00     0.103 A 
ATOM      9  C   UNL d   1     -44.554  10.865  23.471  0.00  0.00     0.022 C 
ENDROOT
BRANCH   6  10
ATOM     10  C   UNL d   1     -43.131  12.933  21.111  0.00  0.00     0.307 C 
ATOM     11  O   UNL d   1     -43.149  12.691  20.319  0.00  0.00    -0.258 OA
BRANCH  10  12
ATOM     12  O   UNL d   1     -42.522  13.424  21.378  0.00  0.00    -0.252 OA
BRANCH  12  13
ATOM     13  C   UNL d   1     -41.977  13.738  20.838  0.00  0.00     0.216 C 
BRANCH  13  14
ATOM     14  N   UNL d   1     -41.327  14.168  21.112  0.00  0.00    -0.218 N 
ATOM     15  C   UNL d   1     -40.648  13.852  21.446  0.00  0.00     0.269 A 
ATOM     16  C   UNL d   1     -40.141  14.476  21.642  0.00  0.00     0.061 A 
ATOM     17  O   UNL d   1     -40.492  13.047  21.569  0.00  0.00    -0.267 OA
ATOM     18  C   UNL d   1     -39.394  14.499  21.986  0.00  0.00     0.005 A 
ATOM     19  C   UNL d   1     -40.515  15.181  21.424  0.00  0.00     0.061 A 
ATOM     20  C   UNL d   1     -39.020  15.217  22.114  0.00  0.00     0.000 A 
ATOM     21  C   UNL d   1     -39.394  15.922  21.896  0.00  0.00     0.000 A 
ATOM     22  C   UNL d   1     -40.142  15.908  21.551  0.00  0.00     0.005 A 
ATOM     23  C   UNL d   1     -41.255  14.994  21.094  0.00  0.00     0.269 A 
ATOM     24  O   UNL d   1     -41.809  15.527  20.804  0.00  0.00    -0.267 OA
ENDBRANCH  13  14
ENDBRANCH  12  13
ENDBRANCH  10  12
ENDBRANCH   6  10
BRANCH   3  25
ATOM     25  C   UNL d   1     -46.183  13.119  22.684  0.00  0.00     0.083 A 
ATOM     26  C   UNL d   1     -46.112  13.860  23.030  0.00  0.00     0.019 A 
ATOM     27  C   UNL d   1     -46.739  14.394  22.978  0.00  0.00     0.002 A 
ATOM     28  C   UNL d   1     -47.435  14.187  22.581  0.00  0.00     0.000 A 
ATOM     29  C   UNL d   1     -47.500  13.434  22.232  0.00  0.00     0.002 A 
ATOM     30  C   UNL d   1     -46.878  12.900  22.282  0.00  0.00     0.019 A 
ENDBRANCH   3  25
TORSDOF 5
ENDMDL
MODEL 4
REMARK VINA RESULT:      -5.2      3.977      5.063
REMARK  5 active torsions:
REMARK  status: ('A' for Active; 'I' for Inactive)
REMARK    1  A    between atoms: N_2  and  C_14 
REMARK    2  A    between atoms: C_17  and  N_4 
REMARK    3  A    between atoms: C_15  and  C_9 
REMARK    4  A    between atoms: C_14  and  O_16 
REMARK    5  A    between atoms: O_16  and  C_15 
ROOT
ATOM      1  C   UNL d   1     -41.223  14.276  20.323  0.00  0.00     0.114 A 
ATOM      2  C   UNL d   1     -41.328  14.686  21.031  0.00  0.00     0.044 A 
ATOM      3  N   UNL d   1     -40.678  14.693  19.871  0.00  0.00    -0.224 N 
ATOM      4  N   UNL d   1     -40.446  15.355  20.293  0.00  0.00    -0.165 NA
ATOM      5  S   UNL d   1     -41.696  13.620  20.343  0.00  0.00    -0.062 SA
ATOM      6  C   UNL d   1     -42.103  13.608  21.057  0.00  0.00     0.094 A 
ATOM      7  C   UNL d   1     -41.866  14.278  21.481  0.00  0.00     0.015 A 
ATOM      8  C   UNL d   1     -40.841  15.358  21.007  0.00  0.00     0.103 A 
ATOM      9  C   UNL d   1     -40.775  15.920  21.600  0.00  0.00     0.022 C 
ENDROOT
BRANCH   6  10
ATOM     10  C   UNL d   1     -42.641  13.038  21.304  0.00  0.00     0.307 C 
ATOM     11  O   UNL d   1     -42.436  12.236  21.276  0.00  0.00    -0.258 OA
BRANCH  10  12
ATOM     12  O   UNL d   1     -43.387  13.264  21.580  0.00  0.00    -0.252 OA
BRANCH  12  13
ATOM     13  C   UNL d   1     -44.029  12.746  21.506  0.00  0.00     0.216 C 
BRANCH  13  14
ATOM     14  N   UNL d   1     -44.700  12.851  21.977  0.00  0.00    -0.218 N 
ATOM     15  C   UNL d   1     -45.208  13.493  21.953  0.00  0.00     0.269 A 
ATOM     16  C   UNL d   1     -45.804  13.374  22.515  0.00  0.00     0.061 A 
ATOM     17  O   UNL d   1     -45.141  14.153  21.455  0.00  0.00    -0.267 OA
ATOM     18  C   UNL d   1     -46.456  13.824  22.738  0.00  0.00     0.005 A 
ATOM     19  C   UNL d   1     -45.658  12.650  22.885  0.00  0.00     0.061 A 
ATOM     20  C   UNL d   1     -46.960  13.555  23.326  0.00  0.00     0.000 A 
ATOM     21  C   UNL d   1     -46.814  12.830  23.696  0.00  0.00     0.000 A 
ATOM     22  C   UNL d   1     -46.163  12.374  23.479  0.00  0.00     0.005 A 
ATOM     23  C   UNL d   1     -44.970  12.319  22.553  0.00  0.00     0.269 A 
ATOM     24  O   UNL d   1     -44.625  11.602  22.758  0.00  0.00    -0.267 OA
ENDBRANCH  13  14
ENDBRANCH  12  13
ENDBRANCH  10  12
ENDBRANCH   6  10
BRANCH   3  25
ATOM     25  C   UNL d   1     -40.410  14.480  19.121  0.00  0.00     0.083 A 
ATOM     26  C   UNL d   1     -39.732  14.023  19.048  0.00  0.00     0.019 A 
ATOM     27  C   UNL d   1     -39.464  13.810  18.297  0.00  0.00     0.002 A 
ATOM     28  C   UNL d   1     -39.874  14.054  17.620  0.00  0.00     0.000 A 
ATOM     29  C   UNL d   1     -40.560  14.517  17.702  0.00  0.00     0.002 A 
ATOM     30  C   UNL d   1     -40.829  14.731  18.448  0.00  0.00     0.019 A 
ENDBRANCH   3  25
TORSDOF 5
ENDMDL
MODEL 5
REMARK VINA RESULT:      -5.1      1.159      1.359
REMARK  5 active torsions:
REMARK  status: ('A' for Active; 'I' for Inactive)
REMARK    1  A    between atoms: N_2  and  C_14 
REMARK    2  A    between atoms: C_17  and  N_4 
REMARK    3  A    between atoms: C_15  and  C_9 
REMARK    4  A    between atoms: C_14  and  O_16 
REMARK    5  A    between atoms: O_16  and  C_15 
ROOT
ATOM      1  C   UNL d   1     -39.285  15.007  17.304  0.00  0.00     0.114 A 
ATOM      2  C   UNL d   1     -39.939  15.413  17.600  0.00  0.00     0.044 A 
ATOM      3  N   UNL d   1     -39.453  14.792  16.529  0.00  0.00    -0.224 N 
ATOM      4  N   UNL d   1     -40.203  15.062  16.344  0.00  0.00    -0.165 NA
ATOM      5  S   UNL d   1     -38.726  14.975  17.890  0.00  0.00    -0.062 SA
ATOM      6  C   UNL d   1     -39.019  15.357  18.556  0.00  0.00     0.094 A 
ATOM      7  C   UNL d   1     -39.778  15.628  18.365  0.00  0.00     0.015 A 
ATOM      8  C   UNL d   1     -40.509  15.445  16.997  0.00  0.00     0.103 A 
ATOM      9  C   UNL d   1     -41.245  15.799  17.055  0.00  0.00     0.022 C 
ENDROOT
BRANCH   6  10
ATOM     10  C   UNL d   1     -38.632  15.452  19.274  0.00  0.00     0.307 C 
ATOM     11  O   UNL d   1     -37.951  15.921  19.318  0.00  0.00    -0.258 OA
BRANCH  10  12
ATOM     12  O   UNL d   1     -38.921  15.080  19.954  0.00  0.00    -0.252 OA
BRANCH  12  13
ATOM     13  C   UNL d   1     -38.677  15.340  20.702  0.00  0.00     0.216 C 
BRANCH  13  14
ATOM     14  N   UNL d   1     -38.769  14.847  21.360  0.00  0.00    -0.218 N 
ATOM     15  C   UNL d   1     -38.445  14.100  21.449  0.00  0.00     0.269 A 
ATOM     16  C   UNL d   1     -38.674  13.803  22.187  0.00  0.00     0.061 A 
ATOM     17  O   UNL d   1     -37.967  13.704  20.899  0.00  0.00    -0.267 OA
ATOM     18  C   UNL d   1     -38.521  13.094  22.575  0.00  0.00     0.005 A 
ATOM     19  C   UNL d   1     -39.145  14.378  22.551  0.00  0.00     0.061 A 
ATOM     20  C   UNL d   1     -38.833  12.955  23.320  0.00  0.00     0.000 A 
ATOM     21  C   UNL d   1     -39.303  13.529  23.684  0.00  0.00     0.000 A 
ATOM     22  C   UNL d   1     -39.462  14.242  23.303  0.00  0.00     0.005 A 
ATOM     23  C   UNL d   1     -39.207  15.030  22.040  0.00  0.00     0.269 A 
ATOM     24  O   UNL d   1     -39.624  15.724  22.181  0.00  0.00    -0.267 OA
ENDBRANCH  13  14
ENDBRANCH  12  13
ENDBRANCH  10  12
ENDBRANCH   6  10
BRANCH   3  25
ATOM     25  C   UNL d   1     -38.951  14.376  16.024  0.00  0.00     0.083 A 
ATOM     26  C   UNL d   1     -38.849  13.568  16.131  0.00  0.00     0.019 A 
ATOM     27  C   UNL d   1     -38.347  13.152  15.625  0.00  0.00     0.002 A 
ATOM     28  C   UNL d   1     -37.948  13.543  15.015  0.00  0.00     0.000 A 
ATOM     29  C   UNL d   1     -38.056  14.362  14.913  0.00  0.00     0.002 A 
ATOM     30  C   UNL d   1     -38.555  14.779  15.414  0.00  0.00     0.019 A 
ENDBRANCH   3  25
TORSDOF 5
ENDMDL
MODEL 6
REMARK VINA RESULT:      -5.0      5.496      7.126
REMARK  5 active torsions:
REMARK  status: ('A' for Active; 'I' for Inactive)
REMARK    1  A    between atoms: N_2  and  C_14 
REMARK    2  A    between atoms: C_17  and  N_4 
REMARK    3  A    between atoms: C_15  and  C_9 
REMARK    4  A    between atoms: C_14  and  O_16 
REMARK    5  A    between atoms: O_16  and  C_15 
ROOT
ATOM      1  C   UNL d   1     -46.146  12.954  22.515  0.00  0.00     0.114 A 
ATOM      2  C   UNL d   1     -45.837  13.714  22.435  0.00  0.00     0.044 A 
ATOM      3  N   UNL d   1     -46.941  13.026  22.705  0.00  0.00    -0.224 N 
ATOM      4  N   UNL d   1     -47.127  13.822  22.743  0.00  0.00    -0.165 NA
ATOM      5  S   UNL d   1     -45.547  12.426  22.376  0.00  0.00    -0.062 SA
ATOM      6  C   UNL d   1     -44.860  12.844  22.208  0.00  0.00     0.094 A 
ATOM      7  C   UNL d   1     -45.050  13.649  22.247  0.00  0.00     0.015 A 
ATOM      8  C   UNL d   1     -46.453  14.253  22.579  0.00  0.00     0.103 A 
ATOM      9  C   UNL d   1     -46.388  15.069  22.557  0.00  0.00     0.022 C 
ENDROOT
BRANCH   6  10
ATOM     10  C   UNL d   1     -44.123  12.525  22.034  0.00  0.00     0.307 C 
ATOM     11  O   UNL d   1     -43.955  11.740  22.240  0.00  0.00    -0.258 OA
BRANCH  10  12
ATOM     12  O   UNL d   1     -43.550  12.984  21.655  0.00  0.00    -0.252 OA
BRANCH  12  13
ATOM     13  C   UNL d   1     -42.800  12.666  21.504  0.00  0.00     0.216 C 
BRANCH  13  14
ATOM     14  N   UNL d   1     -42.206  13.144  21.184  0.00  0.00    -0.218 N 
ATOM     15  C   UNL d   1     -41.578  13.470  21.597  0.00  0.00     0.269 A 
ATOM     16  C   UNL d   1     -41.118  13.909  21.066  0.00  0.00     0.061 A 
ATOM     17  O   UNL d   1     -41.424  13.380  22.406  0.00  0.00    -0.267 OA
ATOM     18  C   UNL d   1     -40.431  14.351  21.158  0.00  0.00     0.005 A 
ATOM     19  C   UNL d   1     -41.471  13.848  20.321  0.00  0.00     0.061 A 
ATOM     20  C   UNL d   1     -40.095  14.732  20.515  0.00  0.00     0.000 A 
ATOM     21  C   UNL d   1     -40.449  14.672  19.770  0.00  0.00     0.000 A 
ATOM     22  C   UNL d   1     -41.137  14.231  19.668  0.00  0.00     0.005 A 
ATOM     23  C   UNL d   1     -42.150  13.373  20.389  0.00  0.00     0.269 A 
ATOM     24  O   UNL d   1     -42.667  13.168  19.784  0.00  0.00    -0.267 OA
ENDBRANCH  13  14
ENDBRANCH  12  13
ENDBRANCH  10  12
ENDBRANCH   6  10
BRANCH   3  25
ATOM     25  C   UNL d   1     -47.465  12.402  22.835  0.00  0.00     0.083 A 
ATOM     26  C   UNL d   1     -47.986  12.180  22.241  0.00  0.00     0.019 A 
ATOM     27  C   UNL d   1     -48.509  11.556  22.371  0.00  0.00     0.002 A 
ATOM     28  C   UNL d   1     -48.511  11.154  23.095  0.00  0.00     0.000 A 
ATOM     29  C   UNL d   1     -47.980  11.384  23.693  0.00  0.00     0.002 A 
ATOM     30  C   UNL d   1     -47.458  12.005  23.566  0.00  0.00     0.019 A 
ENDBRANCH   3  25
TORSDOF 5
ENDMDL
MODEL 7
REMARK VINA RESULT:      -4.8      7.347      8.754
REMARK  5 active torsions:
REMARK  status: ('A' for Active; 'I' for Inactive)
REMARK    1  A    between atoms: N_2  and  C_14 
REMARK    2  A    between atoms: C_17  and  N_4 
REMARK    3  A    between atoms: C_15  and  C_9 
REMARK    4  A    between atoms: C_14  and  O_16 
REMARK    5  A    between atoms: O_16  and  C_15 
ROOT
ATOM      1  C   UNL d   1     -48.312  13.480  22.931  0.00  0.00     0.114 A 
ATOM      2  C   UNL d   1     -47.843  14.150  22.827  0.00  0.00     0.044 A 
ATOM      3  N   UNL d   1     -49.096  13.708  22.845  0.00  0.00    -0.224 N 
ATOM      4  N   UNL d   1     -49.117  14.511  22.689  0.00  0.00    -0.165 NA
ATOM      5  S   UNL d   1     -47.821  12.853  23.078  0.00  0.00    -0.062 SA
ATOM      6  C   UNL d   1     -47.043  13.118  23.068  0.00  0.00     0.094 A 
ATOM      7  C   UNL d   1     -47.066  13.931  22.910  0.00  0.00     0.015 A 
ATOM      8  C   UNL d   1     -48.349  14.791  22.676  0.00  0.00     0.103 A 
ATOM      9  C   UNL d   1     -48.114  15.564  22.540  0.00  0.00     0.022 C 
ENDROOT
BRANCH   6  10
ATOM     10  C   UNL d   1     -46.370  12.664  23.191  0.00  0.00     0.307 C 
ATOM     11  O   UNL d   1     -46.403  12.005  23.693  0.00  0.00    -0.258 OA
BRANCH  10  12
ATOM     12  O   UNL d   1     -45.660  12.862  22.816  0.00  0.00    -0.252 OA
BRANCH  12  13
ATOM     13  C   UNL d   1     -45.203  12.270  22.460  0.00  0.00     0.216 C 
BRANCH  13  14
ATOM     14  N   UNL d   1     -44.464  12.458  22.138  0.00  0.00    -0.218 N 
ATOM     15  C   UNL d   1     -43.753  12.098  22.327  0.00  0.00     0.269 A 
ATOM     16  C   UNL d   1     -43.155  12.454  21.878  0.00  0.00     0.061 A 
ATOM     17  O   UNL d   1     -43.644  11.484  22.873  0.00  0.00    -0.267 OA
ATOM     18  C   UNL d   1     -42.343  12.328  21.832  0.00  0.00     0.005 A 
ATOM     19  C   UNL d   1     -43.507  13.038  21.411  0.00  0.00     0.061 A 
ATOM     20  C   UNL d   1     -41.884  12.777  21.324  0.00  0.00     0.000 A 
ATOM     21  C   UNL d   1     -42.236  13.361  20.856  0.00  0.00     0.000 A 
ATOM     22  C   UNL d   1     -43.048  13.495  20.896  0.00  0.00     0.005 A 
ATOM     23  C   UNL d   1     -44.324  13.044  21.569  0.00  0.00     0.269 A 
ATOM     24  O   UNL d   1     -44.884  13.538  21.226  0.00  0.00    -0.267 OA
ENDBRANCH  13  14
ENDBRANCH  12  13
ENDBRANCH  10  12
ENDBRANCH   6  10
BRANCH   3  25
ATOM     25  C   UNL d   1     -49.753  13.212  22.906  0.00  0.00     0.083 A 
ATOM     26  C   UNL d   1     -50.115  13.107  23.636  0.00  0.00     0.019 A 
ATOM     27  C   UNL d   1     -50.771  12.611  23.696  0.00  0.00     0.002 A 
ATOM     28  C   UNL d   1     -51.064  12.219  23.028  0.00  0.00     0.000 A 
ATOM     29  C   UNL d   1     -50.693  12.330  22.293  0.00  0.00     0.002 A 
ATOM     30  C   UNL d   1     -50.039  12.824  22.229  0.00  0.00     0.019 A 
ENDBRANCH   3  25
TORSDOF 5
ENDMDL
MODEL 8
REMARK VINA RESULT:      -4.8      4.068      5.523
REMARK  5 active torsions:
REMARK  status: ('A' for Active; 'I' for Inactive)
REMARK    1  A    between atoms: N_2  and  C_14 
REMARK    2  A    between atoms: C_17  and  N_4 
REMARK    3  A    between atoms: C_15  and  C_9 
REMARK    4  A    between atoms: C_14  and  O_16 
REMARK    5  A    between atoms: O_16  and  C_15 
ROOT
ATOM      1  C   UNL d   1     -40.938  14.019  21.384  0.00  0.00     0.114 A 
ATOM      2  C   UNL d   1     -41.448  14.568  21.040  0.00  0.00     0.044 A 
ATOM      3  N   UNL d   1     -40.188  14.352  21.403  0.00  0.00    -0.224 N 
ATOM      4  N   UNL d   1     -40.229  15.101  21.075  0.00  0.00    -0.165 NA
ATOM      5  S   UNL d   1     -41.371  13.361  21.572  0.00  0.00    -0.062 SA
ATOM      6  C   UNL d   1     -42.153  13.487  21.350  0.00  0.00     0.094 A 
ATOM      7  C   UNL d   1     -42.191  14.244  21.018  0.00  0.00     0.015 A 
ATOM      8  C   UNL d   1     -41.001  15.242  20.849  0.00  0.00     0.103 A 
ATOM      9  C   UNL d   1     -41.290  15.922  20.496  0.00  0.00     0.022 C 
ENDROOT
BRANCH   6  10
ATOM     10  C   UNL d   1     -42.777  12.961  21.440  0.00  0.00     0.307 C 
ATOM     11  O   UNL d   1     -42.684  12.168  21.219  0.00  0.00    -0.258 OA
BRANCH  10  12
ATOM     12  O   UNL d   1     -43.498  13.221  21.751  0.00  0.00    -0.252 OA
BRANCH  12  13
ATOM     13  C   UNL d   1     -44.194  12.804  21.583  0.00  0.00     0.216 C 
BRANCH  13  14
ATOM     14  N   UNL d   1     -44.870  12.928  22.044  0.00  0.00    -0.218 N 
ATOM     15  C   UNL d   1     -45.206  12.385  22.558  0.00  0.00     0.269 A 
ATOM     16  C   UNL d   1     -45.872  12.734  22.905  0.00  0.00     0.061 A 
ATOM     17  O   UNL d   1     -44.931  11.618  22.709  0.00  0.00    -0.267 OA
ATOM     18  C   UNL d   1     -46.421  12.463  23.454  0.00  0.00     0.005 A 
ATOM     19  C   UNL d   1     -45.941  13.499  22.598  0.00  0.00     0.061 A 
ATOM     20  C   UNL d   1     -47.035  12.947  23.698  0.00  0.00     0.000 A 
ATOM     21  C   UNL d   1     -47.105  13.711  23.391  0.00  0.00     0.000 A 
ATOM     22  C   UNL d   1     -46.560  13.992  22.840  0.00  0.00     0.005 A 
ATOM     23  C   UNL d   1     -45.319  13.624  22.060  0.00  0.00     0.269 A 
ATOM     24  O   UNL d   1     -45.177  14.308  21.628  0.00  0.00    -0.267 OA
ENDBRANCH  13  14
ENDBRANCH  12  13
ENDBRANCH  10  12
ENDBRANCH   6  10
BRANCH   3  25
ATOM     25  C   UNL d   1     -39.508  13.993  21.702  0.00  0.00     0.083 A 
ATOM     26  C   UNL d   1     -39.397  13.951  22.515  0.00  0.00     0.019 A 
ATOM     27  C   UNL d   1     -38.717  13.592  22.814  0.00  0.00     0.002 A 
ATOM     28  C   UNL d   1     -38.150  13.275  22.302  0.00  0.00     0.000 A 
ATOM     29  C   UNL d   1     -38.269  13.321  21.480  0.00  0.00     0.002 A 
ATOM     30  C   UNL d   1     -38.944  13.678  21.178  0.00  0.00     0.019 A 
ENDBRANCH   3  25
TORSDOF 5
ENDMDL
MODEL 9
REMARK VINA RESULT:      -4.7      7.262      8.706
REMARK  5 active torsions:
REMARK  status: ('A' for Active; 'I' for Inactive)
REMARK    1  A    between atoms: N_2  and  C_14 
REMARK    2  A    between atoms: C_17  and  N_4 
REMARK    3  A    between atoms: C_15  and  C_9 
REMARK    4  A    between atoms: C_14  and  O_16 
REMARK    5  A    between atoms: O_16  and  C_15 
ROOT
ATOM      1  C   UNL d   1     -44.634  12.467  22.498  0.00  0.00     0.114 A 
ATOM      2  C   UNL d   1     -45.009  11.908  22.974  0.00  0.00     0.044 A 
ATOM      3  N   UNL d   1     -43.919  12.146  22.252  0.00  0.00    -0.224 N 
ATOM      4  N   UNL d   1     -43.849  11.396  22.571  0.00  0.00    -0.165 NA
ATOM      5  S   UNL d   1     -45.113  13.118  22.454  0.00  0.00    -0.062 SA
ATOM      6  C   UNL d   1     -45.791  12.979  22.898  0.00  0.00     0.094 A 
ATOM      7  C   UNL d   1     -45.717  12.219  23.220  0.00  0.00     0.015 A 
ATOM      8  C   UNL d   1     -44.516  11.241  23.017  0.00  0.00     0.103 A 
ATOM      9  C   UNL d   1     -44.676  10.555  23.434  0.00  0.00     0.022 C 
ENDROOT
BRANCH   6  10
ATOM     10  C   UNL d   1     -46.421  13.495  23.003  0.00  0.00     0.307 C 
ATOM     11  O   UNL d   1     -46.289  14.249  23.320  0.00  0.00    -0.258 OA
BRANCH  10  12
ATOM     12  O   UNL d   1     -47.187  13.264  22.794  0.00  0.00    -0.252 OA
BRANCH  12  13
ATOM     13  C   UNL d   1     -47.836  13.721  23.030  0.00  0.00     0.216 C 
BRANCH  13  14
ATOM     14  N   UNL d   1     -48.589  13.555  22.731  0.00  0.00    -0.218 N 
ATOM     15  C   UNL d   1     -48.987  13.992  22.164  0.00  0.00     0.269 A 
ATOM     16  C   UNL d   1     -49.719  13.633  22.026  0.00  0.00     0.061 A 
ATOM     17  O   UNL d   1     -48.708  14.678  21.789  0.00  0.00    -0.267 OA
ATOM     18  C   UNL d   1     -50.345  13.819  21.525  0.00  0.00     0.005 A 
ATOM     19  C   UNL d   1     -49.768  12.969  22.516  0.00  0.00     0.061 A 
ATOM     20  C   UNL d   1     -51.016  13.348  21.510  0.00  0.00     0.000 A 
ATOM     21  C   UNL d   1     -51.064  12.683  22.000  0.00  0.00     0.000 A 
ATOM     22  C   UNL d   1     -50.442  12.490  22.505  0.00  0.00     0.005 A 
ATOM     23  C   UNL d   1     -49.065  12.916  22.958  0.00  0.00     0.269 A 
ATOM     24  O   UNL d   1     -48.879  12.339  23.513  0.00  0.00    -0.267 OA
ENDBRANCH  13  14
ENDBRANCH  12  13
ENDBRANCH  10  12
ENDBRANCH   6  10
BRANCH   3  25
ATOM     25  C   UNL d   1     -43.366  12.517  21.766  0.00  0.00     0.083 A 
ATOM     26  C   UNL d   1     -42.581  12.558  22.004  0.00  0.00     0.019 A 
ATOM     27  C   UNL d   1     -42.027  12.929  21.517  0.00  0.00     0.002 A 
ATOM     28  C   UNL d   1     -42.259  13.259  20.794  0.00  0.00     0.000 A 
ATOM     29  C   UNL d   1     -43.055  13.215  20.560  0.00  0.00     0.002 A 
ATOM     30  C   UNL d   1     -43.609  12.846  21.042  0.00  0.00     0.019 A 
ENDBRANCH   3  25
TORSDOF 5
ENDMDL
