MODEL 1
REMARK VINA RESULT:      87.1      0.000      0.000
REMARK  8 active torsions:
REMARK  status: ('A' for Active; 'I' for Inactive)
REMARK    1  A    between atoms: C_8  and  C_5 
REMARK    2  A    between atoms: S_22  and  C_6 
REMARK    3  A    between atoms: C_9  and  C_7 
REMARK    4  A    between atoms: C_12  and  C_9 
REMARK    5  A    between atoms: C_25  and  S_22 
REMARK    6  A    between atoms: O_24  and  C_26 
REMARK    7  A    between atoms: C_27  and  O_24 
REMARK    8  A    between atoms: C_26  and  C_25 
ROOT
ATOM      1  C   UNL d   1     -54.886-101.152 -43.946  0.00  0.00     0.082 A 
ATOM      2  N   UNL d   1     -54.992-100.345 -44.165  0.00  0.00    -0.238 NA
ATOM      3  C   UNL d   1     -54.992 -99.984 -42.756  0.00  0.00     0.092 A 
ATOM      4  C   UNL d   1     -54.836-101.354 -43.148  0.00  0.00     0.019 A 
ATOM      5  C   UNL d   1     -54.888-100.777 -42.557  0.00  0.00     0.019 A 
ATOM      6  C   UNL d   1     -55.045 -99.769 -43.577  0.00  0.00     0.120 A 
ATOM      7  C   UNL d   1     -54.816-101.839 -44.398  0.00  0.00     0.018 A 
ATOM      8  C   UNL d   1     -55.044 -99.400 -42.144  0.00  0.00     0.103 C 
ATOM      9  N   UNL d   1     -55.096 -98.822 -41.538  0.00  0.00    -0.191 NA
ATOM     10  C   UNL d   1     -54.734-102.172 -43.109  0.00  0.00     0.002 A 
ATOM     11  C   UNL d   1     -54.721-102.479 -43.884  0.00  0.00     0.002 A 
ENDROOT
BRANCH   5  12
ATOM     12  C   UNL d   1     -54.835-100.999 -41.753  0.00  0.00     0.030 A 
ATOM     13  S   UNL d   1     -54.752-100.423 -41.187  0.00  0.00    -0.086 SA
ATOM     14  C   UNL d   1     -54.713-100.783 -40.452  0.00  0.00     0.035 A 
ATOM     15  C   UNL d   1     -54.775-101.588 -40.582  0.00  0.00     0.007 A 
ATOM     16  C   UNL d   1     -54.850-101.712 -41.388  0.00  0.00     0.007 A 
ENDBRANCH   5  12
BRANCH   6  17
ATOM     17  S   UNL d   1     -55.148 -98.980 -43.790  0.00  0.00    -0.065 SA
BRANCH  17  18
ATOM     18  C   UNL d   1     -55.610 -98.780 -44.453  0.00  0.00     0.064 C 
BRANCH  18  19
ATOM     19  C   UNL d   1     -56.064 -99.372 -44.853  0.00  0.00     0.130 C 
BRANCH  19  20
ATOM     20  O   UNL d   1     -56.876 -99.431 -44.697  0.00  0.00    -0.303 OA
BRANCH  20  21
ATOM     21  C   UNL d   1     -57.280 -98.767 -44.362  0.00  0.00     0.123 C 
ATOM     22  C   UNL d   1     -57.438 -98.755 -43.569  0.00  0.00     0.029 C 
ENDBRANCH  20  21
ENDBRANCH  19  20
ENDBRANCH  18  19
ENDBRANCH  17  18
ENDBRANCH   6  17
BRANCH   7  23
ATOM     23  C   UNL d   1     -54.836-101.902 -45.243  0.00  0.00     0.008 C 
BRANCH  23  24
ATOM     24  C   UNL d   1     -55.485-102.273 -45.611  0.00  0.00     0.029 A 
ATOM     25  S   UNL d   1     -56.232-102.449 -45.338  0.00  0.00    -0.086 SA
ATOM     26  C   UNL d   1     -56.635-102.822 -45.960  0.00  0.00     0.035 A 
ATOM     27  C   UNL d   1     -56.127-102.862 -46.585  0.00  0.00     0.007 A 
ATOM     28  C   UNL d   1     -55.422-102.533 -46.389  0.00  0.00     0.007 A 
ENDBRANCH  23  24
ENDBRANCH   7  23
TORSDOF 8
ENDMDL
MODEL 2
REMARK VINA RESULT:      89.5      1.228      3.540
REMARK  8 active torsions:
REMARK  status: ('A' for Active; 'I' for Inactive)
REMARK    1  A    between atoms: C_8  and  C_5 
REMARK    2  A    between atoms: S_22  and  C_6 
REMARK    3  A    between atoms: C_9  and  C_7 
REMARK    4  A    between atoms: C_12  and  C_9 
REMARK    5  A    between atoms: C_25  and  S_22 
REMARK    6  A    between atoms: O_24  and  C_26 
REMARK    7  A    between atoms: C_27  and  O_24 
REMARK    8  A    between atoms: C_26  and  C_25 
ROOT
ATOM      1  C   UNL d   1     -55.429-101.008 -42.600  0.00  0.00     0.082 A 
ATOM      2  N   UNL d   1     -55.642-100.192 -42.600  0.00  0.00    -0.238 NA
ATOM      3  C   UNL d   1     -55.604-100.201 -44.053  0.00  0.00     0.092 A 
ATOM      4  C   UNL d   1     -55.310-101.396 -43.318  0.00  0.00     0.019 A 
ATOM      5  C   UNL d   1     -55.396-100.998 -44.039  0.00  0.00     0.019 A 
ATOM      6  C   UNL d   1     -55.728 -99.795 -43.317  0.00  0.00     0.120 A 
ATOM      7  C   UNL d   1     -55.305-101.544 -41.986  0.00  0.00     0.018 A 
ATOM      8  C   UNL d   1     -55.689 -99.802 -44.796  0.00  0.00     0.103 C 
ATOM      9  N   UNL d   1     -55.774 -99.407 -45.531  0.00  0.00    -0.191 NA
ATOM     10  C   UNL d   1     -55.111-102.177 -43.143  0.00  0.00     0.002 A 
ATOM     11  C   UNL d   1     -55.106-102.275 -42.315  0.00  0.00     0.002 A 
ENDROOT
BRANCH   5  12
ATOM     12  C   UNL d   1     -55.272-101.407 -44.757  0.00  0.00     0.030 A 
ATOM     13  S   UNL d   1     -55.365-102.214 -44.775  0.00  0.00    -0.086 SA
ATOM     14  C   UNL d   1     -55.213-102.478 -45.536  0.00  0.00     0.035 A 
ATOM     15  C   UNL d   1     -55.025-101.816 -45.979  0.00  0.00     0.007 A 
ATOM     16  C   UNL d   1     -55.064-101.161 -45.490  0.00  0.00     0.007 A 
ENDBRANCH   5  12
BRANCH   6  17
ATOM     17  S   UNL d   1     -55.936 -98.997 -43.316  0.00  0.00    -0.065 SA
BRANCH  17  18
ATOM     18  C   UNL d   1     -56.678 -98.756 -43.027  0.00  0.00     0.064 C 
BRANCH  18  19
ATOM     19  C   UNL d   1     -57.389 -99.084 -43.346  0.00  0.00     0.130 C 
BRANCH  19  20
ATOM     20  O   UNL d   1     -57.873 -99.550 -42.859  0.00  0.00    -0.303 OA
BRANCH  20  21
ATOM     21  C   UNL d   1     -58.710 -99.532 -42.974  0.00  0.00     0.123 C 
ATOM     22  C   UNL d   1     -59.050 -98.893 -43.335  0.00  0.00     0.029 C 
ENDBRANCH  20  21
ENDBRANCH  19  20
ENDBRANCH  18  19
ENDBRANCH  17  18
ENDBRANCH   6  17
BRANCH   7  23
ATOM     23  C   UNL d   1     -55.365-101.394 -41.154  0.00  0.00     0.008 C 
BRANCH  23  24
ATOM     24  C   UNL d   1     -55.741-101.953 -40.663  0.00  0.00     0.029 A 
ATOM     25  S   UNL d   1     -56.521-102.180 -40.601  0.00  0.00    -0.086 SA
ATOM     26  C   UNL d   1     -56.558-102.762 -40.013  0.00  0.00     0.035 A 
ATOM     27  C   UNL d   1     -55.808-102.872 -39.737  0.00  0.00     0.007 A 
ATOM     28  C   UNL d   1     -55.299-102.387 -40.122  0.00  0.00     0.007 A 
ENDBRANCH  23  24
ENDBRANCH   7  23
TORSDOF 8
ENDMDL
