MODEL 1
REMARK VINA RESULT:      40.6      0.000      0.000
REMARK  3 active torsions:
REMARK  status: ('A' for Active; 'I' for Inactive)
REMARK    1  A    between atoms: N_2  and  C_1 
REMARK       I    between atoms: C_4  and  N_2 
REMARK    2  A    between atoms: C_8  and  C_4 
REMARK    3  A    between atoms: C_10  and  C_5 
ROOT
ATOM      1  C   UNL d   1      13.528  12.885  -3.505  0.00  0.00     0.197 A 
ATOM      2  N   UNL d   1      13.893  13.008  -2.790  0.00  0.00    -0.221 NA
ATOM      3  C   UNL d   1      13.738  12.293  -2.339  0.00  0.00     0.090 A 
ATOM      4  S   UNL d   1      13.155  12.144  -3.534  0.00  0.00    -0.046 SA
ATOM      5  C   UNL d   1      13.283  11.779  -2.822  0.00  0.00     0.058 A 
ENDROOT
BRANCH   1   6
ATOM      6  N   UNL d   1      13.527  13.445  -4.143  0.00  0.00    -0.183 NA
ATOM      7  C   UNL d   1      13.501  14.267  -3.953  0.00  0.00     0.281 C 
ATOM      8  O   UNL d   1      13.477  14.517  -3.163  0.00  0.00    -0.265 OA
BRANCH   7   9
ATOM      9  C   UNL d   1      13.499  14.839  -4.548  0.00  0.00     0.058 A 
ATOM     10  C   UNL d   1      12.784  15.049  -4.881  0.00  0.00     0.006 A 
ATOM     11  C   UNL d   1      12.772  15.629  -5.486  0.00  0.00     0.012 A 
ATOM     12  C   UNL d   1      13.461  15.990  -5.748  0.00  0.00     0.058 A 
ATOM     13  C   UNL d   1      14.192  15.766  -5.398  0.00  0.00     0.012 A 
ATOM     14 CL   UNL d   1      13.472  16.517  -6.294  0.00  0.00    -0.082 Cl
ATOM     15  C   UNL d   1      14.204  15.188  -4.796  0.00  0.00     0.006 A 
ENDBRANCH   7   9
ENDBRANCH   1   6
BRANCH   3  16
ATOM     16  C   UNL d   1      13.982  12.124  -1.576  0.00  0.00     0.018 A 
ATOM     17  C   UNL d   1      13.438  12.044  -0.961  0.00  0.00     0.002 A 
ATOM     18  C   UNL d   1      13.687  11.871  -0.182  0.00  0.00     0.000 A 
ATOM     19  C   UNL d   1      14.503  11.779  -0.036  0.00  0.00     0.000 A 
ATOM     20  C   UNL d   1      15.040  11.859  -0.650  0.00  0.00     0.000 A 
ATOM     21  C   UNL d   1      14.775  12.032  -1.424  0.00  0.00     0.002 A 
ENDBRANCH   3  16
TORSDOF 3
ENDMDL
