MODEL 1
REMARK VINA RESULT:      -7.0      0.000      0.000
REMARK  4 active torsions:
REMARK  status: ('A' for Active; 'I' for Inactive)
REMARK    1  A    between atoms: C_3  and  C_1 
REMARK    2  A    between atoms: C_7  and  C_3 
REMARK    3  A    between atoms: N_9  and  C_4 
REMARK    4  A    between atoms: C_8  and  C_7 
ROOT
ATOM      1  C   UNL d   1     -48.035  12.478  23.356  0.00  0.00     0.106 C 
ATOM      2  C   UNL d   1     -47.882  11.708  23.499  0.00  0.00     0.104 C 
ATOM      3  N   UNL d   1     -47.737  10.909  23.640  0.00  0.00    -0.191 NA
ENDROOT
BRANCH   1   4
ATOM      4  C   UNL d   1     -48.724  12.723  22.973  0.00  0.00     0.172 A 
ATOM      5  N   UNL d   1     -48.996  12.502  22.252  0.00  0.00    -0.225 NA
ATOM      6  C   UNL d   1     -49.703  12.887  22.097  0.00  0.00     0.101 A 
ATOM      7  C   UNL d   1     -50.226  12.875  21.452  0.00  0.00     0.021 A 
ATOM      8  C   UNL d   1     -49.862  13.362  22.758  0.00  0.00     0.101 A 
ATOM      9  C   UNL d   1     -50.910  13.332  21.453  0.00  0.00     0.002 A 
ATOM     10  C   UNL d   1     -51.064  13.814  22.130  0.00  0.00     0.002 A 
ATOM     11  C   UNL d   1     -50.542  13.825  22.775  0.00  0.00     0.021 A 
ATOM     12  N   UNL d   1     -49.252  13.254  23.292  0.00  0.00    -0.225 NA
ENDBRANCH   1   4
BRANCH   1  13
ATOM     13  C   UNL d   1     -47.492  13.058  23.596  0.00  0.00     0.038 C 
BRANCH  13  14
ATOM     14  C   UNL d   1     -46.764  13.141  23.205  0.00  0.00     0.103 A 
ATOM     15  O   UNL d   1     -46.163  12.604  23.030  0.00  0.00    -0.290 OA
ATOM     16  C   UNL d   1     -45.578  13.011  22.634  0.00  0.00     0.168 A 
ATOM     17  C   UNL d   1     -45.801  13.784  22.560  0.00  0.00     0.045 A 
ATOM     18  C   UNL d   1     -46.538  13.877  22.912  0.00  0.00     0.028 A 
BRANCH  16  19
ATOM     19  N   UNL d   1     -44.859  12.735  22.335  0.00  0.00    -0.281 N 
ATOM     20  C   UNL d   1     -44.525  12.058  22.638  0.00  0.00     0.109 A 
ATOM     21  C   UNL d   1     -43.807  11.782  22.339  0.00  0.00     0.142 A 
ATOM     22  O   UNL d   1     -43.439  12.200  21.738  0.00  0.00    -0.300 OA
ATOM     23  C   UNL d   1     -43.769  12.881  21.429  0.00  0.00     0.142 A 
ATOM     24  C   UNL d   1     -44.488  13.151  21.732  0.00  0.00     0.109 A 
ENDBRANCH  16  19
ENDBRANCH  13  14
ENDBRANCH   1  13
TORSDOF 4
ENDMDL
MODEL 2
REMARK VINA RESULT:      -7.0      1.140      1.700
REMARK  4 active torsions:
REMARK  status: ('A' for Active; 'I' for Inactive)
REMARK    1  A    between atoms: C_3  and  C_1 
REMARK    2  A    between atoms: C_7  and  C_3 
REMARK    3  A    between atoms: N_9  and  C_4 
REMARK    4  A    between atoms: C_8  and  C_7 
ROOT
ATOM      1  C   UNL d   1     -48.892  12.609  23.110  0.00  0.00     0.106 C 
ATOM      2  C   UNL d   1     -49.029  12.126  22.490  0.00  0.00     0.104 C 
ATOM      3  N   UNL d   1     -49.181  11.639  21.843  0.00  0.00    -0.191 NA
ENDROOT
BRANCH   1   4
ATOM      4  C   UNL d   1     -49.277  13.334  23.195  0.00  0.00     0.172 A 
ATOM      5  N   UNL d   1     -48.996  14.067  23.035  0.00  0.00    -0.225 NA
ATOM      6  C   UNL d   1     -49.573  14.624  23.202  0.00  0.00     0.101 A 
ATOM      7  C   UNL d   1     -49.596  15.453  23.146  0.00  0.00     0.021 A 
ATOM      8  C   UNL d   1     -50.234  14.204  23.476  0.00  0.00     0.101 A 
ATOM      9  C   UNL d   1     -50.270  15.873  23.359  0.00  0.00     0.002 A 
ATOM     10  C   UNL d   1     -50.938  15.437  23.637  0.00  0.00     0.002 A 
ATOM     11  C   UNL d   1     -50.916  14.610  23.693  0.00  0.00     0.021 A 
ATOM     12  N   UNL d   1     -50.041  13.409  23.467  0.00  0.00    -0.225 NA
ENDBRANCH   1   4
BRANCH   1  13
ATOM     13  C   UNL d   1     -48.347  12.385  23.695  0.00  0.00     0.038 C 
BRANCH  13  14
ATOM     14  C   UNL d   1     -47.563  12.200  23.492  0.00  0.00     0.103 A 
ATOM     15  O   UNL d   1     -46.977  12.624  23.095  0.00  0.00    -0.290 OA
ATOM     16  C   UNL d   1     -46.313  12.151  23.061  0.00  0.00     0.168 A 
ATOM     17  C   UNL d   1     -46.474  11.448  23.425  0.00  0.00     0.045 A 
ATOM     18  C   UNL d   1     -47.249  11.467  23.697  0.00  0.00     0.028 A 
BRANCH  16  19
ATOM     19  N   UNL d   1     -45.575  12.309  22.725  0.00  0.00    -0.281 N 
ATOM     20  C   UNL d   1     -44.931  11.857  22.926  0.00  0.00     0.109 A 
ATOM     21  C   UNL d   1     -44.193  12.015  22.591  0.00  0.00     0.142 A 
ATOM     22  O   UNL d   1     -44.124  12.632  22.055  0.00  0.00    -0.300 OA
ATOM     23  C   UNL d   1     -44.769  13.090  21.848  0.00  0.00     0.142 A 
ATOM     24  C   UNL d   1     -45.503  12.926  22.188  0.00  0.00     0.109 A 
ENDBRANCH  16  19
ENDBRANCH  13  14
ENDBRANCH   1  13
TORSDOF 4
ENDMDL
MODEL 3
REMARK VINA RESULT:      -6.8      1.386      5.021
REMARK  4 active torsions:
REMARK  status: ('A' for Active; 'I' for Inactive)
REMARK    1  A    between atoms: C_3  and  C_1 
REMARK    2  A    between atoms: C_7  and  C_3 
REMARK    3  A    between atoms: N_9  and  C_4 
REMARK    4  A    between atoms: C_8  and  C_7 
ROOT
ATOM      1  C   UNL d   1     -46.485  13.260  23.064  0.00  0.00     0.106 C 
ATOM      2  C   UNL d   1     -46.735  14.015  23.003  0.00  0.00     0.104 C 
ATOM      3  N   UNL d   1     -46.977  14.800  22.932  0.00  0.00    -0.191 NA
ENDROOT
BRANCH   1   4
ATOM      4  C   UNL d   1     -45.758  13.013  22.763  0.00  0.00     0.172 A 
ATOM      5  N   UNL d   1     -45.301  12.402  23.010  0.00  0.00    -0.225 NA
ATOM      6  C   UNL d   1     -44.624  12.363  22.548  0.00  0.00     0.101 A 
ATOM      7  C   UNL d   1     -43.966  11.856  22.547  0.00  0.00     0.021 A 
ATOM      8  C   UNL d   1     -44.680  12.981  21.997  0.00  0.00     0.101 A 
ATOM      9  C   UNL d   1     -43.357  11.955  22.003  0.00  0.00     0.002 A 
ATOM     10  C   UNL d   1     -43.421  12.587  21.446  0.00  0.00     0.002 A 
ATOM     11  C   UNL d   1     -44.078  13.093  21.446  0.00  0.00     0.021 A 
ATOM     12  N   UNL d   1     -45.382  13.375  22.139  0.00  0.00    -0.225 NA
ENDBRANCH   1   4
BRANCH   1  13
ATOM     13  C   UNL d   1     -46.966  12.696  23.439  0.00  0.00     0.038 C 
BRANCH  13  14
ATOM     14  C   UNL d   1     -47.732  12.541  23.159  0.00  0.00     0.103 A 
ATOM     15  O   UNL d   1     -48.292  13.013  22.780  0.00  0.00    -0.290 OA
ATOM     16  C   UNL d   1     -48.948  12.550  22.637  0.00  0.00     0.168 A 
ATOM     17  C   UNL d   1     -48.808  11.805  22.918  0.00  0.00     0.045 A 
ATOM     18  C   UNL d   1     -48.054  11.787  23.245  0.00  0.00     0.028 A 
BRANCH  16  19
ATOM     19  N   UNL d   1     -49.661  12.752  22.273  0.00  0.00    -0.281 N 
ATOM     20  C   UNL d   1     -50.281  13.031  22.718  0.00  0.00     0.109 A 
ATOM     21  C   UNL d   1     -50.994  13.233  22.354  0.00  0.00     0.142 A 
ATOM     22  O   UNL d   1     -51.064  13.147  21.542  0.00  0.00    -0.300 OA
ATOM     23  C   UNL d   1     -50.444  12.867  21.088  0.00  0.00     0.142 A 
ATOM     24  C   UNL d   1     -49.734  12.667  21.459  0.00  0.00     0.109 A 
ENDBRANCH  16  19
ENDBRANCH  13  14
ENDBRANCH   1  13
TORSDOF 4
ENDMDL
MODEL 4
REMARK VINA RESULT:      -6.2      7.221      9.141
REMARK  4 active torsions:
REMARK  status: ('A' for Active; 'I' for Inactive)
REMARK    1  A    between atoms: C_3  and  C_1 
REMARK    2  A    between atoms: C_7  and  C_3 
REMARK    3  A    between atoms: N_9  and  C_4 
REMARK    4  A    between atoms: C_8  and  C_7 
ROOT
ATOM      1  C   UNL d   1     -40.504  15.044  20.750  0.00  0.00     0.106 C 
ATOM      2  C   UNL d   1     -41.096  14.510  20.719  0.00  0.00     0.104 C 
ATOM      3  N   UNL d   1     -41.702  13.952  20.700  0.00  0.00    -0.191 NA
ENDROOT
BRANCH   1   4
ATOM      4  C   UNL d   1     -39.949  15.047  21.361  0.00  0.00     0.172 A 
ATOM      5  N   UNL d   1     -39.492  14.440  21.619  0.00  0.00    -0.225 NA
ATOM      6  C   UNL d   1     -39.021  14.697  22.239  0.00  0.00     0.101 A 
ATOM      7  C   UNL d   1     -38.452  14.321  22.713  0.00  0.00     0.021 A 
ATOM      8  C   UNL d   1     -39.205  15.498  22.357  0.00  0.00     0.101 A 
ATOM      9  C   UNL d   1     -38.059  14.732  23.308  0.00  0.00     0.002 A 
ATOM     10  C   UNL d   1     -38.252  15.547  23.422  0.00  0.00     0.002 A 
ATOM     11  C   UNL d   1     -38.821  15.922  22.949  0.00  0.00     0.021 A 
ATOM     12  N   UNL d   1     -39.777  15.703  21.811  0.00  0.00    -0.225 NA
ENDBRANCH   1   4
BRANCH   1  13
ATOM     13  C   UNL d   1     -40.435  15.619  20.155  0.00  0.00     0.038 C 
BRANCH  13  14
ATOM     14  C   UNL d   1     -40.269  15.398  19.372  0.00  0.00     0.103 A 
ATOM     15  O   UNL d   1     -39.735  14.860  19.048  0.00  0.00    -0.290 OA
ATOM     16  C   UNL d   1     -39.825  14.882  18.238  0.00  0.00     0.168 A 
ATOM     17  C   UNL d   1     -40.400  15.419  18.054  0.00  0.00     0.045 A 
ATOM     18  C   UNL d   1     -40.684  15.747  18.752  0.00  0.00     0.028 A 
BRANCH  16  19
ATOM     19  N   UNL d   1     -39.426  14.454  17.655  0.00  0.00    -0.281 N 
ATOM     20  C   UNL d   1     -39.165  14.827  16.982  0.00  0.00     0.109 A 
ATOM     21  C   UNL d   1     -38.766  14.398  16.400  0.00  0.00     0.142 A 
ATOM     22  O   UNL d   1     -38.640  13.596  16.513  0.00  0.00    -0.300 OA
ATOM     23  C   UNL d   1     -38.900  13.215  17.188  0.00  0.00     0.142 A 
ATOM     24  C   UNL d   1     -39.298  13.650  17.765  0.00  0.00     0.109 A 
ENDBRANCH  16  19
ENDBRANCH  13  14
ENDBRANCH   1  13
TORSDOF 4
ENDMDL
MODEL 5
REMARK VINA RESULT:      -4.4      8.382      9.596
REMARK  4 active torsions:
REMARK  status: ('A' for Active; 'I' for Inactive)
REMARK    1  A    between atoms: C_3  and  C_1 
REMARK    2  A    between atoms: C_7  and  C_3 
REMARK    3  A    between atoms: N_9  and  C_4 
REMARK    4  A    between atoms: C_8  and  C_7 
ROOT
ATOM      1  C   UNL d   1     -38.650  14.394  20.112  0.00  0.00     0.106 C 
ATOM      2  C   UNL d   1     -38.303  15.018  19.756  0.00  0.00     0.104 C 
ATOM      3  N   UNL d   1     -37.940  15.668  19.403  0.00  0.00    -0.191 NA
ENDROOT
BRANCH   1   4
ATOM      4  C   UNL d   1     -38.628  14.289  20.930  0.00  0.00     0.172 A 
ATOM      5  N   UNL d   1     -38.903  14.780  21.501  0.00  0.00    -0.225 NA
ATOM      6  C   UNL d   1     -38.763  14.449  22.237  0.00  0.00     0.101 A 
ATOM      7  C   UNL d   1     -38.923  14.701  23.012  0.00  0.00     0.021 A 
ATOM      8  C   UNL d   1     -38.385  13.723  22.101  0.00  0.00     0.101 A 
ATOM      9  C   UNL d   1     -38.712  14.239  23.660  0.00  0.00     0.002 A 
ATOM     10  C   UNL d   1     -38.328  13.501  23.512  0.00  0.00     0.002 A 
ATOM     11  C   UNL d   1     -38.168  13.249  22.738  0.00  0.00     0.021 A 
ATOM     12  N   UNL d   1     -38.308  13.634  21.292  0.00  0.00    -0.225 NA
ENDBRANCH   1   4
BRANCH   1  13
ATOM     13  C   UNL d   1     -39.047  13.827  19.654  0.00  0.00     0.038 C 
BRANCH  13  14
ATOM     14  C   UNL d   1     -39.622  14.058  19.102  0.00  0.00     0.103 A 
ATOM     15  O   UNL d   1     -39.617  14.615  18.493  0.00  0.00    -0.290 OA
ATOM     16  C   UNL d   1     -40.349  14.595  18.136  0.00  0.00     0.168 A 
ATOM     17  C   UNL d   1     -40.807  14.042  18.507  0.00  0.00     0.045 A 
ATOM     18  C   UNL d   1     -40.365  13.701  19.110  0.00  0.00     0.028 A 
BRANCH  16  19
ATOM     19  N   UNL d   1     -40.633  15.040  17.500  0.00  0.00    -0.281 N 
ATOM     20  C   UNL d   1     -40.204  15.086  16.812  0.00  0.00     0.109 A 
ATOM     21  C   UNL d   1     -40.488  15.531  16.176  0.00  0.00     0.142 A 
ATOM     22  O   UNL d   1     -41.204  15.922  16.253  0.00  0.00    -0.300 OA
ATOM     23  C   UNL d   1     -41.641  15.879  16.943  0.00  0.00     0.142 A 
ATOM     24  C   UNL d   1     -41.351  15.433  17.574  0.00  0.00     0.109 A 
ENDBRANCH  16  19
ENDBRANCH  13  14
ENDBRANCH   1  13
TORSDOF 4
ENDMDL
