MODEL 1
REMARK VINA RESULT:     -10.7      0.000      0.000
REMARK  5 active torsions:
REMARK  status: ('A' for Active; 'I' for Inactive)
REMARK    1  A    between atoms: N_6  and  S_1 
REMARK    2  A    between atoms: C_11  and  S_1 
REMARK    3  A    between atoms: C_2  and  N_8 
REMARK    4  A    between atoms: C_10  and  C_3 
REMARK       I    between atoms: N_8  and  C_9 
REMARK    5  A    between atoms: C_9  and  C_17 
REMARK       I    between atoms: N_26  and  C_10 
ROOT
ATOM      1  N   UNL d   1      49.168  35.093  52.773  0.00  0.00    -0.201 NA
ATOM      2  C   UNL d   1      49.611  34.519  52.358  0.00  0.00     0.280 C 
ATOM      3  O   UNL d   1      49.300  34.186  51.663  0.00  0.00    -0.265 OA
ENDROOT
BRANCH   2   4
ATOM      4  C   UNL d   1      50.353  34.291  52.646  0.00  0.00     0.058 A 
ATOM      5  C   UNL d   1      51.025  34.612  52.290  0.00  0.00     0.005 A 
ATOM      6  C   UNL d   1      51.774  34.391  52.571  0.00  0.00     0.013 A 
ATOM      7  C   UNL d   1      51.840  33.855  53.199  0.00  0.00     0.104 A 
ATOM      8  C   UNL d   1      51.152  33.543  53.544  0.00  0.00     0.013 A 
ATOM      9  C   UNL d   1      50.408  33.768  53.259  0.00  0.00     0.005 A 
BRANCH   7  10
ATOM     10  S   UNL d   1      52.581  33.635  53.477  0.00  0.00     0.271 S 
ATOM     11  O   UNL d   1      52.256  33.060  53.960  0.00  0.00    -0.200 OA
ATOM     12  O   UNL d   1      52.903  34.223  52.982  0.00  0.00    -0.200 OA
BRANCH  10  13
ATOM     13  N   UNL d   1      53.314  33.420  53.751  0.00  0.00    -0.231 N 
ATOM     14  C   UNL d   1      53.659  33.810  54.383  0.00  0.00     0.075 A 
ATOM     15  C   UNL d   1      53.257  34.433  54.750  0.00  0.00     0.020 C 
ATOM     16  C   UNL d   1      54.399  33.587  54.654  0.00  0.00     0.018 A 
ATOM     17  C   UNL d   1      54.802  32.964  54.288  0.00  0.00     0.003 A 
ATOM     18  C   UNL d   1      54.460  32.574  53.657  0.00  0.00     0.020 A 
ATOM     19  C   UNL d   1      53.724  32.805  53.398  0.00  0.00     0.092 A 
ENDBRANCH  10  13
ENDBRANCH   7  10
ENDBRANCH   2   4
BRANCH   1  20
ATOM     20  C   UNL d   1      48.425  35.318  52.480  0.00  0.00     0.119 A 
ATOM     21  C   UNL d   1      47.897  35.816  52.875  0.00  0.00     0.082 A 
ATOM     22  C   UNL d   1      47.226  35.905  52.407  0.00  0.00     0.016 A 
ATOM     23  C   UNL d   1      46.534  36.330  52.517  0.00  0.00     0.020 A 
ATOM     24  C   UNL d   1      47.336  35.464  51.720  0.00  0.00     0.049 A 
ATOM     25  C   UNL d   1      45.944  36.314  51.937  0.00  0.00     0.080 A 
ATOM     26  N   UNL d   1      46.048  35.873  51.246  0.00  0.00    -0.301 N 
ATOM     27  C   UNL d   1      46.749  35.450  51.145  0.00  0.00     0.087 A 
ATOM     28  C   UNL d   1      45.467  35.858  50.675  0.00  0.00     0.100 C 
ATOM     29  S   UNL d   1      48.083  35.100  51.769  0.00  0.00    -0.066 SA
BRANCH  21  30
ATOM     30  C   UNL d   1      48.011  36.167  53.609  0.00  0.00     0.281 C 
ATOM     31  O   UNL d   1      48.600  36.709  53.697  0.00  0.00    -0.265 OA
ATOM     32  N   UNL d   1      47.526  35.962  54.243  0.00  0.00    -0.205 NA
ATOM     33  C   UNL d   1      47.630  36.305  54.983  0.00  0.00     0.123 C 
ENDBRANCH  21  30
ENDBRANCH   1  20
TORSDOF 5
ENDMDL
