MODEL 1
REMARK VINA RESULT:     124.5      0.000      0.000
REMARK  6 active torsions:
REMARK  status: ('A' for Active; 'I' for Inactive)
REMARK    1  A    between atoms: N_8  and  S_1 
REMARK    2  A    between atoms: C_10  and  S_1 
REMARK    3  A    between atoms: C_2  and  N_6 
REMARK       I    between atoms: N_6  and  C_9 
REMARK    4  A    between atoms: C_9  and  C_15 
REMARK    5  A    between atoms: O_26  and  C_13 
REMARK    6  A    between atoms: O_27  and  C_14 
ROOT
ATOM      1  N   UNL d   1      61.226  49.699  49.806  0.00  0.00    -0.183 NA
ATOM      2  C   UNL d   1      61.650  49.022  49.583  0.00  0.00     0.281 C 
ATOM      3  O   UNL d   1      62.260  49.090  49.034  0.00  0.00    -0.265 OA
ENDROOT
BRANCH   2   4
ATOM      4  C   UNL d   1      61.454  48.307  49.911  0.00  0.00     0.058 A 
ATOM      5  C   UNL d   1      60.855  47.847  49.594  0.00  0.00     0.005 A 
ATOM      6  C   UNL d   1      60.658  47.121  49.928  0.00  0.00     0.013 A 
ATOM      7  C   UNL d   1      61.069  46.851  50.594  0.00  0.00     0.104 A 
ATOM      8  C   UNL d   1      61.676  47.310  50.919  0.00  0.00     0.013 A 
ATOM      9  C   UNL d   1      61.867  48.037  50.577  0.00  0.00     0.005 A 
BRANCH   7  10
ATOM     10  S   UNL d   1      60.873  46.122  50.931  0.00  0.00     0.272 S 
ATOM     11  O   UNL d   1      61.630  46.079  51.269  0.00  0.00    -0.200 OA
ATOM     12  O   UNL d   1      60.124  46.171  50.593  0.00  0.00    -0.200 OA
BRANCH  10  13
ATOM     13  N   UNL d   1      60.675  45.397  51.266  0.00  0.00    -0.225 N 
ATOM     14  C   UNL d   1      61.152  45.066  51.843  0.00  0.00     0.118 A 
ATOM     15  C   UNL d   1      60.945  44.338  52.173  0.00  0.00     0.142 A 
ATOM     16  O   UNL d   1      60.270  43.952  51.925  0.00  0.00    -0.300 OA
ATOM     17  C   UNL d   1      59.792  44.287  51.345  0.00  0.00     0.142 A 
ATOM     18  C   UNL d   1      59.993  45.006  51.016  0.00  0.00     0.118 A 
ENDBRANCH  10  13
ENDBRANCH   7  10
ENDBRANCH   2   4
BRANCH   1  19
ATOM     19  C   UNL d   1      60.604  49.641  50.362  0.00  0.00     0.197 A 
ATOM     20  N   UNL d   1      59.803  49.547  50.189  0.00  0.00    -0.218 NA
ATOM     21  C   UNL d   1      59.394  49.515  50.900  0.00  0.00     0.114 A 
ATOM     22  C   UNL d   1      58.596  49.429  51.078  0.00  0.00     0.112 A 
ATOM     23  C   UNL d   1      59.942  49.589  51.511  0.00  0.00     0.074 A 
ATOM     24  C   UNL d   1      58.339  49.416  51.862  0.00  0.00     0.028 A 
ATOM     25  C   UNL d   1      58.898  49.491  52.473  0.00  0.00     0.027 A 
ATOM     26  C   UNL d   1      59.694  49.577  52.299  0.00  0.00     0.102 A 
ATOM     27  S   UNL d   1      60.693  49.667  51.168  0.00  0.00    -0.045 SA
BRANCH  22  28
ATOM     28  O   UNL d   1      58.033  49.354  50.464  0.00  0.00    -0.327 OA
ATOM     29  C   UNL d   1      57.248  49.172  50.643  0.00  0.00     0.181 C 
ENDBRANCH  22  28
BRANCH  26  30
ATOM     30  O   UNL d   1      60.256  49.653  52.913  0.00  0.00    -0.328 OA
ATOM     31  C   UNL d   1      60.005  49.705  53.695  0.00  0.00     0.181 C 
ENDBRANCH  26  30
ENDBRANCH   1  19
TORSDOF 6
ENDMDL
