MODEL 1
REMARK VINA RESULT:     -10.5      0.000      0.000
REMARK  4 active torsions:
REMARK  status: ('A' for Active; 'I' for Inactive)
REMARK    1  A    between atoms: C_6  and  C_1 
REMARK    2  A    between atoms: C_4  and  C_2 
REMARK    3  A    between atoms: C_3  and  N_5 
REMARK    4  A    between atoms: N_5  and  C_7 
ROOT
ATOM      1  C   UNL d   1      53.261  29.767  53.983  0.00  0.00     0.073 A 
ATOM      2  C   UNL d   1      53.564  31.088  53.548  0.00  0.00     0.081 A 
ATOM      3  C   UNL d   1      53.612  30.496  54.119  0.00  0.00     0.023 A 
ATOM      4  C   UNL d   1      52.863  29.628  53.282  0.00  0.00     0.004 A 
ATOM      5  C   UNL d   1      52.815  30.222  52.709  0.00  0.00     0.002 A 
ATOM      6  C   UNL d   1      53.165  30.950  52.842  0.00  0.00     0.019 A 
ENDROOT
BRANCH   2   7
ATOM      7  N   UNL d   1      53.914  31.819  53.679  0.00  0.00    -0.245 NA
BRANCH   7   8
ATOM      8  C   UNL d   1      53.434  32.483  53.787  0.00  0.00     0.087 A 
ATOM      9  C   UNL d   1      53.713  33.126  54.229  0.00  0.00     0.082 A 
ATOM     10  C   UNL d   1      53.237  33.791  54.339  0.00  0.00     0.008 A 
ATOM     11  C   UNL d   1      52.480  33.819  54.008  0.00  0.00     0.000 A 
ATOM     12  C   UNL d   1      52.197  33.182  53.566  0.00  0.00     0.002 A 
ATOM     13  C   UNL d   1      52.674  32.512  53.454  0.00  0.00     0.019 A 
BRANCH   9  14
ATOM     14  C   UNL d   1      54.477  33.100  54.564  0.00  0.00     0.212 C 
ATOM     15  O   UNL d   1      54.558  32.932  55.365  0.00  0.00    -0.644 OA
ATOM     16  O   UNL d   1      55.132  33.242  54.092  0.00  0.00    -0.644 OA
ENDBRANCH   9  14
ENDBRANCH   7   8
ENDBRANCH   2   7
BRANCH   1  17
ATOM     17  C   UNL d   1      53.309  29.175  54.554  0.00  0.00     0.419 C 
ATOM     18  F   UNL d   1      53.813  28.524  54.439  0.00  0.00    -0.166 F 
ATOM     19  F   UNL d   1      52.856  29.225  55.246  0.00  0.00    -0.166 F 
ATOM     20  F   UNL d   1      53.502  28.494  54.984  0.00  0.00    -0.166 F 
ENDBRANCH   1  17
TORSDOF 4
ENDMDL
MODEL 2
REMARK VINA RESULT:      -9.8      2.727      3.996
REMARK  4 active torsions:
REMARK  status: ('A' for Active; 'I' for Inactive)
REMARK    1  A    between atoms: C_6  and  C_1 
REMARK    2  A    between atoms: C_4  and  C_2 
REMARK    3  A    between atoms: C_3  and  N_5 
REMARK    4  A    between atoms: N_5  and  C_7 
ROOT
ATOM      1  C   UNL d   1      51.135  34.176  52.790  0.00  0.00     0.073 A 
ATOM      2  C   UNL d   1      52.411  33.698  53.202  0.00  0.00     0.081 A 
ATOM      3  C   UNL d   1      51.603  33.786  53.339  0.00  0.00     0.023 A 
ATOM      4  C   UNL d   1      51.469  34.477  52.107  0.00  0.00     0.004 A 
ATOM      5  C   UNL d   1      52.280  34.388  51.969  0.00  0.00     0.002 A 
ATOM      6  C   UNL d   1      52.750  33.999  52.516  0.00  0.00     0.019 A 
ENDROOT
BRANCH   2   7
ATOM      7  N   UNL d   1      52.883  33.308  53.749  0.00  0.00    -0.245 NA
BRANCH   7   8
ATOM      8  C   UNL d   1      53.074  32.513  53.625  0.00  0.00     0.087 A 
ATOM      9  C   UNL d   1      53.706  32.172  54.038  0.00  0.00     0.082 A 
ATOM     10  C   UNL d   1      53.900  31.379  53.917  0.00  0.00     0.008 A 
ATOM     11  C   UNL d   1      53.465  30.922  53.383  0.00  0.00     0.000 A 
ATOM     12  C   UNL d   1      52.835  31.257  52.969  0.00  0.00     0.002 A 
ATOM     13  C   UNL d   1      52.637  32.054  53.089  0.00  0.00     0.019 A 
BRANCH   9  14
ATOM     14  C   UNL d   1      54.147  32.631  54.578  0.00  0.00     0.212 C 
ATOM     15  O   UNL d   1      54.819  33.024  54.314  0.00  0.00    -0.644 OA
ATOM     16  O   UNL d   1      53.905  32.683  55.360  0.00  0.00    -0.644 OA
ENDBRANCH   9  14
ENDBRANCH   7   8
ENDBRANCH   2   7
BRANCH   1  17
ATOM     17  C   UNL d   1      50.327  34.264  52.927  0.00  0.00     0.419 C 
ATOM     18  F   UNL d   1      50.036  34.964  53.266  0.00  0.00    -0.166 F 
ATOM     19  F   UNL d   1      49.802  33.656  52.727  0.00  0.00    -0.166 F 
ATOM     20  F   UNL d   1      49.581  34.549  53.142  0.00  0.00    -0.166 F 
ENDBRANCH   1  17
TORSDOF 4
ENDMDL
MODEL 3
REMARK VINA RESULT:      -9.5      2.347      3.048
REMARK  4 active torsions:
REMARK  status: ('A' for Active; 'I' for Inactive)
REMARK    1  A    between atoms: C_6  and  C_1 
REMARK    2  A    between atoms: C_4  and  C_2 
REMARK    3  A    between atoms: C_3  and  N_5 
REMARK    4  A    between atoms: N_5  and  C_7 
ROOT
ATOM      1  C   UNL d   1      53.962  32.434  54.309  0.00  0.00     0.073 A 
ATOM      2  C   UNL d   1      53.111  32.598  53.179  0.00  0.00     0.081 A 
ATOM      3  C   UNL d   1      53.547  32.924  53.798  0.00  0.00     0.023 A 
ATOM      4  C   UNL d   1      53.943  31.623  54.205  0.00  0.00     0.004 A 
ATOM      5  C   UNL d   1      53.505  31.296  53.584  0.00  0.00     0.002 A 
ATOM      6  C   UNL d   1      53.091  31.782  53.073  0.00  0.00     0.019 A 
ENDROOT
BRANCH   2   7
ATOM      7  N   UNL d   1      52.695  33.083  52.665  0.00  0.00    -0.245 NA
BRANCH   7   8
ATOM      8  C   UNL d   1      51.923  33.308  52.858  0.00  0.00     0.087 A 
ATOM      9  C   UNL d   1      51.615  34.019  52.564  0.00  0.00     0.082 A 
ATOM     10  C   UNL d   1      50.845  34.248  52.754  0.00  0.00     0.008 A 
ATOM     11  C   UNL d   1      50.378  33.768  53.239  0.00  0.00     0.000 A 
ATOM     12  C   UNL d   1      50.679  33.059  53.534  0.00  0.00     0.002 A 
ATOM     13  C   UNL d   1      51.453  32.827  53.345  0.00  0.00     0.019 A 
BRANCH   9  14
ATOM     14  C   UNL d   1      52.085  34.506  52.074  0.00  0.00     0.212 C 
ATOM     15  O   UNL d   1      52.023  34.432  51.259  0.00  0.00    -0.644 OA
ATOM     16  O   UNL d   1      52.599  35.047  52.414  0.00  0.00    -0.644 OA
ENDBRANCH   9  14
ENDBRANCH   7   8
ENDBRANCH   2   7
BRANCH   1  17
ATOM     17  C   UNL d   1      54.398  32.760  54.927  0.00  0.00     0.419 C 
ATOM     18  F   UNL d   1      55.122  33.138  54.773  0.00  0.00    -0.166 F 
ATOM     19  F   UNL d   1      54.118  32.712  55.706  0.00  0.00    -0.166 F 
ATOM     20  F   UNL d   1      54.974  33.141  55.384  0.00  0.00    -0.166 F 
ENDBRANCH   1  17
TORSDOF 4
ENDMDL
MODEL 4
REMARK VINA RESULT:      -9.4      2.969      4.018
REMARK  4 active torsions:
REMARK  status: ('A' for Active; 'I' for Inactive)
REMARK    1  A    between atoms: C_6  and  C_1 
REMARK    2  A    between atoms: C_4  and  C_2 
REMARK    3  A    between atoms: C_3  and  N_5 
REMARK    4  A    between atoms: N_5  and  C_7 
ROOT
ATOM      1  C   UNL d   1      51.071  34.123  52.768  0.00  0.00     0.073 A 
ATOM      2  C   UNL d   1      52.271  33.431  53.098  0.00  0.00     0.081 A 
ATOM      3  C   UNL d   1      51.474  33.586  53.240  0.00  0.00     0.023 A 
ATOM      4  C   UNL d   1      51.460  34.504  52.158  0.00  0.00     0.004 A 
ATOM      5  C   UNL d   1      52.259  34.348  52.015  0.00  0.00     0.002 A 
ATOM      6  C   UNL d   1      52.664  33.813  52.484  0.00  0.00     0.019 A 
ENDROOT
BRANCH   2   7
ATOM      7  N   UNL d   1      52.678  32.894  53.567  0.00  0.00    -0.245 NA
BRANCH   7   8
ATOM      8  C   UNL d   1      53.226  33.174  54.119  0.00  0.00     0.087 A 
ATOM      9  C   UNL d   1      53.825  32.673  54.394  0.00  0.00     0.082 A 
ATOM     10  C   UNL d   1      54.375  32.948  54.945  0.00  0.00     0.008 A 
ATOM     11  C   UNL d   1      54.330  33.725  55.224  0.00  0.00     0.000 A 
ATOM     12  C   UNL d   1      53.735  34.228  54.952  0.00  0.00     0.002 A 
ATOM     13  C   UNL d   1      53.181  33.954  54.398  0.00  0.00     0.019 A 
BRANCH   9  14
ATOM     14  C   UNL d   1      53.874  31.887  54.115  0.00  0.00     0.212 C 
ATOM     15  O   UNL d   1      54.359  31.720  53.474  0.00  0.00    -0.644 OA
ATOM     16  O   UNL d   1      53.438  31.298  54.483  0.00  0.00    -0.644 OA
ENDBRANCH   9  14
ENDBRANCH   7   8
ENDBRANCH   2   7
BRANCH   1  17
ATOM     17  C   UNL d   1      50.275  34.278  52.910  0.00  0.00     0.419 C 
ATOM     18  F   UNL d   1      50.047  34.987  53.278  0.00  0.00    -0.166 F 
ATOM     19  F   UNL d   1      49.697  33.728  52.687  0.00  0.00    -0.166 F 
ATOM     20  F   UNL d   1      49.556  34.620  53.138  0.00  0.00    -0.166 F 
ENDBRANCH   1  17
TORSDOF 4
ENDMDL
MODEL 5
REMARK VINA RESULT:      -9.2      1.785      2.285
REMARK  4 active torsions:
REMARK  status: ('A' for Active; 'I' for Inactive)
REMARK    1  A    between atoms: C_6  and  C_1 
REMARK    2  A    between atoms: C_4  and  C_2 
REMARK    3  A    between atoms: C_3  and  N_5 
REMARK    4  A    between atoms: N_5  and  C_7 
ROOT
ATOM      1  C   UNL d   1      53.245  30.883  53.360  0.00  0.00     0.073 A 
ATOM      2  C   UNL d   1      53.009  32.259  53.081  0.00  0.00     0.081 A 
ATOM      3  C   UNL d   1      52.722  31.497  53.208  0.00  0.00     0.023 A 
ATOM      4  C   UNL d   1      54.049  31.027  53.386  0.00  0.00     0.004 A 
ATOM      5  C   UNL d   1      54.337  31.792  53.259  0.00  0.00     0.002 A 
ATOM      6  C   UNL d   1      53.818  32.406  53.107  0.00  0.00     0.019 A 
ENDROOT
BRANCH   2   7
ATOM      7  N   UNL d   1      52.490  32.876  52.929  0.00  0.00    -0.245 NA
BRANCH   7   8
ATOM      8  C   UNL d   1      52.534  33.564  53.386  0.00  0.00     0.087 A 
ATOM      9  C   UNL d   1      52.027  34.199  53.225  0.00  0.00     0.082 A 
ATOM     10  C   UNL d   1      52.068  34.887  53.679  0.00  0.00     0.008 A 
ATOM     11  C   UNL d   1      52.616  34.946  54.296  0.00  0.00     0.000 A 
ATOM     12  C   UNL d   1      53.123  34.316  54.460  0.00  0.00     0.002 A 
ATOM     13  C   UNL d   1      53.084  33.623  54.005  0.00  0.00     0.019 A 
BRANCH   9  14
ATOM     14  C   UNL d   1      51.473  34.143  52.603  0.00  0.00     0.212 C 
ATOM     15  O   UNL d   1      50.713  33.875  52.767  0.00  0.00    -0.644 OA
ATOM     16  O   UNL d   1      51.694  34.354  51.843  0.00  0.00    -0.644 OA
ENDBRANCH   9  14
ENDBRANCH   7   8
ENDBRANCH   2   7
BRANCH   1  17
ATOM     17  C   UNL d   1      52.958  30.121  53.487  0.00  0.00     0.419 C 
ATOM     18  F   UNL d   1      52.619  29.693  52.859  0.00  0.00    -0.166 F 
ATOM     19  F   UNL d   1      53.005  29.777  54.239  0.00  0.00    -0.166 F 
ATOM     20  F   UNL d   1      52.621  29.370  53.399  0.00  0.00    -0.166 F 
ENDBRANCH   1  17
TORSDOF 4
ENDMDL
