MODEL 1
REMARK VINA RESULT:      -2.4      0.000      0.000
REMARK  5 active torsions:
REMARK  status: ('A' for Active; 'I' for Inactive)
REMARK    1  A    between atoms: N_2  and  S_1 
REMARK    2  A    between atoms: C_5  and  S_1 
REMARK    3  A    between atoms: C_3  and  N_2 
REMARK    4  A    between atoms: C_4  and  C_3 
REMARK       I    between atoms: N_8  and  C_4 
REMARK    5  A    between atoms: C_12  and  N_8 
ROOT
ATOM      1  N   UNL d   1      32.779  18.860 -22.872  0.00  0.00    -0.223 N 
ATOM      2  C   UNL d   1      33.240  18.522 -22.274  0.00  0.00     0.112 C 
ENDROOT
BRANCH   1   3
ATOM      3  S   UNL d   1      32.786  18.527 -23.626  0.00  0.00     0.272 S 
ATOM      4  O   UNL d   1      33.114  18.945 -24.259  0.00  0.00    -0.200 OA
ATOM      5  O   UNL d   1      32.517  18.283 -22.887  0.00  0.00    -0.200 OA
BRANCH   3   6
ATOM      6  C   UNL d   1      32.467  17.774 -23.752  0.00  0.00     0.104 A 
ATOM      7  C   UNL d   1      31.673  17.688 -23.968  0.00  0.00     0.013 A 
ATOM      8  C   UNL d   1      31.359  16.928 -24.093  0.00  0.00     0.001 A 
ATOM      9  C   UNL d   1      31.837  16.262 -24.001  0.00  0.00     0.000 A 
ATOM     10  C   UNL d   1      32.630  16.348 -23.785  0.00  0.00     0.001 A 
ATOM     11  C   UNL d   1      31.522  15.510 -24.126  0.00  0.00     0.000 C 
ATOM     12  C   UNL d   1      32.945  17.100 -23.660  0.00  0.00     0.013 A 
ENDBRANCH   3   6
ENDBRANCH   1   3
BRANCH   1  13
ATOM     13  C   UNL d   1      32.318  19.525 -22.712  0.00  0.00     0.154 C 
BRANCH  13  14
ATOM     14  C   UNL d   1      32.572  20.078 -22.155  0.00  0.00     0.298 C 
ATOM     15  N   UNL d   1      32.189  20.809 -22.100  0.00  0.00    -0.207 NA
ATOM     16  O   UNL d   1      33.207  19.901 -21.656  0.00  0.00    -0.264 OA
BRANCH  15  17
ATOM     17  C   UNL d   1      32.444  21.362 -21.544  0.00  0.00     0.085 A 
ATOM     18  C   UNL d   1      32.984  21.939 -21.757  0.00  0.00     0.019 A 
ATOM     19  C   UNL d   1      33.239  22.493 -21.201  0.00  0.00     0.002 A 
ATOM     20  C   UNL d   1      32.949  22.463 -20.429  0.00  0.00     0.000 A 
ATOM     21  C   UNL d   1      32.403  21.879 -20.217  0.00  0.00     0.002 A 
ATOM     22  C   UNL d   1      32.154  21.331 -20.776  0.00  0.00     0.019 A 
ENDBRANCH  15  17
ENDBRANCH  13  14
ENDBRANCH   1  13
TORSDOF 5
ENDMDL
MODEL 2
REMARK VINA RESULT:       0.0      2.281      5.058
REMARK  5 active torsions:
REMARK  status: ('A' for Active; 'I' for Inactive)
REMARK    1  A    between atoms: N_2  and  S_1 
REMARK    2  A    between atoms: C_5  and  S_1 
REMARK    3  A    between atoms: C_3  and  N_2 
REMARK    4  A    between atoms: C_4  and  C_3 
REMARK       I    between atoms: N_8  and  C_4 
REMARK    5  A    between atoms: C_12  and  N_8 
ROOT
ATOM      1  N   UNL d   1      31.836  16.767 -24.313  0.00  0.00    -0.223 N 
ATOM      2  C   UNL d   1      31.383  17.090 -24.925  0.00  0.00     0.112 C 
ENDROOT
BRANCH   1   3
ATOM      3  S   UNL d   1      32.612  17.023 -24.205  0.00  0.00     0.272 S 
ATOM      4  O   UNL d   1      33.241  16.507 -24.352  0.00  0.00    -0.200 OA
ATOM      5  O   UNL d   1      31.871  17.369 -24.117  0.00  0.00    -0.200 OA
BRANCH   3   6
ATOM      6  C   UNL d   1      32.764  17.795 -23.950  0.00  0.00     0.104 A 
ATOM      7  C   UNL d   1      32.737  17.982 -23.144  0.00  0.00     0.013 A 
ATOM      8  C   UNL d   1      32.891  18.760 -22.896  0.00  0.00     0.001 A 
ATOM      9  C   UNL d   1      33.071  19.344 -23.449  0.00  0.00     0.000 A 
ATOM     10  C   UNL d   1      33.099  19.158 -24.254  0.00  0.00     0.001 A 
ATOM     11  C   UNL d   1      33.224  20.115 -23.199  0.00  0.00     0.000 C 
ATOM     12  C   UNL d   1      32.946  18.387 -24.505  0.00  0.00     0.013 A 
ENDBRANCH   3   6
ENDBRANCH   1   3
BRANCH   1  13
ATOM     13  C   UNL d   1      31.511  16.193 -23.818  0.00  0.00     0.154 C 
BRANCH  13  14
ATOM     14  C   UNL d   1      30.704  16.025 -23.857  0.00  0.00     0.298 C 
ATOM     15  N   UNL d   1      30.265  15.958 -23.160  0.00  0.00    -0.207 NA
ATOM     16  O   UNL d   1      30.338  15.924 -24.592  0.00  0.00    -0.264 OA
BRANCH  15  17
ATOM     17  C   UNL d   1      29.459  15.790 -23.199  0.00  0.00     0.085 A 
ATOM     18  C   UNL d   1      29.026  15.693 -22.511  0.00  0.00     0.019 A 
ATOM     19  C   UNL d   1      28.219  15.524 -22.551  0.00  0.00     0.002 A 
ATOM     20  C   UNL d   1      27.850  15.454 -23.285  0.00  0.00     0.000 A 
ATOM     21  C   UNL d   1      28.290  15.553 -23.977  0.00  0.00     0.002 A 
ATOM     22  C   UNL d   1      29.092  15.720 -23.931  0.00  0.00     0.019 A 
ENDBRANCH  15  17
ENDBRANCH  13  14
ENDBRANCH   1  13
TORSDOF 5
ENDMDL
