MODEL 1
REMARK VINA RESULT:      -5.9      0.000      0.000
REMARK  3 active torsions:
REMARK  status: ('A' for Active; 'I' for Inactive)
REMARK    1  A    between atoms: C_2  and  S_1 
REMARK    2  A    between atoms: N_3  and  S_1 
REMARK    3  A    between atoms: C_10  and  N_3 
ROOT
ATOM      1  S   UNL d   1      57.608   0.465  30.951  0.00  0.00     0.285 S 
ATOM      2  O   UNL d   1      58.098   0.539  31.631  0.00  0.00    -0.198 OA
ATOM      3  O   UNL d   1      57.140   0.387  30.275  0.00  0.00    -0.198 OA
ENDROOT
BRANCH   1   4
ATOM      4  C   UNL d   1      58.273   0.246  30.494  0.00  0.00     0.107 A 
ATOM      5  C   UNL d   1      58.238  -0.416  29.999  0.00  0.00     0.040 A 
ATOM      6  C   UNL d   1      58.893  -0.613  29.563  0.00  0.00     0.123 A 
ATOM      7  O   UNL d   1      58.878  -1.266  29.066  0.00  0.00    -0.301 OA
ATOM      8  C   UNL d   1      59.590  -0.148  29.617  0.00  0.00     0.123 A 
ATOM      9  C   UNL d   1      59.556  -1.457  28.625  0.00  0.00     0.149 A 
ATOM     10  C   UNL d   1      60.209  -1.021  28.676  0.00  0.00     0.149 A 
ATOM     11  O   UNL d   1      60.246  -0.354  29.173  0.00  0.00    -0.301 OA
ATOM     12  C   UNL d   1      59.606   0.496  30.106  0.00  0.00     0.028 A 
ATOM     13  C   UNL d   1      58.926   0.682  30.545  0.00  0.00     0.015 A 
ENDBRANCH   1   4
BRANCH   1  14
ATOM     14  N   UNL d   1      56.935   0.680  31.389  0.00  0.00    -0.158 NA
BRANCH  14  15
ATOM     15  C   UNL d   1      56.614   0.126  31.933  0.00  0.00     0.094 A 
ATOM     16  C   UNL d   1      56.249   0.411  32.623  0.00  0.00     0.020 A 
ATOM     17  C   UNL d   1      55.930  -0.139  33.163  0.00  0.00     0.002 A 
ATOM     18  C   UNL d   1      55.557   0.131  33.867  0.00  0.00     0.000 C 
ATOM     19  C   UNL d   1      55.979  -0.948  33.009  0.00  0.00     0.000 A 
ATOM     20  C   UNL d   1      56.348  -1.192  32.315  0.00  0.00     0.002 A 
ATOM     21  C   UNL d   1      56.659  -0.664  31.789  0.00  0.00     0.020 A 
ENDBRANCH  14  15
ENDBRANCH   1  14
TORSDOF 3
ENDMDL
MODEL 2
REMARK VINA RESULT:      -5.8      1.202      4.225
REMARK  3 active torsions:
REMARK  status: ('A' for Active; 'I' for Inactive)
REMARK    1  A    between atoms: C_2  and  S_1 
REMARK    2  A    between atoms: N_3  and  S_1 
REMARK    3  A    between atoms: C_10  and  N_3 
ROOT
ATOM      1  S   UNL d   1      57.783  -0.140  30.262  0.00  0.00     0.285 S 
ATOM      2  O   UNL d   1      57.852  -0.977  30.321  0.00  0.00    -0.198 OA
ATOM      3  O   UNL d   1      57.707   0.682  30.219  0.00  0.00    -0.198 OA
ENDROOT
BRANCH   1   4
ATOM      4  C   UNL d   1      57.390  -0.119  31.000  0.00  0.00     0.107 A 
ATOM      5  C   UNL d   1      57.022  -0.799  31.295  0.00  0.00     0.040 A 
ATOM      6  C   UNL d   1      56.645  -0.758  32.013  0.00  0.00     0.123 A 
ATOM      7  O   UNL d   1      56.274  -1.422  32.322  0.00  0.00    -0.301 OA
ATOM      8  C   UNL d   1      56.634  -0.038  32.442  0.00  0.00     0.123 A 
ATOM      9  C   UNL d   1      55.893  -1.368  33.058  0.00  0.00     0.149 A 
ATOM     10  C   UNL d   1      55.882  -0.692  33.461  0.00  0.00     0.149 A 
ATOM     11  O   UNL d   1      56.252  -0.006  33.165  0.00  0.00    -0.301 OA
ATOM     12  C   UNL d   1      56.999   0.617  32.138  0.00  0.00     0.028 A 
ATOM     13  C   UNL d   1      57.379   0.557  31.403  0.00  0.00     0.015 A 
ENDBRANCH   1   4
BRANCH   1  14
ATOM     14  N   UNL d   1      58.171  -0.141  29.527  0.00  0.00    -0.158 NA
BRANCH  14  15
ATOM     15  C   UNL d   1      59.009  -0.198  29.515  0.00  0.00     0.094 A 
ATOM     16  C   UNL d   1      59.356  -0.902  29.242  0.00  0.00     0.020 A 
ATOM     17  C   UNL d   1      60.189  -0.960  29.230  0.00  0.00     0.002 A 
ATOM     18  C   UNL d   1      60.556  -1.664  28.956  0.00  0.00     0.000 C 
ATOM     19  C   UNL d   1      60.652  -0.327  29.485  0.00  0.00     0.000 A 
ATOM     20  C   UNL d   1      60.272   0.354  29.749  0.00  0.00     0.002 A 
ATOM     21  C   UNL d   1      59.467   0.415  29.763  0.00  0.00     0.020 A 
ENDBRANCH  14  15
ENDBRANCH   1  14
TORSDOF 3
ENDMDL
MODEL 3
REMARK VINA RESULT:      -4.8      1.456      2.378
REMARK  3 active torsions:
REMARK  status: ('A' for Active; 'I' for Inactive)
REMARK    1  A    between atoms: C_2  and  S_1 
REMARK    2  A    between atoms: N_3  and  S_1 
REMARK    3  A    between atoms: C_10  and  N_3 
ROOT
ATOM      1  S   UNL d   1      56.302  -0.679  32.689  0.00  0.00     0.285 S 
ATOM      2  O   UNL d   1      55.717  -0.879  32.118  0.00  0.00    -0.198 OA
ATOM      3  O   UNL d   1      56.885  -0.478  33.238  0.00  0.00    -0.198 OA
ENDROOT
BRANCH   1   4
ATOM      4  C   UNL d   1      56.801  -0.395  32.082  0.00  0.00     0.107 A 
ATOM      5  C   UNL d   1      57.045  -0.899  31.473  0.00  0.00     0.040 A 
ATOM      6  C   UNL d   1      57.529  -0.604  30.892  0.00  0.00     0.123 A 
ATOM      7  O   UNL d   1      57.781  -1.089  30.280  0.00  0.00    -0.301 OA
ATOM      8  C   UNL d   1      57.774   0.198  30.916  0.00  0.00     0.123 A 
ATOM      9  C   UNL d   1      58.277  -0.775  29.692  0.00  0.00     0.149 A 
ATOM     10  C   UNL d   1      58.507  -0.023  29.714  0.00  0.00     0.149 A 
ATOM     11  O   UNL d   1      58.263   0.487  30.326  0.00  0.00    -0.301 OA
ATOM     12  C   UNL d   1      57.526   0.677  31.519  0.00  0.00     0.028 A 
ATOM     13  C   UNL d   1      57.031   0.358  32.104  0.00  0.00     0.015 A 
ENDBRANCH   1   4
BRANCH   1  14
ATOM     14  N   UNL d   1      55.820  -0.957  33.307  0.00  0.00    -0.158 NA
BRANCH  14  15
ATOM     15  C   UNL d   1      55.355  -0.404  33.735  0.00  0.00     0.094 A 
ATOM     16  C   UNL d   1      55.628  -0.143  34.475  0.00  0.00     0.020 A 
ATOM     17  C   UNL d   1      55.167   0.407  34.901  0.00  0.00     0.002 A 
ATOM     18  C   UNL d   1      55.428   0.682  35.651  0.00  0.00     0.000 C 
ATOM     19  C   UNL d   1      54.455   0.681  34.588  0.00  0.00     0.000 A 
ATOM     20  C   UNL d   1      54.217   0.400  33.852  0.00  0.00     0.002 A 
ATOM     21  C   UNL d   1      54.660  -0.132  33.436  0.00  0.00     0.020 A 
ENDBRANCH  14  15
ENDBRANCH   1  14
TORSDOF 3
ENDMDL
MODEL 4
REMARK VINA RESULT:      -4.5      9.318      9.754
REMARK  3 active torsions:
REMARK  status: ('A' for Active; 'I' for Inactive)
REMARK    1  A    between atoms: C_2  and  S_1 
REMARK    2  A    between atoms: N_3  and  S_1 
REMARK    3  A    between atoms: C_10  and  N_3 
ROOT
ATOM      1  S   UNL d   1      59.465  -9.456  34.327  0.00  0.00     0.285 S 
ATOM      2  O   UNL d   1      58.668  -9.355  34.574  0.00  0.00    -0.198 OA
ATOM      3  O   UNL d   1      60.244  -9.557  34.068  0.00  0.00    -0.198 OA
ENDROOT
BRANCH   1   4
ATOM      4  C   UNL d   1      59.212  -9.530  33.533  0.00  0.00     0.107 A 
ATOM      5  C   UNL d   1      58.406  -9.602  33.359  0.00  0.00     0.040 A 
ATOM      6  C   UNL d   1      58.179  -9.673  32.583  0.00  0.00     0.123 A 
ATOM      7  O   UNL d   1      57.385  -9.746  32.390  0.00  0.00    -0.301 OA
ATOM      8  C   UNL d   1      58.757  -9.672  31.974  0.00  0.00     0.123 A 
ATOM      9  C   UNL d   1      57.165  -9.817  31.592  0.00  0.00     0.149 A 
ATOM     10  C   UNL d   1      57.707  -9.817  31.021  0.00  0.00     0.149 A 
ATOM     11  O   UNL d   1      58.519  -9.744  31.195  0.00  0.00    -0.301 OA
ATOM     12  C   UNL d   1      59.540  -9.601  32.163  0.00  0.00     0.028 A 
ATOM     13  C   UNL d   1      59.753  -9.529  32.962  0.00  0.00     0.015 A 
ENDBRANCH   1   4
BRANCH   1  14
ATOM     14  N   UNL d   1      59.737  -9.385  35.109  0.00  0.00    -0.158 NA
BRANCH  14  15
ATOM     15  C   UNL d   1      59.728  -8.627  35.471  0.00  0.00     0.094 A 
ATOM     16  C   UNL d   1      60.436  -8.193  35.505  0.00  0.00     0.020 A 
ATOM     17  C   UNL d   1      60.426  -7.440  35.865  0.00  0.00     0.002 A 
ATOM     18  C   UNL d   1      61.133  -6.987  35.907  0.00  0.00     0.000 C 
ATOM     19  C   UNL d   1      59.726  -7.139  36.179  0.00  0.00     0.000 A 
ATOM     20  C   UNL d   1      59.045  -7.599  36.127  0.00  0.00     0.002 A 
ATOM     21  C   UNL d   1      59.048  -8.327  35.780  0.00  0.00     0.020 A 
ENDBRANCH  14  15
ENDBRANCH   1  14
TORSDOF 3
ENDMDL
