MODEL 1
REMARK VINA RESULT:      -9.8      0.000      0.000
REMARK  2 active torsions:
REMARK  status: ('A' for Active; 'I' for Inactive)
REMARK    1  A    between atoms: C_8  and  C_1 
REMARK    2  A    between atoms: N_5  and  C_8 
ROOT
ATOM      1  C   UNL d   1     -47.253  13.276  22.887  0.00  0.00     0.059 A 
ATOM      2  C   UNL d   1     -46.253  12.302  23.151  0.00  0.00     0.121 A 
ATOM      3  C   UNL d   1     -46.467  13.040  22.888  0.00  0.00     0.214 A 
ATOM      4  C   UNL d   1     -46.836  11.776  23.424  0.00  0.00     0.032 A 
ATOM      5  C   UNL d   1     -47.622  12.000  23.428  0.00  0.00     0.059 A 
ATOM      6  C   UNL d   1     -47.828  12.758  23.156  0.00  0.00     0.016 A 
ATOM      7  N   UNL d   1     -45.469  12.069  23.151  0.00  0.00    -0.241 NA
ATOM      8 CL   UNL d   1     -48.200  11.480  23.698  0.00  0.00    -0.082 Cl
ATOM      9  O   UNL d   1     -45.883  13.566  22.615  0.00  0.00    -0.285 OA
ATOM     10  C   UNL d   1     -46.615  11.037  23.687  0.00  0.00     0.004 A 
ATOM     11  C   UNL d   1     -45.249  11.324  23.416  0.00  0.00     0.099 A 
ATOM     12  C   UNL d   1     -45.823  10.807  23.685  0.00  0.00     0.021 A 
ENDROOT
BRANCH   1  13
ATOM     13  C   UNL d   1     -47.470  14.034  22.616  0.00  0.00     0.084 C 
BRANCH  13  14
ATOM     14  N   UNL d   1     -48.273  14.238  22.555  0.00  0.00    -0.302 N 
ATOM     15  C   UNL d   1     -48.618  14.696  23.132  0.00  0.00     0.080 A 
ATOM     16  C   UNL d   1     -49.422  14.901  23.070  0.00  0.00     0.018 A 
ATOM     17  C   UNL d   1     -49.774  15.365  23.654  0.00  0.00     0.002 A 
ATOM     18  C   UNL d   1     -49.865  14.636  22.422  0.00  0.00     0.003 A 
ATOM     19  C   UNL d   1     -50.582  15.570  23.592  0.00  0.00     0.000 A 
ATOM     20  C   UNL d   1     -51.025  15.307  22.947  0.00  0.00     0.000 A 
ATOM     21  C   UNL d   1     -50.672  14.847  22.370  0.00  0.00     0.000 A 
ATOM     22  C   UNL d   1     -49.512  14.180  21.853  0.00  0.00     0.019 A 
ATOM     23  C   UNL d   1     -48.708  13.969  21.904  0.00  0.00     0.080 A 
ENDBRANCH  13  14
ENDBRANCH   1  13
TORSDOF 2
ENDMDL
MODEL 2
REMARK VINA RESULT:      -8.8      1.446      4.316
REMARK  2 active torsions:
REMARK  status: ('A' for Active; 'I' for Inactive)
REMARK    1  A    between atoms: C_8  and  C_1 
REMARK    2  A    between atoms: N_5  and  C_8 
ROOT
ATOM      1  C   UNL d   1     -48.664  13.274  23.102  0.00  0.00     0.059 A 
ATOM      2  C   UNL d   1     -49.770  13.895  22.461  0.00  0.00     0.121 A 
ATOM      3  C   UNL d   1     -49.131  13.934  22.962  0.00  0.00     0.214 A 
ATOM      4  C   UNL d   1     -49.956  13.177  22.086  0.00  0.00     0.032 A 
ATOM      5  C   UNL d   1     -49.498  12.512  22.219  0.00  0.00     0.059 A 
ATOM      6  C   UNL d   1     -48.847  12.566  22.732  0.00  0.00     0.016 A 
ATOM      7  N   UNL d   1     -50.233  14.553  22.323  0.00  0.00    -0.241 NA
ATOM      8 CL   UNL d   1     -49.682  11.801  21.847  0.00  0.00    -0.082 Cl
ATOM      9  O   UNL d   1     -48.945  14.653  23.338  0.00  0.00    -0.285 OA
ATOM     10  C   UNL d   1     -50.598  13.143  21.585  0.00  0.00     0.004 A 
ATOM     11  C   UNL d   1     -50.880  14.518  21.818  0.00  0.00     0.099 A 
ATOM     12  C   UNL d   1     -51.063  13.810  21.448  0.00  0.00     0.021 A 
ENDROOT
BRANCH   1  13
ATOM     13  C   UNL d   1     -48.009  13.317  23.616  0.00  0.00     0.084 C 
BRANCH  13  14
ATOM     14  N   UNL d   1     -47.276  13.003  23.381  0.00  0.00    -0.302 N 
ATOM     15  C   UNL d   1     -46.787  13.438  22.898  0.00  0.00     0.080 A 
ATOM     16  C   UNL d   1     -46.054  13.123  22.662  0.00  0.00     0.018 A 
ATOM     17  C   UNL d   1     -45.557  13.562  22.172  0.00  0.00     0.002 A 
ATOM     18  C   UNL d   1     -45.828  12.370  22.922  0.00  0.00     0.003 A 
ATOM     19  C   UNL d   1     -44.820  13.246  21.935  0.00  0.00     0.000 A 
ATOM     20  C   UNL d   1     -44.593  12.496  22.193  0.00  0.00     0.000 A 
ATOM     21  C   UNL d   1     -45.088  12.064  22.679  0.00  0.00     0.000 A 
ATOM     22  C   UNL d   1     -46.322  11.945  23.403  0.00  0.00     0.019 A 
ATOM     23  C   UNL d   1     -47.057  12.249  23.645  0.00  0.00     0.080 A 
ENDBRANCH  13  14
ENDBRANCH   1  13
TORSDOF 2
ENDMDL
MODEL 3
REMARK VINA RESULT:      -8.8      1.348      4.382
REMARK  2 active torsions:
REMARK  status: ('A' for Active; 'I' for Inactive)
REMARK    1  A    between atoms: C_8  and  C_1 
REMARK    2  A    between atoms: N_5  and  C_8 
ROOT
ATOM      1  C   UNL d   1     -48.254  13.948  22.556  0.00  0.00     0.059 A 
ATOM      2  C   UNL d   1     -49.651  14.168  22.413  0.00  0.00     0.121 A 
ATOM      3  C   UNL d   1     -48.951  14.305  22.803  0.00  0.00     0.214 A 
ATOM      4  C   UNL d   1     -49.663  13.659  21.755  0.00  0.00     0.032 A 
ATOM      5  C   UNL d   1     -48.976  13.298  21.501  0.00  0.00     0.059 A 
ATOM      6  C   UNL d   1     -48.267  13.447  21.908  0.00  0.00     0.016 A 
ATOM      7  N   UNL d   1     -50.343  14.524  22.660  0.00  0.00    -0.241 NA
ATOM      8 CL   UNL d   1     -48.988  12.795  20.850  0.00  0.00    -0.082 Cl
ATOM      9  O   UNL d   1     -48.938  14.814  23.461  0.00  0.00    -0.285 OA
ATOM     10  C   UNL d   1     -50.368  13.526  21.368  0.00  0.00     0.004 A 
ATOM     11  C   UNL d   1     -51.052  14.389  22.269  0.00  0.00     0.099 A 
ATOM     12  C   UNL d   1     -51.064  13.888  21.621  0.00  0.00     0.021 A 
ENDROOT
BRANCH   1  13
ATOM     13  C   UNL d   1     -47.537  14.090  22.958  0.00  0.00     0.084 C 
BRANCH  13  14
ATOM     14  N   UNL d   1     -46.939  13.513  22.956  0.00  0.00    -0.302 N 
ATOM     15  C   UNL d   1     -47.066  12.800  23.326  0.00  0.00     0.080 A 
ATOM     16  C   UNL d   1     -46.467  12.222  23.324  0.00  0.00     0.018 A 
ATOM     17  C   UNL d   1     -46.593  11.498  23.698  0.00  0.00     0.002 A 
ATOM     18  C   UNL d   1     -45.747  12.378  22.945  0.00  0.00     0.003 A 
ATOM     19  C   UNL d   1     -45.991  10.918  23.696  0.00  0.00     0.000 A 
ATOM     20  C   UNL d   1     -45.274  11.071  23.319  0.00  0.00     0.000 A 
ATOM     21  C   UNL d   1     -45.153  11.790  22.949  0.00  0.00     0.000 A 
ATOM     22  C   UNL d   1     -45.631  13.091  22.580  0.00  0.00     0.019 A 
ATOM     23  C   UNL d   1     -46.223  13.677  22.575  0.00  0.00     0.080 A 
ENDBRANCH  13  14
ENDBRANCH   1  13
TORSDOF 2
ENDMDL
MODEL 4
REMARK VINA RESULT:      -8.5      1.573      2.076
REMARK  2 active torsions:
REMARK  status: ('A' for Active; 'I' for Inactive)
REMARK    1  A    between atoms: C_8  and  C_1 
REMARK    2  A    between atoms: N_5  and  C_8 
ROOT
ATOM      1  C   UNL d   1     -47.043  12.641  23.318  0.00  0.00     0.059 A 
ATOM      2  C   UNL d   1     -45.716  12.296  22.943  0.00  0.00     0.121 A 
ATOM      3  C   UNL d   1     -46.417  12.110  23.312  0.00  0.00     0.214 A 
ATOM      4  C   UNL d   1     -45.632  13.032  22.566  0.00  0.00     0.032 A 
ATOM      5  C   UNL d   1     -46.249  13.568  22.566  0.00  0.00     0.059 A 
ATOM      6  C   UNL d   1     -46.959  13.366  22.947  0.00  0.00     0.016 A 
ATOM      7  N   UNL d   1     -45.094  11.766  22.937  0.00  0.00    -0.241 NA
ATOM      8 CL   UNL d   1     -46.165  14.297  22.193  0.00  0.00    -0.082 Cl
ATOM      9  O   UNL d   1     -46.501  11.373  23.689  0.00  0.00    -0.285 OA
ATOM     10  C   UNL d   1     -44.927  13.212  22.197  0.00  0.00     0.004 A 
ATOM     11  C   UNL d   1     -44.386  11.949  22.566  0.00  0.00     0.099 A 
ATOM     12  C   UNL d   1     -44.302  12.675  22.194  0.00  0.00     0.021 A 
ENDROOT
BRANCH   1  13
ATOM     13  C   UNL d   1     -47.760  12.448  23.698  0.00  0.00     0.084 C 
BRANCH  13  14
ATOM     14  N   UNL d   1     -48.474  12.476  23.274  0.00  0.00    -0.302 N 
ATOM     15  C   UNL d   1     -48.925  13.153  23.287  0.00  0.00     0.080 A 
ATOM     16  C   UNL d   1     -49.640  13.180  22.863  0.00  0.00     0.018 A 
ATOM     17  C   UNL d   1     -50.099  13.865  22.875  0.00  0.00     0.002 A 
ATOM     18  C   UNL d   1     -49.886  12.519  22.430  0.00  0.00     0.003 A 
ATOM     19  C   UNL d   1     -50.817  13.893  22.448  0.00  0.00     0.000 A 
ATOM     20  C   UNL d   1     -51.064  13.236  22.016  0.00  0.00     0.000 A 
ATOM     21  C   UNL d   1     -50.606  12.558  22.006  0.00  0.00     0.000 A 
ATOM     22  C   UNL d   1     -49.430  11.850  22.423  0.00  0.00     0.019 A 
ATOM     23  C   UNL d   1     -48.713  11.810  22.843  0.00  0.00     0.080 A 
ENDBRANCH  13  14
ENDBRANCH   1  13
TORSDOF 2
ENDMDL
MODEL 5
REMARK VINA RESULT:      -7.8      8.606     10.105
REMARK  2 active torsions:
REMARK  status: ('A' for Active; 'I' for Inactive)
REMARK    1  A    between atoms: C_8  and  C_1 
REMARK    2  A    between atoms: N_5  and  C_8 
ROOT
ATOM      1  C   UNL d   1     -39.932  14.452  17.818  0.00  0.00     0.059 A 
ATOM      2  C   UNL d   1     -39.082  14.497  16.680  0.00  0.00     0.121 A 
ATOM      3  C   UNL d   1     -39.647  14.840  17.153  0.00  0.00     0.214 A 
ATOM      4  C   UNL d   1     -38.788  13.743  16.870  0.00  0.00     0.032 A 
ATOM      5  C   UNL d   1     -39.065  13.347  17.529  0.00  0.00     0.059 A 
ATOM      6  C   UNL d   1     -39.643  13.709  18.005  0.00  0.00     0.016 A 
ATOM      7  N   UNL d   1     -38.799  14.885  16.019  0.00  0.00    -0.241 NA
ATOM      8 CL   UNL d   1     -38.774  12.600  17.717  0.00  0.00    -0.082 Cl
ATOM      9  O   UNL d   1     -39.941  15.595  16.963  0.00  0.00    -0.285 OA
ATOM     10  C   UNL d   1     -38.222  13.403  16.391  0.00  0.00     0.004 A 
ATOM     11  C   UNL d   1     -38.229  14.542  15.538  0.00  0.00     0.099 A 
ATOM     12  C   UNL d   1     -37.940  13.799  15.725  0.00  0.00     0.021 A 
ENDROOT
BRANCH   1  13
ATOM     13  C   UNL d   1     -40.511  14.806  18.302  0.00  0.00     0.084 C 
BRANCH  13  14
ATOM     14  N   UNL d   1     -40.399  14.842  19.124  0.00  0.00    -0.302 N 
ATOM     15  C   UNL d   1     -39.837  15.343  19.433  0.00  0.00     0.080 A 
ATOM     16  C   UNL d   1     -39.725  15.379  20.257  0.00  0.00     0.018 A 
ATOM     17  C   UNL d   1     -39.156  15.886  20.572  0.00  0.00     0.002 A 
ATOM     18  C   UNL d   1     -40.185  14.905  20.755  0.00  0.00     0.003 A 
ATOM     19  C   UNL d   1     -39.043  15.922  21.400  0.00  0.00     0.000 A 
ATOM     20  C   UNL d   1     -39.501  15.450  21.898  0.00  0.00     0.000 A 
ATOM     21  C   UNL d   1     -40.064  14.949  21.581  0.00  0.00     0.000 A 
ATOM     22  C   UNL d   1     -40.742  14.409  20.438  0.00  0.00     0.019 A 
ATOM     23  C   UNL d   1     -40.864  14.365  19.616  0.00  0.00     0.080 A 
ENDBRANCH  13  14
ENDBRANCH   1  13
TORSDOF 2
ENDMDL
MODEL 6
REMARK VINA RESULT:      -7.4      8.343      9.636
REMARK  2 active torsions:
REMARK  status: ('A' for Active; 'I' for Inactive)
REMARK    1  A    between atoms: C_8  and  C_1 
REMARK    2  A    between atoms: N_5  and  C_8 
ROOT
ATOM      1  C   UNL d   1     -40.474  14.784  19.482  0.00  0.00     0.059 A 
ATOM      2  C   UNL d   1     -40.514  15.296  18.157  0.00  0.00     0.121 A 
ATOM      3  C   UNL d   1     -40.754  15.327  18.934  0.00  0.00     0.214 A 
ATOM      4  C   UNL d   1     -39.979  14.708  17.914  0.00  0.00     0.032 A 
ATOM      5  C   UNL d   1     -39.694  14.163  18.452  0.00  0.00     0.059 A 
ATOM      6  C   UNL d   1     -39.947  14.205  19.243  0.00  0.00     0.016 A 
ATOM      7  N   UNL d   1     -40.794  15.837  17.612  0.00  0.00    -0.241 NA
ATOM      8 CL   UNL d   1     -39.164  13.581  18.211  0.00  0.00    -0.082 Cl
ATOM      9  O   UNL d   1     -41.289  15.915  19.177  0.00  0.00    -0.285 OA
ATOM     10  C   UNL d   1     -39.743  14.682  17.134  0.00  0.00     0.004 A 
ATOM     11  C   UNL d   1     -40.555  15.809  16.827  0.00  0.00     0.099 A 
ATOM     12  C   UNL d   1     -40.028  15.230  16.588  0.00  0.00     0.021 A 
ENDROOT
BRANCH   1  13
ATOM     13  C   UNL d   1     -40.721  14.818  20.278  0.00  0.00     0.084 C 
BRANCH  13  14
ATOM     14  N   UNL d   1     -40.156  14.838  20.887  0.00  0.00    -0.302 N 
ATOM     15  C   UNL d   1     -39.987  14.159  21.302  0.00  0.00     0.080 A 
ATOM     16  C   UNL d   1     -39.421  14.178  21.912  0.00  0.00     0.018 A 
ATOM     17  C   UNL d   1     -39.248  13.492  22.334  0.00  0.00     0.002 A 
ATOM     18  C   UNL d   1     -39.035  14.889  22.092  0.00  0.00     0.003 A 
ATOM     19  C   UNL d   1     -38.679  13.512  22.947  0.00  0.00     0.000 A 
ATOM     20  C   UNL d   1     -38.294  14.218  23.127  0.00  0.00     0.000 A 
ATOM     21  C   UNL d   1     -38.469  14.897  22.706  0.00  0.00     0.000 A 
ATOM     22  C   UNL d   1     -39.212  15.559  21.672  0.00  0.00     0.019 A 
ATOM     23  C   UNL d   1     -39.775  15.552  21.060  0.00  0.00     0.080 A 
ENDBRANCH  13  14
ENDBRANCH   1  13
TORSDOF 2
ENDMDL
MODEL 7
REMARK VINA RESULT:      -7.3      8.711     10.218
REMARK  2 active torsions:
REMARK  status: ('A' for Active; 'I' for Inactive)
REMARK    1  A    between atoms: C_8  and  C_1 
REMARK    2  A    between atoms: N_5  and  C_8 
ROOT
ATOM      1  C   UNL d   1     -39.688  14.087  17.890  0.00  0.00     0.059 A 
ATOM      2  C   UNL d   1     -38.815  13.932  16.779  0.00  0.00     0.121 A 
ATOM      3  C   UNL d   1     -39.134  13.649  17.471  0.00  0.00     0.214 A 
ATOM      4  C   UNL d   1     -39.052  14.674  16.490  0.00  0.00     0.032 A 
ATOM      5  C   UNL d   1     -39.603  15.119  16.898  0.00  0.00     0.059 A 
ATOM      6  C   UNL d   1     -39.921  14.818  17.604  0.00  0.00     0.016 A 
ATOM      7  N   UNL d   1     -38.264  13.495  16.364  0.00  0.00    -0.241 NA
ATOM      8 CL   UNL d   1     -39.837  15.854  16.611  0.00  0.00    -0.082 Cl
ATOM      9  O   UNL d   1     -38.898  12.906  17.761  0.00  0.00    -0.285 OA
ATOM     10  C   UNL d   1     -38.729  14.953  15.795  0.00  0.00     0.004 A 
ATOM     11  C   UNL d   1     -37.940  13.777  15.664  0.00  0.00     0.099 A 
ATOM     12  C   UNL d   1     -38.173  14.508  15.379  0.00  0.00     0.021 A 
ENDROOT
BRANCH   1  13
ATOM     13  C   UNL d   1     -40.014  13.794  18.599  0.00  0.00     0.084 C 
BRANCH  13  14
ATOM     14  N   UNL d   1     -40.102  14.298  19.254  0.00  0.00    -0.302 N 
ATOM     15  C   UNL d   1     -39.477  14.411  19.763  0.00  0.00     0.080 A 
ATOM     16  C   UNL d   1     -39.564  14.916  20.418  0.00  0.00     0.018 A 
ATOM     17  C   UNL d   1     -38.933  15.031  20.936  0.00  0.00     0.002 A 
ATOM     18  C   UNL d   1     -40.287  15.299  20.548  0.00  0.00     0.003 A 
ATOM     19  C   UNL d   1     -39.021  15.539  21.594  0.00  0.00     0.000 A 
ATOM     20  C   UNL d   1     -39.739  15.922  21.725  0.00  0.00     0.000 A 
ATOM     21  C   UNL d   1     -40.364  15.804  21.209  0.00  0.00     0.000 A 
ATOM     22  C   UNL d   1     -40.903  15.180  20.035  0.00  0.00     0.019 A 
ATOM     23  C   UNL d   1     -40.827  14.678  19.376  0.00  0.00     0.080 A 
ENDBRANCH  13  14
ENDBRANCH   1  13
TORSDOF 2
ENDMDL
MODEL 8
REMARK VINA RESULT:      -6.9      8.370      9.389
REMARK  2 active torsions:
REMARK  status: ('A' for Active; 'I' for Inactive)
REMARK    1  A    between atoms: C_8  and  C_1 
REMARK    2  A    between atoms: N_5  and  C_8 
ROOT
ATOM      1  C   UNL d   1     -40.064  14.851  20.787  0.00  0.00     0.059 A 
ATOM      2  C   UNL d   1     -39.439  14.195  21.882  0.00  0.00     0.121 A 
ATOM      3  C   UNL d   1     -40.046  14.247  21.344  0.00  0.00     0.214 A 
ATOM      4  C   UNL d   1     -38.829  14.758  21.871  0.00  0.00     0.032 A 
ATOM      5  C   UNL d   1     -38.836  15.363  21.321  0.00  0.00     0.059 A 
ATOM      6  C   UNL d   1     -39.462  15.406  20.776  0.00  0.00     0.016 A 
ATOM      7  N   UNL d   1     -39.423  13.594  22.435  0.00  0.00    -0.241 NA
ATOM      8 CL   UNL d   1     -38.232  15.921  21.310  0.00  0.00    -0.082 Cl
ATOM      9  O   UNL d   1     -40.658  13.683  21.355  0.00  0.00    -0.285 OA
ATOM     10  C   UNL d   1     -38.223  14.701  22.413  0.00  0.00     0.004 A 
ATOM     11  C   UNL d   1     -38.812  13.537  22.981  0.00  0.00     0.099 A 
ATOM     12  C   UNL d   1     -38.210  14.092  22.970  0.00  0.00     0.021 A 
ENDROOT
BRANCH   1  13
ATOM     13  C   UNL d   1     -40.688  14.902  20.236  0.00  0.00     0.084 C 
BRANCH  13  14
ATOM     14  N   UNL d   1     -40.521  15.042  19.434  0.00  0.00    -0.302 N 
ATOM     15  C   UNL d   1     -40.220  14.441  18.974  0.00  0.00     0.080 A 
ATOM     16  C   UNL d   1     -40.054  14.581  18.171  0.00  0.00     0.018 A 
ATOM     17  C   UNL d   1     -39.749  13.974  17.703  0.00  0.00     0.002 A 
ATOM     18  C   UNL d   1     -40.195  15.330  17.846  0.00  0.00     0.003 A 
ATOM     19  C   UNL d   1     -39.581  14.115  16.896  0.00  0.00     0.000 A 
ATOM     20  C   UNL d   1     -39.721  14.859  16.571  0.00  0.00     0.000 A 
ATOM     21  C   UNL d   1     -40.024  15.459  17.038  0.00  0.00     0.000 A 
ATOM     22  C   UNL d   1     -40.495  15.920  18.312  0.00  0.00     0.019 A 
ATOM     23  C   UNL d   1     -40.666  15.793  19.117  0.00  0.00     0.080 A 
ENDBRANCH  13  14
ENDBRANCH   1  13
TORSDOF 2
ENDMDL
