MODEL 1
REMARK VINA RESULT:      -9.0      0.000      0.000
REMARK  4 active torsions:
REMARK  status: ('A' for Active; 'I' for Inactive)
REMARK    1  A    between atoms: C_4  and  C_1 
REMARK       I    between atoms: N_7  and  C_4 
REMARK    2  A    between atoms: C_8  and  N_7 
REMARK    3  A    between atoms: O_21  and  C_13 
REMARK    4  A    between atoms: O_22  and  C_16 
ROOT
ATOM      1  C   UNL d   1      53.994  33.267  55.213  0.00  0.00     0.263 C 
ATOM      2  N   UNL d   1      53.439  33.941  55.239  0.00  0.00    -0.209 NA
ATOM      3  O   UNL d   1      54.489  33.028  55.895  0.00  0.00    -0.270 OA
ENDROOT
BRANCH   1   4
ATOM      4  C   UNL d   1      54.108  32.792  54.552  0.00  0.00     0.113 A 
ATOM      5  C   UNL d   1      53.932  31.563  53.645  0.00  0.00     0.025 A 
ATOM      6  C   UNL d   1      54.214  32.298  53.887  0.00  0.00     0.074 A 
ATOM      7  C   UNL d   1      54.169  31.252  52.935  0.00  0.00     0.002 C 
ATOM      8  C   UNL d   1      53.431  31.008  53.954  0.00  0.00     0.002 C 
ATOM      9  C   UNL d   1      54.454  31.980  53.164  0.00  0.00     0.012 C 
ATOM     10  C   UNL d   1      53.718  32.062  54.500  0.00  0.00    -0.023 A 
ATOM     11  C   UNL d   1      54.723  32.871  53.581  0.00  0.00     0.172 A 
ATOM     12  C   UNL d   1      53.617  32.537  55.140  0.00  0.00    -0.018 A 
ATOM     13  C   UNL d   1      54.611  33.344  54.236  0.00  0.00     0.024 A 
ATOM     14  O   UNL d   1      55.168  32.926  52.875  0.00  0.00    -0.291 OA
ENDBRANCH   1   4
BRANCH   2  15
ATOM     15  C   UNL d   1      52.968  34.139  54.532  0.00  0.00     0.108 A 
ATOM     16  C   UNL d   1      52.345  33.581  54.267  0.00  0.00     0.045 A 
ATOM     17  C   UNL d   1      51.871  33.780  53.556  0.00  0.00     0.096 A 
ATOM     18  C   UNL d   1      52.023  34.536  53.117  0.00  0.00     0.026 A 
ATOM     19  C   UNL d   1      52.650  35.078  53.400  0.00  0.00     0.028 A 
ATOM     20  C   UNL d   1      53.124  34.879  54.111  0.00  0.00     0.112 A 
BRANCH  17  21
ATOM     21  O   UNL d   1      51.249  33.236  53.280  0.00  0.00    -0.328 OA
ATOM     22  C   UNL d   1      50.488  33.550  52.984  0.00  0.00     0.181 C 
ENDBRANCH  17  21
BRANCH  20  23
ATOM     23  O   UNL d   1      53.752  35.421  54.395  0.00  0.00    -0.327 OA
ATOM     24  C   UNL d   1      53.579  36.279  54.444  0.00  0.00     0.181 C 
ENDBRANCH  20  23
ENDBRANCH   2  15
TORSDOF 4
ENDMDL
MODEL 2
REMARK VINA RESULT:      -8.5      1.016      2.647
REMARK  4 active torsions:
REMARK  status: ('A' for Active; 'I' for Inactive)
REMARK    1  A    between atoms: C_4  and  C_1 
REMARK       I    between atoms: N_7  and  C_4 
REMARK    2  A    between atoms: C_8  and  N_7 
REMARK    3  A    between atoms: O_21  and  C_13 
REMARK    4  A    between atoms: O_22  and  C_16 
ROOT
ATOM      1  C   UNL d   1      54.111  32.506  53.212  0.00  0.00     0.263 C 
ATOM      2  N   UNL d   1      53.430  32.811  52.759  0.00  0.00    -0.209 NA
ATOM      3  O   UNL d   1      54.672  31.913  52.893  0.00  0.00    -0.270 OA
ENDROOT
BRANCH   1   4
ATOM      4  C   UNL d   1      54.294  32.741  53.978  0.00  0.00     0.113 A 
ATOM      5  C   UNL d   1      55.019  33.530  55.081  0.00  0.00     0.025 A 
ATOM      6  C   UNL d   1      54.492  32.990  54.750  0.00  0.00     0.074 A 
ATOM      7  C   UNL d   1      55.053  33.622  55.886  0.00  0.00     0.002 C 
ATOM      8  C   UNL d   1      55.571  34.046  54.793  0.00  0.00     0.002 C 
ATOM      9  C   UNL d   1      54.527  33.085  55.570  0.00  0.00     0.012 C 
ATOM     10  C   UNL d   1      54.877  33.318  54.101  0.00  0.00    -0.023 A 
ATOM     11  C   UNL d   1      53.927  32.460  55.033  0.00  0.00     0.172 A 
ATOM     12  C   UNL d   1      54.687  33.078  53.358  0.00  0.00    -0.018 A 
ATOM     13  C   UNL d   1      53.743  32.225  54.273  0.00  0.00     0.024 A 
ATOM     14  O   UNL d   1      53.661  32.257  55.800  0.00  0.00    -0.291 OA
ENDBRANCH   1   4
BRANCH   2  15
ATOM     15  C   UNL d   1      52.899  33.401  53.121  0.00  0.00     0.108 A 
ATOM     16  C   UNL d   1      53.201  34.213  53.263  0.00  0.00     0.045 A 
ATOM     17  C   UNL d   1      52.668  34.807  53.628  0.00  0.00     0.096 A 
ATOM     18  C   UNL d   1      51.837  34.583  53.847  0.00  0.00     0.026 A 
ATOM     19  C   UNL d   1      51.558  33.767  53.696  0.00  0.00     0.028 A 
ATOM     20  C   UNL d   1      52.092  33.173  53.332  0.00  0.00     0.112 A 
BRANCH  17  21
ATOM     21  O   UNL d   1      52.952  35.617  53.775  0.00  0.00    -0.328 OA
ATOM     22  C   UNL d   1      52.678  36.060  54.476  0.00  0.00     0.181 C 
ENDBRANCH  17  21
BRANCH  20  23
ATOM     23  O   UNL d   1      51.813  32.356  53.180  0.00  0.00    -0.327 OA
ATOM     24  C   UNL d   1      50.951  32.206  53.131  0.00  0.00     0.181 C 
ENDBRANCH  20  23
ENDBRANCH   2  15
TORSDOF 4
ENDMDL
MODEL 3
REMARK VINA RESULT:      -8.4      1.109      2.864
REMARK  4 active torsions:
REMARK  status: ('A' for Active; 'I' for Inactive)
REMARK    1  A    between atoms: C_4  and  C_1 
REMARK       I    between atoms: N_7  and  C_4 
REMARK    2  A    between atoms: C_8  and  N_7 
REMARK    3  A    between atoms: O_21  and  C_13 
REMARK    4  A    between atoms: O_22  and  C_16 
ROOT
ATOM      1  C   UNL d   1      52.760  34.544  54.511  0.00  0.00     0.263 C 
ATOM      2  N   UNL d   1      53.343  33.986  54.846  0.00  0.00    -0.209 NA
ATOM      3  O   UNL d   1      52.468  35.246  54.945  0.00  0.00    -0.270 OA
ENDROOT
BRANCH   1   4
ATOM      4  C   UNL d   1      52.430  34.469  53.762  0.00  0.00     0.113 A 
ATOM      5  C   UNL d   1      51.371  34.090  52.714  0.00  0.00     0.025 A 
ATOM      6  C   UNL d   1      52.082  34.385  53.008  0.00  0.00     0.074 A 
ATOM      7  C   UNL d   1      51.226  34.104  51.917  0.00  0.00     0.002 C 
ATOM      8  C   UNL d   1      50.709  33.756  53.037  0.00  0.00     0.002 C 
ATOM      9  C   UNL d   1      51.932  34.398  52.196  0.00  0.00     0.012 C 
ATOM     10  C   UNL d   1      51.677  34.133  53.678  0.00  0.00    -0.023 A 
ATOM     11  C   UNL d   1      52.761  34.727  52.690  0.00  0.00     0.172 A 
ATOM     12  C   UNL d   1      52.012  34.213  54.405  0.00  0.00    -0.018 A 
ATOM     13  C   UNL d   1      53.091  34.803  53.433  0.00  0.00     0.024 A 
ATOM     14  O   UNL d   1      53.000  34.914  51.911  0.00  0.00    -0.291 OA
ENDBRANCH   1   4
BRANCH   2  15
ATOM     15  C   UNL d   1      53.603  33.299  54.373  0.00  0.00     0.108 A 
ATOM     16  C   UNL d   1      53.033  32.652  54.215  0.00  0.00     0.045 A 
ATOM     17  C   UNL d   1      53.295  31.962  53.740  0.00  0.00     0.096 A 
ATOM     18  C   UNL d   1      54.126  31.926  53.428  0.00  0.00     0.026 A 
ATOM     19  C   UNL d   1      54.677  32.584  53.599  0.00  0.00     0.028 A 
ATOM     20  C   UNL d   1      54.415  33.274  54.074  0.00  0.00     0.112 A 
BRANCH  17  21
ATOM     21  O   UNL d   1      52.741  31.311  53.574  0.00  0.00    -0.328 OA
ATOM     22  C   UNL d   1      52.935  30.710  52.969  0.00  0.00     0.181 C 
ENDBRANCH  17  21
BRANCH  20  23
ATOM     23  O   UNL d   1      54.967  33.933  54.246  0.00  0.00    -0.327 OA
ATOM     24  C   UNL d   1      55.789  33.745  54.481  0.00  0.00     0.181 C 
ENDBRANCH  20  23
ENDBRANCH   2  15
TORSDOF 4
ENDMDL
MODEL 4
REMARK VINA RESULT:      -8.3      1.299      2.896
REMARK  4 active torsions:
REMARK  status: ('A' for Active; 'I' for Inactive)
REMARK    1  A    between atoms: C_4  and  C_1 
REMARK       I    between atoms: N_7  and  C_4 
REMARK    2  A    between atoms: C_8  and  N_7 
REMARK    3  A    between atoms: O_21  and  C_13 
REMARK    4  A    between atoms: O_22  and  C_16 
ROOT
ATOM      1  C   UNL d   1      54.402  32.638  53.213  0.00  0.00     0.263 C 
ATOM      2  N   UNL d   1      53.803  32.300  52.673  0.00  0.00    -0.209 NA
ATOM      3  O   UNL d   1      55.259  32.642  53.034  0.00  0.00    -0.270 OA
ENDROOT
BRANCH   1   4
ATOM      4  C   UNL d   1      54.223  32.984  53.937  0.00  0.00     0.113 A 
ATOM      5  C   UNL d   1      53.921  34.122  54.925  0.00  0.00     0.025 A 
ATOM      6  C   UNL d   1      54.042  33.350  54.665  0.00  0.00     0.074 A 
ATOM      7  C   UNL d   1      53.749  34.264  55.704  0.00  0.00     0.002 C 
ATOM      8  C   UNL d   1      53.927  34.853  54.580  0.00  0.00     0.002 C 
ATOM      9  C   UNL d   1      53.867  33.497  55.459  0.00  0.00     0.012 C 
ATOM     10  C   UNL d   1      54.140  33.807  53.988  0.00  0.00    -0.023 A 
ATOM     11  C   UNL d   1      54.039  32.599  55.007  0.00  0.00     0.172 A 
ATOM     12  C   UNL d   1      54.314  33.455  53.287  0.00  0.00    -0.018 A 
ATOM     13  C   UNL d   1      54.216  32.253  54.289  0.00  0.00     0.024 A 
ATOM     14  O   UNL d   1      53.904  32.322  55.784  0.00  0.00    -0.291 OA
ENDBRANCH   1   4
BRANCH   2  15
ATOM     15  C   UNL d   1      52.960  32.320  52.897  0.00  0.00     0.108 A 
ATOM     16  C   UNL d   1      52.540  33.091  52.898  0.00  0.00     0.045 A 
ATOM     17  C   UNL d   1      51.691  33.111  53.123  0.00  0.00     0.096 A 
ATOM     18  C   UNL d   1      51.272  32.361  53.345  0.00  0.00     0.026 A 
ATOM     19  C   UNL d   1      51.712  31.604  53.337  0.00  0.00     0.028 A 
ATOM     20  C   UNL d   1      52.560  31.584  53.112  0.00  0.00     0.112 A 
BRANCH  17  21
ATOM     21  O   UNL d   1      51.260  33.868  53.129  0.00  0.00    -0.328 OA
ATOM     22  C   UNL d   1      50.698  34.060  52.488  0.00  0.00     0.181 C 
ENDBRANCH  17  21
BRANCH  20  23
ATOM     23  O   UNL d   1      53.001  30.826  53.103  0.00  0.00    -0.327 OA
ATOM     24  C   UNL d   1      52.556  30.079  52.998  0.00  0.00     0.181 C 
ENDBRANCH  20  23
ENDBRANCH   2  15
TORSDOF 4
ENDMDL
MODEL 5
REMARK VINA RESULT:      -8.0      1.401      2.733
REMARK  4 active torsions:
REMARK  status: ('A' for Active; 'I' for Inactive)
REMARK    1  A    between atoms: C_4  and  C_1 
REMARK       I    between atoms: N_7  and  C_4 
REMARK    2  A    between atoms: C_8  and  N_7 
REMARK    3  A    between atoms: O_21  and  C_13 
REMARK    4  A    between atoms: O_22  and  C_16 
ROOT
ATOM      1  C   UNL d   1      53.115  34.808  53.225  0.00  0.00     0.263 C 
ATOM      2  N   UNL d   1      52.480  34.506  52.707  0.00  0.00    -0.209 NA
ATOM      3  O   UNL d   1      53.490  35.592  53.114  0.00  0.00    -0.270 OA
ENDROOT
BRANCH   1   4
ATOM      4  C   UNL d   1      53.424  34.392  53.863  0.00  0.00     0.113 A 
ATOM      5  C   UNL d   1      54.404  33.477  54.615  0.00  0.00     0.025 A 
ATOM      6  C   UNL d   1      53.750  33.964  54.502  0.00  0.00     0.074 A 
ATOM      7  C   UNL d   1      54.544  33.149  55.343  0.00  0.00     0.002 C 
ATOM      8  C   UNL d   1      55.008  33.207  54.150  0.00  0.00     0.002 C 
ATOM      9  C   UNL d   1      53.894  33.630  55.243  0.00  0.00     0.012 C 
ATOM     10  C   UNL d   1      54.116  33.946  53.765  0.00  0.00    -0.023 A 
ATOM     11  C   UNL d   1      53.129  34.245  54.967  0.00  0.00     0.172 A 
ATOM     12  C   UNL d   1      53.802  34.358  53.150  0.00  0.00    -0.018 A 
ATOM     13  C   UNL d   1      52.821  34.659  54.335  0.00  0.00     0.024 A 
ATOM     14  O   UNL d   1      52.917  34.137  55.768  0.00  0.00    -0.291 OA
ENDBRANCH   1   4
BRANCH   2  15
ATOM     15  C   UNL d   1      52.138  33.717  52.859  0.00  0.00     0.108 A 
ATOM     16  C   UNL d   1      52.628  33.006  52.705  0.00  0.00     0.045 A 
ATOM     17  C   UNL d   1      52.285  32.212  52.858  0.00  0.00     0.096 A 
ATOM     18  C   UNL d   1      51.455  32.138  53.163  0.00  0.00     0.026 A 
ATOM     19  C   UNL d   1      50.985  32.862  53.310  0.00  0.00     0.028 A 
ATOM     20  C   UNL d   1      51.328  33.656  53.157  0.00  0.00     0.112 A 
BRANCH  17  21
ATOM     21  O   UNL d   1      52.758  31.496  52.710  0.00  0.00    -0.328 OA
ATOM     22  C   UNL d   1      52.511  30.727  53.043  0.00  0.00     0.181 C 
ENDBRANCH  17  21
BRANCH  20  23
ATOM     23  O   UNL d   1      50.858  34.381  53.303  0.00  0.00    -0.327 OA
ATOM     24  C   UNL d   1      50.022  34.402  53.044  0.00  0.00     0.181 C 
ENDBRANCH  20  23
ENDBRANCH   2  15
TORSDOF 4
ENDMDL
MODEL 6
REMARK VINA RESULT:      -6.9      1.354      3.349
REMARK  4 active torsions:
REMARK  status: ('A' for Active; 'I' for Inactive)
REMARK    1  A    between atoms: C_4  and  C_1 
REMARK       I    between atoms: N_7  and  C_4 
REMARK    2  A    between atoms: C_8  and  N_7 
REMARK    3  A    between atoms: O_21  and  C_13 
REMARK    4  A    between atoms: O_22  and  C_16 
ROOT
ATOM      1  C   UNL d   1      52.852  32.663  52.803  0.00  0.00     0.263 C 
ATOM      2  N   UNL d   1      53.557  32.832  53.290  0.00  0.00    -0.209 NA
ATOM      3  O   UNL d   1      52.838  32.048  52.180  0.00  0.00    -0.270 OA
ENDROOT
BRANCH   1   4
ATOM      4  C   UNL d   1      52.137  33.061  52.877  0.00  0.00     0.113 A 
ATOM      5  C   UNL d   1      51.052  34.097  52.539  0.00  0.00     0.025 A 
ATOM      6  C   UNL d   1      51.415  33.476  52.940  0.00  0.00     0.074 A 
ATOM      7  C   UNL d   1      50.320  34.356  52.771  0.00  0.00     0.002 C 
ATOM      8  C   UNL d   1      51.247  34.570  51.913  0.00  0.00     0.002 C 
ATOM      9  C   UNL d   1      50.669  33.740  53.175  0.00  0.00     0.012 C 
ATOM     10  C   UNL d   1      51.956  33.680  52.355  0.00  0.00    -0.023 A 
ATOM     11  C   UNL d   1      51.226  32.988  53.578  0.00  0.00     0.172 A 
ATOM     12  C   UNL d   1      52.652  33.282  52.295  0.00  0.00    -0.018 A 
ATOM     13  C   UNL d   1      51.936  32.591  53.506  0.00  0.00     0.024 A 
ATOM     14  O   UNL d   1      50.564  32.936  54.086  0.00  0.00    -0.291 OA
ENDBRANCH   1   4
BRANCH   2  15
ATOM     15  C   UNL d   1      53.521  33.456  53.899  0.00  0.00     0.108 A 
ATOM     16  C   UNL d   1      53.448  34.293  53.645  0.00  0.00     0.045 A 
ATOM     17  C   UNL d   1      53.412  34.921  54.257  0.00  0.00     0.096 A 
ATOM     18  C   UNL d   1      53.450  34.706  55.118  0.00  0.00     0.026 A 
ATOM     19  C   UNL d   1      53.523  33.865  55.347  0.00  0.00     0.028 A 
ATOM     20  C   UNL d   1      53.559  33.236  54.735  0.00  0.00     0.112 A 
BRANCH  17  21
ATOM     21  O   UNL d   1      53.339  35.756  54.022  0.00  0.00    -0.328 OA
ATOM     22  C   UNL d   1      53.144  36.367  54.616  0.00  0.00     0.181 C 
ENDBRANCH  17  21
BRANCH  20  23
ATOM     23  O   UNL d   1      53.633  32.393  54.965  0.00  0.00    -0.327 OA
ATOM     24  C   UNL d   1      54.100  32.189  55.677  0.00  0.00     0.181 C 
ENDBRANCH  20  23
ENDBRANCH   2  15
TORSDOF 4
ENDMDL
MODEL 7
REMARK VINA RESULT:      -6.5      1.177      3.584
REMARK  4 active torsions:
REMARK  status: ('A' for Active; 'I' for Inactive)
REMARK    1  A    between atoms: C_4  and  C_1 
REMARK       I    between atoms: N_7  and  C_4 
REMARK    2  A    between atoms: C_8  and  N_7 
REMARK    3  A    between atoms: O_21  and  C_13 
REMARK    4  A    between atoms: O_22  and  C_16 
ROOT
ATOM      1  C   UNL d   1      51.530  33.189  53.478  0.00  0.00     0.263 C 
ATOM      2  N   UNL d   1      51.879  32.412  53.673  0.00  0.00    -0.209 NA
ATOM      3  O   UNL d   1      50.671  33.312  53.361  0.00  0.00    -0.270 OA
ENDROOT
BRANCH   1   4
ATOM      4  C   UNL d   1      51.968  33.878  53.386  0.00  0.00     0.113 A 
ATOM      5  C   UNL d   1      52.606  35.216  53.797  0.00  0.00     0.025 A 
ATOM      6  C   UNL d   1      52.410  34.583  53.308  0.00  0.00     0.074 A 
ATOM      7  C   UNL d   1      53.064  35.821  53.513  0.00  0.00     0.002 C 
ATOM      8  C   UNL d   1      52.450  35.421  54.563  0.00  0.00     0.002 C 
ATOM      9  C   UNL d   1      52.877  35.200  53.020  0.00  0.00     0.012 C 
ATOM     10  C   UNL d   1      52.046  34.403  54.024  0.00  0.00    -0.023 A 
ATOM     11  C   UNL d   1      52.563  34.364  52.528  0.00  0.00     0.172 A 
ATOM     12  C   UNL d   1      51.621  33.725  54.099  0.00  0.00    -0.018 A 
ATOM     13  C   UNL d   1      52.129  33.679  52.617  0.00  0.00     0.024 A 
ATOM     14  O   UNL d   1      52.996  34.717  51.905  0.00  0.00    -0.291 OA
ENDBRANCH   1   4
BRANCH   2  15
ATOM     15  C   UNL d   1      52.742  32.341  53.780  0.00  0.00     0.108 A 
ATOM     16  C   UNL d   1      53.116  32.727  54.474  0.00  0.00     0.045 A 
ATOM     17  C   UNL d   1      53.985  32.655  54.582  0.00  0.00     0.096 A 
ATOM     18  C   UNL d   1      54.470  32.199  53.995  0.00  0.00     0.026 A 
ATOM     19  C   UNL d   1      54.074  31.823  53.311  0.00  0.00     0.028 A 
ATOM     20  C   UNL d   1      53.206  31.895  53.203  0.00  0.00     0.112 A 
BRANCH  17  21
ATOM     21  O   UNL d   1      54.372  33.032  55.265  0.00  0.00    -0.328 OA
ATOM     22  C   UNL d   1      55.170  33.378  55.185  0.00  0.00     0.181 C 
ENDBRANCH  17  21
BRANCH  20  23
ATOM     23  O   UNL d   1      52.809  31.518  52.517  0.00  0.00    -0.327 OA
ATOM     24  C   UNL d   1      52.980  30.677  52.340  0.00  0.00     0.181 C 
ENDBRANCH  20  23
ENDBRANCH   2  15
TORSDOF 4
ENDMDL
