MODEL 1
REMARK VINA RESULT:      89.3      0.000      0.000
REMARK  3 active torsions:
REMARK  status: ('A' for Active; 'I' for Inactive)
REMARK    1  A    between atoms: C_8  and  N_1 
REMARK    2  A    between atoms: C_9  and  C_14 
REMARK       I    between atoms: N_10  and  C_9 
REMARK    3  A    between atoms: C_16  and  N_12 
ROOT
ATOM      1  C   UNL d   1     -50.189  26.271  33.372  0.00  0.00     0.066 A 
ATOM      2  C   UNL d   1     -49.964  27.681  33.447  0.00  0.00     0.058 A 
ATOM      3  C   UNL d   1     -50.480  27.036  33.440  0.00  0.00     0.022 A 
ATOM      4  C   UNL d   1     -49.372  26.140  33.308  0.00  0.00     0.017 A 
ATOM      5  C   UNL d   1     -49.146  27.550  33.384  0.00  0.00     0.005 A 
ATOM      6  C   UNL d   1     -48.857  26.781  33.315  0.00  0.00     0.002 A 
ENDROOT
BRANCH   1   7
ATOM      7  N   UNL d   1     -50.705  25.630  33.365  0.00  0.00    -0.261 N 
ATOM      8  C   UNL d   1     -51.496  25.861  33.343  0.00  0.00     0.174 A 
ATOM      9  O   UNL d   1     -52.221  25.456  33.329  0.00  0.00    -0.316 OA
ATOM     10  C   UNL d   1     -50.974  24.721  33.367  0.00  0.00     0.079 A 
ATOM     11  C   UNL d   1     -51.754  26.640  33.330  0.00  0.00     0.055 C 
ATOM     12  C   UNL d   1     -52.452  24.665  33.331  0.00  0.00     0.094 A 
ATOM     13  C   UNL d   1     -53.283  24.670  33.311  0.00  0.00     0.024 A 
ATOM     14  C   UNL d   1     -52.053  23.941  33.347  0.00  0.00     0.022 A 
ATOM     15  C   UNL d   1     -53.702  23.960  33.307  0.00  0.00     0.002 A 
ATOM     16  C   UNL d   1     -53.296  23.239  33.324  0.00  0.00    -0.000 A 
ATOM     17  C   UNL d   1     -52.472  23.230  33.344  0.00  0.00    -0.001 A 
ATOM     18  C   UNL d   1     -51.262  23.710  33.369  0.00  0.00     0.137 A 
ATOM     19  N   UNL d   1     -50.529  24.110  33.383  0.00  0.00    -0.216 NA
ATOM     20  C   UNL d   1     -50.299  24.901  33.381  0.00  0.00     0.348 A 
ATOM     21  O   UNL d   1     -49.481  24.988  33.401  0.00  0.00    -0.245 OA
ENDBRANCH   1   7
BRANCH   2  22
ATOM     22  C   UNL d   1     -50.263  28.447  33.517  0.00  0.00     0.265 C 
ATOM     23  N   UNL d   1     -49.775  29.056  33.777  0.00  0.00    -0.269 N 
ATOM     24  C   UNL d   1     -48.985  28.911  33.971  0.00  0.00     0.102 A 
ATOM     25  C   UNL d   1     -50.077  29.827  33.846  0.00  0.00     0.102 A 
ATOM     26  C   UNL d   1     -48.504  29.526  34.230  0.00  0.00     0.100 A 
ATOM     27  N   UNL d   1     -48.806  30.295  34.299  0.00  0.00    -0.299 N 
ATOM     28  C   UNL d   1     -49.595  30.440  34.105  0.00  0.00     0.100 A 
ATOM     29  O   UNL d   1     -51.055  28.599  33.324  0.00  0.00    -0.267 OA
BRANCH  27  30
ATOM     30  C   UNL d   1     -48.321  30.906  34.558  0.00  0.00     0.092 A 
ATOM     31  C   UNL d   1     -47.649  30.733  35.004  0.00  0.00     0.156 A 
ATOM     32  F   UNL d   1     -47.469  29.948  35.186  0.00  0.00    -0.203 F 
ATOM     33  C   UNL d   1     -47.156  31.345  35.269  0.00  0.00     0.031 A 
ATOM     34  C   UNL d   1     -47.348  32.132  35.079  0.00  0.00     0.002 A 
ATOM     35  C   UNL d   1     -48.025  32.300  34.631  0.00  0.00     0.002 A 
ATOM     36  C   UNL d   1     -48.508  31.685  34.373  0.00  0.00     0.020 A 
ENDBRANCH  27  30
ENDBRANCH   2  22
TORSDOF 3
ENDMDL
