MODEL 1
REMARK VINA RESULT:      -8.8      0.000      0.000
REMARK  3 active torsions:
REMARK  status: ('A' for Active; 'I' for Inactive)
REMARK    1  A    between atoms: C_2  and  C_1 
REMARK    2  A    between atoms: N_12  and  C_6 
REMARK    3  A    between atoms: C_15  and  N_12 
ROOT
ATOM      1  C   UNL d   1      50.194  34.447  52.551  0.00  0.00     0.082 A 
ATOM      2  C   UNL d   1      49.900  34.457  51.776  0.00  0.00     0.302 A 
ATOM      3  C   UNL d   1      49.777  34.826  53.169  0.00  0.00     0.009 A 
ATOM      4  O   UNL d   1      49.184  34.846  51.612  0.00  0.00    -0.273 OA
ATOM      5  C   UNL d   1      49.064  35.209  52.987  0.00  0.00     0.025 A 
ATOM      6  C   UNL d   1      48.772  35.217  52.215  0.00  0.00     0.103 A 
ATOM      7  O   UNL d   1      50.312  34.085  51.172  0.00  0.00    -0.259 OA
ATOM      8  C   UNL d   1      48.646  35.584  53.593  0.00  0.00     0.026 A 
ATOM      9  C   UNL d   1      48.056  35.607  52.057  0.00  0.00     0.027 A 
ATOM     10  C   UNL d   1      47.940  35.967  53.429  0.00  0.00     0.094 A 
ATOM     11  C   UNL d   1      47.645  35.979  52.659  0.00  0.00     0.026 A 
ATOM     12  O   UNL d   1      47.528  36.338  54.028  0.00  0.00    -0.328 OA
ATOM     13  C   UNL d   1      47.121  36.709  54.643  0.00  0.00     0.181 C 
ENDROOT
BRANCH   1  14
ATOM     14  C   UNL d   1      50.900  34.065  52.714  0.00  0.00     0.095 A 
ATOM     15  N   UNL d   1      51.640  34.409  52.729  0.00  0.00    -0.221 NA
ATOM     16  C   UNL d   1      52.185  33.826  52.914  0.00  0.00     0.194 A 
ATOM     17  S   UNL d   1      51.780  33.114  53.015  0.00  0.00    -0.046 SA
ATOM     18  C   UNL d   1      50.980  33.263  52.890  0.00  0.00     0.058 A 
BRANCH  16  19
ATOM     19  N   UNL d   1      52.993  33.925  52.988  0.00  0.00    -0.221 NA
BRANCH  19  20
ATOM     20  C   UNL d   1      53.352  33.796  53.711  0.00  0.00     0.087 A 
ATOM     21  C   UNL d   1      53.337  34.385  54.290  0.00  0.00     0.061 A 
ATOM     22  C   UNL d   1      53.696  34.257  55.014  0.00  0.00     0.197 A 
ATOM     23  O   UNL d   1      53.678  34.844  55.587  0.00  0.00    -0.286 OA
ATOM     24  C   UNL d   1      54.076  33.536  55.165  0.00  0.00     0.042 A 
ATOM     25  C   UNL d   1      54.091  32.954  54.592  0.00  0.00     0.005 A 
ATOM     26  C   UNL d   1      53.730  33.078  53.860  0.00  0.00     0.019 A 
ENDBRANCH  19  20
ENDBRANCH  16  19
ENDBRANCH   1  14
TORSDOF 3
ENDMDL
MODEL 2
REMARK VINA RESULT:      -8.3      2.312      3.449
REMARK  3 active torsions:
REMARK  status: ('A' for Active; 'I' for Inactive)
REMARK    1  A    between atoms: C_2  and  C_1 
REMARK    2  A    between atoms: N_12  and  C_6 
REMARK    3  A    between atoms: C_15  and  N_12 
ROOT
ATOM      1  C   UNL d   1      52.285  33.436  53.346  0.00  0.00     0.082 A 
ATOM      2  C   UNL d   1      52.091  33.885  54.016  0.00  0.00     0.302 A 
ATOM      3  C   UNL d   1      51.799  33.456  52.666  0.00  0.00     0.009 A 
ATOM      4  O   UNL d   1      51.408  34.359  54.010  0.00  0.00    -0.273 OA
ATOM      5  C   UNL d   1      51.121  33.934  52.679  0.00  0.00     0.025 A 
ATOM      6  C   UNL d   1      50.929  34.380  53.346  0.00  0.00     0.103 A 
ATOM      7  O   UNL d   1      52.570  33.864  54.681  0.00  0.00    -0.259 OA
ATOM      8  C   UNL d   1      50.636  33.958  52.010  0.00  0.00     0.026 A 
ATOM      9  C   UNL d   1      50.246  34.852  53.336  0.00  0.00     0.027 A 
ATOM     10  C   UNL d   1      49.963  34.425  52.007  0.00  0.00     0.094 A 
ATOM     11  C   UNL d   1      49.767  34.873  52.672  0.00  0.00     0.026 A 
ATOM     12  O   UNL d   1      49.484  34.449  51.346  0.00  0.00    -0.328 OA
ATOM     13  C   UNL d   1      49.009  34.463  50.672  0.00  0.00     0.181 C 
ENDROOT
BRANCH   1  14
ATOM     14  C   UNL d   1      52.958  32.969  53.350  0.00  0.00     0.095 A 
ATOM     15  N   UNL d   1      52.988  32.171  53.180  0.00  0.00    -0.221 NA
ATOM     16  C   UNL d   1      53.768  31.929  53.250  0.00  0.00     0.194 A 
ATOM     17  S   UNL d   1      54.225  32.582  53.465  0.00  0.00    -0.046 SA
ATOM     18  C   UNL d   1      53.720  33.230  53.527  0.00  0.00     0.058 A 
BRANCH  16  19
ATOM     19  N   UNL d   1      54.052  31.173  53.130  0.00  0.00    -0.221 NA
BRANCH  19  20
ATOM     20  C   UNL d   1      53.583  30.529  53.312  0.00  0.00     0.087 A 
ATOM     21  C   UNL d   1      53.670  30.148  54.039  0.00  0.00     0.061 A 
ATOM     22  C   UNL d   1      53.200  29.504  54.223  0.00  0.00     0.197 A 
ATOM     23  O   UNL d   1      53.289  29.128  54.947  0.00  0.00    -0.286 OA
ATOM     24  C   UNL d   1      52.637  29.234  53.678  0.00  0.00     0.042 A 
ATOM     25  C   UNL d   1      52.552  29.611  52.958  0.00  0.00     0.005 A 
ATOM     26  C   UNL d   1      53.023  30.261  52.768  0.00  0.00     0.019 A 
ENDBRANCH  19  20
ENDBRANCH  16  19
ENDBRANCH   1  14
TORSDOF 3
ENDMDL
MODEL 3
REMARK VINA RESULT:      -8.2      1.634      5.289
REMARK  3 active torsions:
REMARK  status: ('A' for Active; 'I' for Inactive)
REMARK    1  A    between atoms: C_2  and  C_1 
REMARK    2  A    between atoms: N_12  and  C_6 
REMARK    3  A    between atoms: C_15  and  N_12 
ROOT
ATOM      1  C   UNL d   1      51.618  33.854  52.949  0.00  0.00     0.082 A 
ATOM      2  C   UNL d   1      52.117  34.410  53.309  0.00  0.00     0.302 A 
ATOM      3  C   UNL d   1      51.824  33.043  52.935  0.00  0.00     0.009 A 
ATOM      4  O   UNL d   1      52.829  34.158  53.658  0.00  0.00    -0.273 OA
ATOM      5  C   UNL d   1      52.539  32.812  53.288  0.00  0.00     0.025 A 
ATOM      6  C   UNL d   1      53.035  33.366  53.645  0.00  0.00     0.103 A 
ATOM      7  O   UNL d   1      51.912  35.203  53.322  0.00  0.00    -0.259 OA
ATOM      8  C   UNL d   1      52.748  32.012  53.277  0.00  0.00     0.026 A 
ATOM      9  C   UNL d   1      53.744  33.110  53.992  0.00  0.00     0.027 A 
ATOM     10  C   UNL d   1      53.451  31.767  53.621  0.00  0.00     0.094 A 
ATOM     11  C   UNL d   1      53.950  32.318  53.979  0.00  0.00     0.026 A 
ATOM     12  O   UNL d   1      53.658  30.978  53.610  0.00  0.00    -0.328 OA
ATOM     13  C   UNL d   1      53.855  30.177  53.592  0.00  0.00     0.181 C 
ENDROOT
BRANCH   1  14
ATOM     14  C   UNL d   1      50.916  34.100  52.606  0.00  0.00     0.095 A 
ATOM     15  N   UNL d   1      50.179  34.082  52.956  0.00  0.00    -0.221 NA
ATOM     16  C   UNL d   1      49.637  34.378  52.416  0.00  0.00     0.194 A 
ATOM     17  S   UNL d   1      50.042  34.581  51.726  0.00  0.00    -0.046 SA
ATOM     18  C   UNL d   1      50.839  34.407  51.844  0.00  0.00     0.058 A 
BRANCH  16  19
ATOM     19  N   UNL d   1      48.833  34.462  52.534  0.00  0.00    -0.221 NA
BRANCH  19  20
ATOM     20  C   UNL d   1      48.512  35.208  52.626  0.00  0.00     0.087 A 
ATOM     21  C   UNL d   1      48.555  35.588  53.358  0.00  0.00     0.061 A 
ATOM     22  C   UNL d   1      48.234  36.334  53.450  0.00  0.00     0.197 A 
ATOM     23  O   UNL d   1      48.278  36.709  54.179  0.00  0.00    -0.286 OA
ATOM     24  C   UNL d   1      47.866  36.709  52.809  0.00  0.00     0.042 A 
ATOM     25  C   UNL d   1      47.824  36.332  52.085  0.00  0.00     0.005 A 
ATOM     26  C   UNL d   1      48.146  35.579  51.986  0.00  0.00     0.019 A 
ENDBRANCH  19  20
ENDBRANCH  16  19
ENDBRANCH   1  14
TORSDOF 3
ENDMDL
