MODEL 1
REMARK VINA RESULT:      58.0      0.000      0.000
REMARK  7 active torsions:
REMARK  status: ('A' for Active; 'I' for Inactive)
REMARK    1  A    between atoms: C_10  and  N_1 
REMARK    2  A    between atoms: S_8  and  C_6 
REMARK    3  A    between atoms: C_13  and  S_8 
REMARK    4  A    between atoms: C_11  and  C_13 
REMARK    5  A    between atoms: O_18  and  C_11 
REMARK    6  A    between atoms: C_22  and  C_13 
REMARK    7  A    between atoms: C_23  and  O_18 
ROOT
ATOM      1  N   UNL d   1     -51.705  25.975  33.414  0.00  0.00    -0.193 N 
ATOM      2  N   UNL d   1     -51.977  26.744  33.476  0.00  0.00    -0.058 NA
ATOM      3  C   UNL d   1     -50.879  26.003  33.384  0.00  0.00     0.188 A 
ATOM      4  C   UNL d   1     -50.656  26.797  33.428  0.00  0.00     0.164 A 
ATOM      5  N   UNL d   1     -51.349  27.246  33.484  0.00  0.00    -0.125 NA
ATOM      6  C   UNL d   1     -49.862  27.004  33.411  0.00  0.00     0.135 A 
ATOM      7  N   UNL d   1     -50.307  25.417  33.323  0.00  0.00    -0.203 NA
ATOM      8  N   UNL d   1     -49.282  26.416  33.349  0.00  0.00    -0.216 NA
ATOM      9  C   UNL d   1     -49.505  25.623  33.306  0.00  0.00     0.201 A 
ENDROOT
BRANCH   6  10
ATOM     10  S   UNL d   1     -49.639  27.799  33.454  0.00  0.00    -0.061 SA
BRANCH  10  11
ATOM     11  C   UNL d   1     -49.261  28.085  34.125  0.00  0.00     0.094 C 
BRANCH  11  12
ATOM     12  C   UNL d   1     -48.912  28.833  34.112  0.00  0.00     0.306 C 
ATOM     13  O   UNL d   1     -48.097  28.910  34.011  0.00  0.00    -0.258 OA
BRANCH  12  14
ATOM     14  O   UNL d   1     -49.385  29.507  34.203  0.00  0.00    -0.271 OA
BRANCH  14  15
ATOM     15  C   UNL d   1     -49.127  30.234  33.907  0.00  0.00     0.126 C 
ATOM     16  C   UNL d   1     -49.612  30.892  33.946  0.00  0.00     0.029 C 
ENDBRANCH  14  15
ENDBRANCH  12  14
ENDBRANCH  11  12
BRANCH  11  17
ATOM     17  C   UNL d   1     -49.232  27.623  34.809  0.00  0.00     0.012 C 
ATOM     18  C   UNL d   1     -48.906  27.927  35.496  0.00  0.00     0.001 C 
ENDBRANCH  11  17
ENDBRANCH  10  11
ENDBRANCH   6  10
BRANCH   1  19
ATOM     19  C   UNL d   1     -52.195  25.324  33.391  0.00  0.00     0.086 A 
ATOM     20  C   UNL d   1     -51.872  24.562  33.395  0.00  0.00     0.022 A 
ATOM     21  C   UNL d   1     -52.367  23.903  33.371  0.00  0.00     0.031 A 
ATOM     22  C   UNL d   1     -53.176  23.990  33.343  0.00  0.00     0.140 A 
ATOM     23  C   UNL d   1     -53.506  24.762  33.338  0.00  0.00     0.031 A 
ATOM     24  F   UNL d   1     -53.665  23.305  33.318  0.00  0.00    -0.204 F 
ATOM     25  C   UNL d   1     -53.020  25.421  33.361  0.00  0.00     0.022 A 
ENDBRANCH   1  19
TORSDOF 7
ENDMDL
