MODEL 1
REMARK VINA RESULT:      24.2      0.000      0.000
REMARK  6 active torsions:
REMARK  status: ('A' for Active; 'I' for Inactive)
REMARK    1  A    between atoms: C_9  and  N_1 
REMARK    2  A    between atoms: S_10  and  C_6 
REMARK    3  A    between atoms: C_16  and  S_10 
REMARK    4  A    between atoms: C_12  and  C_16 
REMARK    5  A    between atoms: O_20  and  C_12 
REMARK    6  A    between atoms: C_22  and  O_20 
ROOT
ATOM      1  N   UNL d   1      46.240 -17.083  43.127  0.00  0.00    -0.212 N 
ATOM      2  C   UNL d   1      45.864 -16.743  43.774  0.00  0.00     0.169 A 
ATOM      3  N   UNL d   1      46.641 -16.507  42.723  0.00  0.00    -0.162 NA
ATOM      4  C   UNL d   1      46.040 -15.937  43.768  0.00  0.00     0.081 A 
ATOM      5  C   UNL d   1      46.521 -15.789  43.117  0.00  0.00     0.126 A 
ATOM      6  C   UNL d   1      45.738 -15.445  44.353  0.00  0.00     0.117 A 
ATOM      7  N   UNL d   1      45.388 -17.058  44.366  0.00  0.00    -0.205 NA
ATOM      8  N   UNL d   1      45.260 -15.758  44.948  0.00  0.00    -0.217 NA
ATOM      9  C   UNL d   1      45.085 -16.565  44.955  0.00  0.00     0.201 A 
ENDROOT
BRANCH   1  10
ATOM     10  C   UNL d   1      46.166 -17.898  42.985  0.00  0.00     0.085 A 
ATOM     11  C   UNL d   1      46.644 -18.426  43.386  0.00  0.00     0.020 A 
ATOM     12  C   UNL d   1      46.576 -19.227  43.251  0.00  0.00     0.013 A 
ATOM     13  C   UNL d   1      46.016 -19.515  42.702  0.00  0.00     0.058 A 
ATOM     14  C   UNL d   1      45.536 -18.973  42.301  0.00  0.00     0.013 A 
ATOM     15 CL   UNL d   1      45.943 -20.330  42.560  0.00  0.00    -0.082 Cl
ATOM     16  C   UNL d   1      45.612 -18.171  42.443  0.00  0.00     0.020 A 
ENDBRANCH   1  10
BRANCH   6  17
ATOM     17  S   UNL d   1      45.913 -14.639  44.347  0.00  0.00    -0.062 SA
BRANCH  17  18
ATOM     18  C   UNL d   1      45.362 -14.104  44.073  0.00  0.00     0.105 C 
BRANCH  18  19
ATOM     19  C   UNL d   1      45.479 -13.296  44.188  0.00  0.00     0.307 C 
ATOM     20  O   UNL d   1      45.533 -12.991  44.954  0.00  0.00    -0.258 OA
BRANCH  19  21
ATOM     21  O   UNL d   1      45.542 -12.791  43.538  0.00  0.00    -0.271 OA
BRANCH  21  22
ATOM     22  C   UNL d   1      44.908 -12.305  43.329  0.00  0.00     0.126 C 
ATOM     23  C   UNL d   1      44.782 -12.108  42.538  0.00  0.00     0.029 C 
ENDBRANCH  21  22
ENDBRANCH  19  21
ENDBRANCH  18  19
ENDBRANCH  17  18
ENDBRANCH   6  17
TORSDOF 6
ENDMDL
