MODEL 1
REMARK VINA RESULT:      -7.8      0.000      0.000
REMARK  7 active torsions:
REMARK  status: ('A' for Active; 'I' for Inactive)
REMARK    1  A    between atoms: N_2  and  C_1 
REMARK    2  A    between atoms: N_4  and  C_3 
REMARK       I    between atoms: C_6  and  N_4 
REMARK    3  A    between atoms: C_7  and  C_6 
REMARK    4  A    between atoms: C_10  and  C_7 
REMARK    5  A    between atoms: C_14  and  C_10 
REMARK    6  A    between atoms: O_16  and  C_13 
REMARK    7  A    between atoms: C_17  and  O_16 
ROOT
ATOM      1  C   UNL d   1      52.809  32.550  53.376  0.00  0.00     0.146 A 
ATOM      2  C   UNL d   1      52.417  33.233  53.282  0.00  0.00     0.107 A 
ATOM      3  C   UNL d   1      53.465  32.509  53.871  0.00  0.00     0.050 A 
ATOM      4  C   UNL d   1      52.675  33.917  53.689  0.00  0.00     0.023 A 
ATOM      5  C   UNL d   1      53.734  33.161  54.278  0.00  0.00     0.102 A 
ATOM      6  C   UNL d   1      53.324  33.880  54.180  0.00  0.00     0.026 A 
ENDROOT
BRANCH   2   7
ATOM      7  N   UNL d   1      51.738  33.310  52.780  0.00  0.00    -0.206 NA
ATOM      8  C   UNL d   1      51.378  34.006  52.780  0.00  0.00     0.279 C 
ATOM      9  O   UNL d   1      51.514  34.522  53.096  0.00  0.00    -0.265 OA
BRANCH   8  10
ATOM     10  C   UNL d   1      50.706  34.079  52.282  0.00  0.00     0.062 C 
BRANCH  10  11
ATOM     11  C   UNL d   1      50.049  34.525  52.512  0.00  0.00     0.005 C 
BRANCH  11  12
ATOM     12  C   UNL d   1      49.427  34.639  51.970  0.00  0.00     0.000 A 
ATOM     13  C   UNL d   1      49.462  34.344  51.256  0.00  0.00     0.000 A 
ATOM     14  C   UNL d   1      48.816  34.484  50.748  0.00  0.00     0.000 A 
ATOM     15  C   UNL d   1      48.181  34.916  51.009  0.00  0.00     0.000 A 
ATOM     16  C   UNL d   1      48.149  35.211  51.729  0.00  0.00     0.000 A 
ATOM     17  C   UNL d   1      48.780  35.080  52.240  0.00  0.00     0.000 A 
ENDBRANCH  11  12
ENDBRANCH  10  11
ENDBRANCH   8  10
ENDBRANCH   2   7
BRANCH   1  18
ATOM     18  N   UNL d   1      52.525  31.881  52.954  0.00  0.00    -0.112 N 
ATOM     19  O   UNL d   1      52.796  31.699  52.206  0.00  0.00    -0.532 OA
ATOM     20  O   UNL d   1      51.935  31.374  53.314  0.00  0.00    -0.532 OA
ENDBRANCH   1  18
BRANCH   5  21
ATOM     21  O   UNL d   1      54.403  33.103  54.778  0.00  0.00    -0.305 OA
BRANCH  21  22
ATOM     22  C   UNL d   1      54.711  33.735  55.148  0.00  0.00     0.123 C 
ATOM     23  C   UNL d   1      55.552  33.783  55.290  0.00  0.00     0.029 C 
ENDBRANCH  21  22
ENDBRANCH   5  21
TORSDOF 7
ENDMDL
MODEL 2
REMARK VINA RESULT:      -7.6      2.380      5.928
REMARK  7 active torsions:
REMARK  status: ('A' for Active; 'I' for Inactive)
REMARK    1  A    between atoms: N_2  and  C_1 
REMARK    2  A    between atoms: N_4  and  C_3 
REMARK       I    between atoms: C_6  and  N_4 
REMARK    3  A    between atoms: C_7  and  C_6 
REMARK    4  A    between atoms: C_10  and  C_7 
REMARK    5  A    between atoms: C_14  and  C_10 
REMARK    6  A    between atoms: O_16  and  C_13 
REMARK    7  A    between atoms: C_17  and  O_16 
ROOT
ATOM      1  C   UNL d   1      47.912  35.889  52.953  0.00  0.00     0.146 A 
ATOM      2  C   UNL d   1      48.460  35.456  52.577  0.00  0.00     0.107 A 
ATOM      3  C   UNL d   1      47.219  36.111  52.568  0.00  0.00     0.050 A 
ATOM      4  C   UNL d   1      48.331  35.224  51.784  0.00  0.00     0.023 A 
ATOM      5  C   UNL d   1      47.071  35.897  51.797  0.00  0.00     0.102 A 
ATOM      6  C   UNL d   1      47.647  35.442  51.401  0.00  0.00     0.026 A 
ENDROOT
BRANCH   2   7
ATOM      7  N   UNL d   1      49.184  35.211  52.944  0.00  0.00    -0.206 NA
ATOM      8  C   UNL d   1      49.642  34.729  52.529  0.00  0.00     0.279 C 
ATOM      9  O   UNL d   1      49.558  34.493  51.961  0.00  0.00    -0.265 OA
BRANCH   8  10
ATOM     10  C   UNL d   1      50.359  34.488  52.894  0.00  0.00     0.062 C 
BRANCH  10  11
ATOM     11  C   UNL d   1      50.966  34.138  52.456  0.00  0.00     0.005 C 
BRANCH  11  12
ATOM     12  C   UNL d   1      51.694  33.978  52.827  0.00  0.00     0.000 A 
ATOM     13  C   UNL d   1      52.155  34.553  53.063  0.00  0.00     0.000 A 
ATOM     14  C   UNL d   1      52.875  34.346  53.430  0.00  0.00     0.000 A 
ATOM     15  C   UNL d   1      53.069  33.564  53.529  0.00  0.00     0.000 A 
ATOM     16  C   UNL d   1      52.602  32.988  53.290  0.00  0.00     0.000 A 
ATOM     17  C   UNL d   1      51.890  33.180  52.927  0.00  0.00     0.000 A 
ENDBRANCH  11  12
ENDBRANCH  10  11
ENDBRANCH   8  10
ENDBRANCH   2   7
BRANCH   1  18
ATOM     18  N   UNL d   1      48.071  36.107  53.749  0.00  0.00    -0.112 N 
ATOM     19  O   UNL d   1      48.602  36.698  53.935  0.00  0.00    -0.532 OA
ATOM     20  O   UNL d   1      47.667  35.699  54.386  0.00  0.00    -0.532 OA
ENDBRANCH   1  18
BRANCH   5  21
ATOM     21  O   UNL d   1      46.362  36.131  51.420  0.00  0.00    -0.305 OA
BRANCH  21  22
ATOM     22  C   UNL d   1      45.797  35.609  51.220  0.00  0.00     0.123 C 
ATOM     23  C   UNL d   1      45.075  35.876  50.849  0.00  0.00     0.029 C 
ENDBRANCH  21  22
ENDBRANCH   5  21
TORSDOF 7
ENDMDL
MODEL 3
REMARK VINA RESULT:      -7.5      1.463      2.289
REMARK  7 active torsions:
REMARK  status: ('A' for Active; 'I' for Inactive)
REMARK    1  A    between atoms: N_2  and  C_1 
REMARK    2  A    between atoms: N_4  and  C_3 
REMARK       I    between atoms: C_6  and  N_4 
REMARK    3  A    between atoms: C_7  and  C_6 
REMARK    4  A    between atoms: C_10  and  C_7 
REMARK    5  A    between atoms: C_14  and  C_10 
REMARK    6  A    between atoms: O_16  and  C_13 
REMARK    7  A    between atoms: C_17  and  O_16 
ROOT
ATOM      1  C   UNL d   1      52.532  33.872  53.390  0.00  0.00     0.146 A 
ATOM      2  C   UNL d   1      51.778  33.774  53.162  0.00  0.00     0.107 A 
ATOM      3  C   UNL d   1      53.049  33.232  53.405  0.00  0.00     0.050 A 
ATOM      4  C   UNL d   1      51.510  33.015  52.935  0.00  0.00     0.023 A 
ATOM      5  C   UNL d   1      52.812  32.484  53.189  0.00  0.00     0.102 A 
ATOM      6  C   UNL d   1      52.020  32.380  52.949  0.00  0.00     0.026 A 
ENDROOT
BRANCH   2   7
ATOM      7  N   UNL d   1      51.218  34.411  53.136  0.00  0.00    -0.206 NA
ATOM      8  C   UNL d   1      50.481  34.223  52.948  0.00  0.00     0.279 C 
ATOM      9  O   UNL d   1      50.236  33.669  52.813  0.00  0.00    -0.265 OA
BRANCH   8  10
ATOM     10  C   UNL d   1      49.929  34.855  52.923  0.00  0.00     0.062 C 
BRANCH  10  11
ATOM     11  C   UNL d   1      49.189  34.763  52.567  0.00  0.00     0.005 C 
BRANCH  11  12
ATOM     12  C   UNL d   1      48.623  35.369  52.646  0.00  0.00     0.000 A 
ATOM     13  C   UNL d   1      48.551  35.762  53.308  0.00  0.00     0.000 A 
ATOM     14  C   UNL d   1      47.971  36.360  53.342  0.00  0.00     0.000 A 
ATOM     15  C   UNL d   1      47.506  36.511  52.694  0.00  0.00     0.000 A 
ATOM     16  C   UNL d   1      47.581  36.113  52.029  0.00  0.00     0.000 A 
ATOM     17  C   UNL d   1      48.150  35.520  51.984  0.00  0.00     0.000 A 
ENDBRANCH  11  12
ENDBRANCH  10  11
ENDBRANCH   8  10
ENDBRANCH   2   7
BRANCH   1  18
ATOM     18  N   UNL d   1      52.770  34.646  53.612  0.00  0.00    -0.112 N 
ATOM     19  O   UNL d   1      52.996  35.201  53.058  0.00  0.00    -0.532 OA
ATOM     20  O   UNL d   1      52.778  34.863  54.442  0.00  0.00    -0.532 OA
ENDBRANCH   1  18
BRANCH   5  21
ATOM     21  O   UNL d   1      53.351  31.845  53.209  0.00  0.00    -0.305 OA
BRANCH  21  22
ATOM     22  C   UNL d   1      53.114  31.096  53.330  0.00  0.00     0.123 C 
ATOM     23  C   UNL d   1      53.686  30.460  53.337  0.00  0.00     0.029 C 
ENDBRANCH  21  22
ENDBRANCH   5  21
TORSDOF 7
ENDMDL
MODEL 4
REMARK VINA RESULT:      -6.7      1.850      4.926
REMARK  7 active torsions:
REMARK  status: ('A' for Active; 'I' for Inactive)
REMARK    1  A    between atoms: N_2  and  C_1 
REMARK    2  A    between atoms: N_4  and  C_3 
REMARK       I    between atoms: C_6  and  N_4 
REMARK    3  A    between atoms: C_7  and  C_6 
REMARK    4  A    between atoms: C_10  and  C_7 
REMARK    5  A    between atoms: C_14  and  C_10 
REMARK    6  A    between atoms: O_16  and  C_13 
REMARK    7  A    between atoms: C_17  and  O_16 
ROOT
ATOM      1  C   UNL d   1      51.959  34.222  53.497  0.00  0.00     0.146 A 
ATOM      2  C   UNL d   1      51.844  33.461  53.304  0.00  0.00     0.107 A 
ATOM      3  C   UNL d   1      51.368  34.780  53.369  0.00  0.00     0.050 A 
ATOM      4  C   UNL d   1      51.115  33.226  52.967  0.00  0.00     0.023 A 
ATOM      5  C   UNL d   1      50.650  34.575  53.043  0.00  0.00     0.102 A 
ATOM      6  C   UNL d   1      50.527  33.776  52.840  0.00  0.00     0.026 A 
ENDROOT
BRANCH   2   7
ATOM      7  N   UNL d   1      52.431  32.861  53.422  0.00  0.00    -0.206 NA
ATOM      8  C   UNL d   1      52.373  32.220  52.975  0.00  0.00     0.279 C 
ATOM      9  O   UNL d   1      51.956  32.078  52.539  0.00  0.00    -0.265 OA
BRANCH   8  10
ATOM     10  C   UNL d   1      52.956  31.628  53.094  0.00  0.00     0.062 C 
BRANCH  10  11
ATOM     11  C   UNL d   1      52.819  30.842  52.879  0.00  0.00     0.005 C 
BRANCH  11  12
ATOM     12  C   UNL d   1      53.123  30.231  53.356  0.00  0.00     0.000 A 
ATOM     13  C   UNL d   1      53.869  30.222  53.562  0.00  0.00     0.000 A 
ATOM     14  C   UNL d   1      54.130  29.591  54.041  0.00  0.00     0.000 A 
ATOM     15  C   UNL d   1      53.607  29.015  54.273  0.00  0.00     0.000 A 
ATOM     16  C   UNL d   1      52.857  29.028  54.064  0.00  0.00     0.000 A 
ATOM     17  C   UNL d   1      52.588  29.645  53.592  0.00  0.00     0.000 A 
ENDBRANCH  11  12
ENDBRANCH  10  11
ENDBRANCH   8  10
ENDBRANCH   2   7
BRANCH   1  18
ATOM     18  N   UNL d   1      52.702  34.426  53.833  0.00  0.00    -0.112 N 
ATOM     19  O   UNL d   1      53.314  34.714  53.377  0.00  0.00    -0.532 OA
ATOM     20  O   UNL d   1      52.823  34.331  54.676  0.00  0.00    -0.532 OA
ENDBRANCH   1  18
BRANCH   5  21
ATOM     21  O   UNL d   1      50.059  35.154  52.920  0.00  0.00    -0.305 OA
BRANCH  21  22
ATOM     22  C   UNL d   1      49.285  34.992  52.996  0.00  0.00     0.123 C 
ATOM     23  C   UNL d   1      48.710  35.624  52.991  0.00  0.00     0.029 C 
ENDBRANCH  21  22
ENDBRANCH   5  21
TORSDOF 7
ENDMDL
MODEL 5
REMARK VINA RESULT:      -6.7      1.435      2.348
REMARK  7 active torsions:
REMARK  status: ('A' for Active; 'I' for Inactive)
REMARK    1  A    between atoms: N_2  and  C_1 
REMARK    2  A    between atoms: N_4  and  C_3 
REMARK       I    between atoms: C_6  and  N_4 
REMARK    3  A    between atoms: C_7  and  C_6 
REMARK    4  A    between atoms: C_10  and  C_7 
REMARK    5  A    between atoms: C_14  and  C_10 
REMARK    6  A    between atoms: O_16  and  C_13 
REMARK    7  A    between atoms: C_17  and  O_16 
ROOT
ATOM      1  C   UNL d   1      53.320  32.282  53.684  0.00  0.00     0.146 A 
ATOM      2  C   UNL d   1      52.618  32.345  53.321  0.00  0.00     0.107 A 
ATOM      3  C   UNL d   1      53.672  31.546  53.789  0.00  0.00     0.050 A 
ATOM      4  C   UNL d   1      52.234  31.655  53.043  0.00  0.00     0.023 A 
ATOM      5  C   UNL d   1      53.318  30.861  53.527  0.00  0.00     0.102 A 
ATOM      6  C   UNL d   1      52.580  30.925  53.145  0.00  0.00     0.026 A 
ENDROOT
BRANCH   2   7
ATOM      7  N   UNL d   1      52.228  33.087  53.196  0.00  0.00    -0.206 NA
ATOM      8  C   UNL d   1      51.446  33.067  53.135  0.00  0.00     0.279 C 
ATOM      9  O   UNL d   1      51.059  32.584  53.164  0.00  0.00    -0.265 OA
BRANCH   8  10
ATOM     10  C   UNL d   1      51.063  33.803  53.012  0.00  0.00     0.062 C 
BRANCH  10  11
ATOM     11  C   UNL d   1      50.646  33.959  52.315  0.00  0.00     0.005 C 
BRANCH  11  12
ATOM     12  C   UNL d   1      49.973  34.447  52.344  0.00  0.00     0.000 A 
ATOM     13  C   UNL d   1      49.822  34.878  52.969  0.00  0.00     0.000 A 
ATOM     14  C   UNL d   1      49.136  35.353  52.954  0.00  0.00     0.000 A 
ATOM     15  C   UNL d   1      48.656  35.350  52.300  0.00  0.00     0.000 A 
ATOM     16  C   UNL d   1      48.811  34.915  51.673  0.00  0.00     0.000 A 
ATOM     17  C   UNL d   1      49.484  34.443  51.676  0.00  0.00     0.000 A 
ENDBRANCH  11  12
ENDBRANCH  10  11
ENDBRANCH   8  10
ENDBRANCH   2   7
BRANCH   1  18
ATOM     18  N   UNL d   1      53.681  32.993  53.952  0.00  0.00    -0.112 N 
ATOM     19  O   UNL d   1      53.584  33.262  54.716  0.00  0.00    -0.532 OA
ATOM     20  O   UNL d   1      54.163  33.450  53.410  0.00  0.00    -0.532 OA
ENDBRANCH   1  18
BRANCH   5  21
ATOM     21  O   UNL d   1      53.689  30.120  53.642  0.00  0.00    -0.305 OA
BRANCH  21  22
ATOM     22  C   UNL d   1      53.363  29.548  54.087  0.00  0.00     0.123 C 
ATOM     23  C   UNL d   1      53.794  28.827  54.244  0.00  0.00     0.029 C 
ENDBRANCH  21  22
ENDBRANCH   5  21
TORSDOF 7
ENDMDL
MODEL 6
REMARK VINA RESULT:      -6.2      2.356      4.506
REMARK  7 active torsions:
REMARK  status: ('A' for Active; 'I' for Inactive)
REMARK    1  A    between atoms: N_2  and  C_1 
REMARK    2  A    between atoms: N_4  and  C_3 
REMARK       I    between atoms: C_6  and  N_4 
REMARK    3  A    between atoms: C_7  and  C_6 
REMARK    4  A    between atoms: C_10  and  C_7 
REMARK    5  A    between atoms: C_14  and  C_10 
REMARK    6  A    between atoms: O_16  and  C_13 
REMARK    7  A    between atoms: C_17  and  O_16 
ROOT
ATOM      1  C   UNL d   1      52.123  33.867  53.298  0.00  0.00     0.146 A 
ATOM      2  C   UNL d   1      52.690  33.340  53.472  0.00  0.00     0.107 A 
ATOM      3  C   UNL d   1      52.207  34.657  53.513  0.00  0.00     0.050 A 
ATOM      4  C   UNL d   1      53.377  33.592  53.877  0.00  0.00     0.023 A 
ATOM      5  C   UNL d   1      52.867  34.925  53.907  0.00  0.00     0.102 A 
ATOM      6  C   UNL d   1      53.463  34.373  54.091  0.00  0.00     0.026 A 
ENDROOT
BRANCH   2   7
ATOM      7  N   UNL d   1      52.636  32.519  53.266  0.00  0.00    -0.206 NA
ATOM      8  C   UNL d   1      53.270  32.080  53.404  0.00  0.00     0.279 C 
ATOM      9  O   UNL d   1      53.818  32.241  53.645  0.00  0.00    -0.265 OA
BRANCH   8  10
ATOM     10  C   UNL d   1      53.213  31.268  53.199  0.00  0.00     0.062 C 
BRANCH  10  11
ATOM     11  C   UNL d   1      53.695  30.701  53.558  0.00  0.00     0.005 C 
BRANCH  11  12
ATOM     12  C   UNL d   1      53.384  29.945  53.716  0.00  0.00     0.000 A 
ATOM     13  C   UNL d   1      52.892  29.606  53.224  0.00  0.00     0.000 A 
ATOM     14  C   UNL d   1      52.606  28.849  53.424  0.00  0.00     0.000 A 
ATOM     15  C   UNL d   1      52.845  28.494  54.113  0.00  0.00     0.000 A 
ATOM     16  C   UNL d   1      53.341  28.838  54.606  0.00  0.00     0.000 A 
ATOM     17  C   UNL d   1      53.630  29.585  54.420  0.00  0.00     0.000 A 
ENDBRANCH  11  12
ENDBRANCH  10  11
ENDBRANCH   8  10
ENDBRANCH   2   7
BRANCH   1  18
ATOM     18  N   UNL d   1      51.445  33.583  52.891  0.00  0.00    -0.112 N 
ATOM     19  O   UNL d   1      50.797  33.287  53.290  0.00  0.00    -0.532 OA
ATOM     20  O   UNL d   1      51.429  33.604  52.035  0.00  0.00    -0.532 OA
ENDBRANCH   1  18
BRANCH   5  21
ATOM     21  O   UNL d   1      52.936  35.732  54.118  0.00  0.00    -0.305 OA
BRANCH  21  22
ATOM     22  C   UNL d   1      53.259  35.962  54.807  0.00  0.00     0.123 C 
ATOM     23  C   UNL d   1      53.036  36.709  55.158  0.00  0.00     0.029 C 
ENDBRANCH  21  22
ENDBRANCH   5  21
TORSDOF 7
ENDMDL
MODEL 7
REMARK VINA RESULT:      -5.8      2.745      5.900
REMARK  7 active torsions:
REMARK  status: ('A' for Active; 'I' for Inactive)
REMARK    1  A    between atoms: N_2  and  C_1 
REMARK    2  A    between atoms: N_4  and  C_3 
REMARK       I    between atoms: C_6  and  N_4 
REMARK    3  A    between atoms: C_7  and  C_6 
REMARK    4  A    between atoms: C_10  and  C_7 
REMARK    5  A    between atoms: C_14  and  C_10 
REMARK    6  A    between atoms: O_16  and  C_13 
REMARK    7  A    between atoms: C_17  and  O_16 
ROOT
ATOM      1  C   UNL d   1      47.493  35.621  52.022  0.00  0.00     0.146 A 
ATOM      2  C   UNL d   1      48.095  35.607  52.540  0.00  0.00     0.107 A 
ATOM      3  C   UNL d   1      46.780  35.981  52.221  0.00  0.00     0.050 A 
ATOM      4  C   UNL d   1      48.001  35.962  53.292  0.00  0.00     0.023 A 
ATOM      5  C   UNL d   1      46.666  36.332  52.946  0.00  0.00     0.102 A 
ATOM      6  C   UNL d   1      47.297  36.318  53.491  0.00  0.00     0.026 A 
ENDROOT
BRANCH   2   7
ATOM      7  N   UNL d   1      48.842  35.245  52.368  0.00  0.00    -0.206 NA
ATOM      8  C   UNL d   1      49.339  35.164  52.969  0.00  0.00     0.279 C 
ATOM      9  O   UNL d   1      49.271  35.325  53.564  0.00  0.00    -0.265 OA
BRANCH   8  10
ATOM     10  C   UNL d   1      50.078  34.805  52.796  0.00  0.00     0.062 C 
BRANCH  10  11
ATOM     11  C   UNL d   1      50.416  34.251  53.308  0.00  0.00     0.005 C 
BRANCH  11  12
ATOM     12  C   UNL d   1      51.193  33.988  53.166  0.00  0.00     0.000 A 
ATOM     13  C   UNL d   1      51.774  34.491  53.082  0.00  0.00     0.000 A 
ATOM     14  C   UNL d   1      52.536  34.182  52.941  0.00  0.00     0.000 A 
ATOM     15  C   UNL d   1      52.646  33.380  52.896  0.00  0.00     0.000 A 
ATOM     16  C   UNL d   1      52.058  32.876  52.982  0.00  0.00     0.000 A 
ATOM     17  C   UNL d   1      51.302  33.169  53.121  0.00  0.00     0.000 A 
ENDBRANCH  11  12
ENDBRANCH  10  11
ENDBRANCH   8  10
ENDBRANCH   2   7
BRANCH   1  18
ATOM     18  N   UNL d   1      47.618  35.257  51.276  0.00  0.00    -0.112 N 
ATOM     19  O   UNL d   1      48.018  35.636  50.674  0.00  0.00    -0.532 OA
ATOM     20  O   UNL d   1      47.319  34.465  51.138  0.00  0.00    -0.532 OA
ENDBRANCH   1  18
BRANCH   5  21
ATOM     21  O   UNL d   1      45.934  36.694  53.132  0.00  0.00    -0.305 OA
BRANCH  21  22
ATOM     22  C   UNL d   1      45.353  36.303  53.506  0.00  0.00     0.123 C 
ATOM     23  C   UNL d   1      44.633  36.709  53.725  0.00  0.00     0.029 C 
ENDBRANCH  21  22
ENDBRANCH   5  21
TORSDOF 7
ENDMDL
MODEL 8
REMARK VINA RESULT:      -5.4      1.494      5.072
REMARK  7 active torsions:
REMARK  status: ('A' for Active; 'I' for Inactive)
REMARK    1  A    between atoms: N_2  and  C_1 
REMARK    2  A    between atoms: N_4  and  C_3 
REMARK       I    between atoms: C_6  and  N_4 
REMARK    3  A    between atoms: C_7  and  C_6 
REMARK    4  A    between atoms: C_10  and  C_7 
REMARK    5  A    between atoms: C_14  and  C_10 
REMARK    6  A    between atoms: O_16  and  C_13 
REMARK    7  A    between atoms: C_17  and  O_16 
ROOT
ATOM      1  C   UNL d   1      50.639  34.303  52.236  0.00  0.00     0.146 A 
ATOM      2  C   UNL d   1      50.933  34.504  52.945  0.00  0.00     0.107 A 
ATOM      3  C   UNL d   1      49.859  34.478  52.042  0.00  0.00     0.050 A 
ATOM      4  C   UNL d   1      50.444  34.896  53.499  0.00  0.00     0.023 A 
ATOM      5  C   UNL d   1      49.363  34.858  52.565  0.00  0.00     0.102 A 
ATOM      6  C   UNL d   1      49.670  35.070  53.311  0.00  0.00     0.026 A 
ENDROOT
BRANCH   2   7
ATOM      7  N   UNL d   1      51.732  34.339  53.176  0.00  0.00    -0.206 NA
ATOM      8  C   UNL d   1      52.046  34.813  53.716  0.00  0.00     0.279 C 
ATOM      9  O   UNL d   1      51.797  35.300  54.008  0.00  0.00    -0.265 OA
BRANCH   8  10
ATOM     10  C   UNL d   1      52.836  34.648  53.943  0.00  0.00     0.062 C 
BRANCH  10  11
ATOM     11  C   UNL d   1      53.026  34.448  54.723  0.00  0.00     0.005 C 
BRANCH  11  12
ATOM     12  C   UNL d   1      53.750  34.069  54.880  0.00  0.00     0.000 A 
ATOM     13  C   UNL d   1      54.413  34.468  54.891  0.00  0.00     0.000 A 
ATOM     14  C   UNL d   1      55.115  34.048  55.053  0.00  0.00     0.000 A 
ATOM     15  C   UNL d   1      55.085  33.249  55.193  0.00  0.00     0.000 A 
ATOM     16  C   UNL d   1      54.416  32.851  55.182  0.00  0.00     0.000 A 
ATOM     17  C   UNL d   1      53.717  33.255  55.023  0.00  0.00     0.000 A 
ENDBRANCH  11  12
ENDBRANCH  10  11
ENDBRANCH   8  10
ENDBRANCH   2   7
BRANCH   1  18
ATOM     18  N   UNL d   1      51.156  33.911  51.701  0.00  0.00    -0.112 N 
ATOM     19  O   UNL d   1      51.391  33.139  51.820  0.00  0.00    -0.532 OA
ATOM     20  O   UNL d   1      51.445  34.330  51.012  0.00  0.00    -0.532 OA
ENDBRANCH   1  18
BRANCH   5  21
ATOM     21  O   UNL d   1      48.572  35.028  52.353  0.00  0.00    -0.305 OA
BRANCH  21  22
ATOM     22  C   UNL d   1      48.243  35.739  52.483  0.00  0.00     0.123 C 
ATOM     23  C   UNL d   1      47.482  35.930  52.143  0.00  0.00     0.029 C 
ENDBRANCH  21  22
ENDBRANCH   5  21
TORSDOF 7
ENDMDL
MODEL 9
REMARK VINA RESULT:      -5.2     10.392     11.127
REMARK  7 active torsions:
REMARK  status: ('A' for Active; 'I' for Inactive)
REMARK    1  A    between atoms: N_2  and  C_1 
REMARK    2  A    between atoms: N_4  and  C_3 
REMARK       I    between atoms: C_6  and  N_4 
REMARK    3  A    between atoms: C_7  and  C_6 
REMARK    4  A    between atoms: C_10  and  C_7 
REMARK    5  A    between atoms: C_14  and  C_10 
REMARK    6  A    between atoms: O_16  and  C_13 
REMARK    7  A    between atoms: C_17  and  O_16 
ROOT
ATOM      1  C   UNL d   1      45.003  27.572  58.200  0.00  0.00     0.146 A 
ATOM      2  C   UNL d   1      44.944  27.345  57.442  0.00  0.00     0.107 A 
ATOM      3  C   UNL d   1      45.007  28.371  58.397  0.00  0.00     0.050 A 
ATOM      4  C   UNL d   1      44.887  27.923  56.840  0.00  0.00     0.023 A 
ATOM      5  C   UNL d   1      44.952  28.952  57.829  0.00  0.00     0.102 A 
ATOM      6  C   UNL d   1      44.891  28.715  57.032  0.00  0.00     0.026 A 
ENDROOT
BRANCH   2   7
ATOM      7  N   UNL d   1      44.937  26.531  57.204  0.00  0.00    -0.206 NA
ATOM      8  C   UNL d   1      44.701  26.381  56.472  0.00  0.00     0.279 C 
ATOM      9  O   UNL d   1      44.514  26.773  56.028  0.00  0.00    -0.265 OA
BRANCH   8  10
ATOM     10  C   UNL d   1      44.695  25.575  56.239  0.00  0.00     0.062 C 
BRANCH  10  11
ATOM     11  C   UNL d   1      44.546  25.356  55.456  0.00  0.00     0.005 C 
BRANCH  11  12
ATOM     12  C   UNL d   1      44.644  24.561  55.231  0.00  0.00     0.000 A 
ATOM     13  C   UNL d   1      45.027  24.064  55.684  0.00  0.00     0.000 A 
ATOM     14  C   UNL d   1      45.101  23.277  55.419  0.00  0.00     0.000 A 
ATOM     15  C   UNL d   1      44.779  23.057  54.708  0.00  0.00     0.000 A 
ATOM     16  C   UNL d   1      44.394  23.560  54.254  0.00  0.00     0.000 A 
ATOM     17  C   UNL d   1      44.314  24.339  54.505  0.00  0.00     0.000 A 
ENDBRANCH  11  12
ENDBRANCH  10  11
ENDBRANCH   8  10
ENDBRANCH   2   7
BRANCH   1  18
ATOM     18  N   UNL d   1      45.060  26.967  58.780  0.00  0.00    -0.112 N 
ATOM     19  O   UNL d   1      44.411  26.727  59.214  0.00  0.00    -0.532 OA
ATOM     20  O   UNL d   1      45.816  26.591  58.924  0.00  0.00    -0.532 OA
ENDBRANCH   1  18
BRANCH   5  21
ATOM     21  O   UNL d   1      44.958  29.760  58.047  0.00  0.00    -0.305 OA
BRANCH  21  22
ATOM     22  C   UNL d   1      44.807  30.340  57.524  0.00  0.00     0.123 C 
ATOM     23  C   UNL d   1      44.793  31.156  57.779  0.00  0.00     0.029 C 
ENDBRANCH  21  22
ENDBRANCH   5  21
TORSDOF 7
ENDMDL
