MODEL 1
REMARK VINA RESULT:      -6.4      0.000      0.000
REMARK  1 active torsions:
REMARK  status: ('A' for Active; 'I' for Inactive)
REMARK    1  A    between atoms: C_6  and  C_1 
ROOT
ATOM      1  C   UNL d   1     -46.398  12.698  23.231  0.00  0.00     0.168 A 
ATOM      2  N   UNL d   1     -45.814  12.135  23.461  0.00  0.00    -0.142 NA
ATOM      3  C   UNL d   1     -47.136  12.358  23.319  0.00  0.00     0.045 A 
ATOM      4  N   UNL d   1     -46.218  11.437  23.693  0.00  0.00    -0.148 NA
ATOM      5  C   UNL d   1     -47.036  11.571  23.607  0.00  0.00     0.105 A 
ATOM      6  C   UNL d   1     -47.943  12.486  23.236  0.00  0.00     0.003 A 
ATOM      7  C   UNL d   1     -47.788  11.224  23.697  0.00  0.00     0.021 A 
ATOM      8  C   UNL d   1     -48.362  11.816  23.458  0.00  0.00     0.002 A 
ENDROOT
BRANCH   1   9
ATOM      9  C   UNL d   1     -46.249  13.452  22.967  0.00  0.00     0.231 C 
ATOM     10  O   UNL d   1     -46.192  14.084  23.495  0.00  0.00    -0.643 OA
ATOM     11  O   UNL d   1     -46.145  13.647  22.167  0.00  0.00    -0.643 OA
ENDBRANCH   1   9
TORSDOF 1
ENDMDL
MODEL 2
REMARK VINA RESULT:      -6.3      1.598      2.302
REMARK  1 active torsions:
REMARK  status: ('A' for Active; 'I' for Inactive)
REMARK    1  A    between atoms: C_6  and  C_1 
ROOT
ATOM      1  C   UNL d   1     -47.410  12.089  23.295  0.00  0.00     0.168 A 
ATOM      2  N   UNL d   1     -46.700  11.874  23.698  0.00  0.00    -0.142 NA
ATOM      3  C   UNL d   1     -47.334  12.858  23.029  0.00  0.00     0.045 A 
ATOM      4  N   UNL d   1     -46.187  12.538  23.670  0.00  0.00    -0.148 NA
ATOM      5  C   UNL d   1     -46.576  13.148  23.258  0.00  0.00     0.105 A 
ATOM      6  C   UNL d   1     -47.714  13.463  22.623  0.00  0.00     0.003 A 
ATOM      7  C   UNL d   1     -46.499  13.932  22.987  0.00  0.00     0.021 A 
ATOM      8  C   UNL d   1     -47.231  14.125  22.582  0.00  0.00     0.002 A 
ENDROOT
BRANCH   1   9
ATOM      9  C   UNL d   1     -48.057  11.610  23.190  0.00  0.00     0.231 C 
ATOM     10  O   UNL d   1     -48.083  11.057  22.578  0.00  0.00    -0.643 OA
ATOM     11  O   UNL d   1     -48.730  11.634  23.676  0.00  0.00    -0.643 OA
ENDBRANCH   1   9
TORSDOF 1
ENDMDL
MODEL 3
REMARK VINA RESULT:      -6.0      1.212      1.506
REMARK  1 active torsions:
REMARK  status: ('A' for Active; 'I' for Inactive)
REMARK    1  A    between atoms: C_6  and  C_1 
ROOT
ATOM      1  C   UNL d   1     -46.934  13.026  22.829  0.00  0.00     0.168 A 
ATOM      2  N   UNL d   1     -47.399  13.421  22.247  0.00  0.00    -0.142 NA
ATOM      3  C   UNL d   1     -47.379  12.420  23.150  0.00  0.00     0.045 A 
ATOM      4  N   UNL d   1     -48.146  13.038  22.222  0.00  0.00    -0.148 NA
ATOM      5  C   UNL d   1     -48.137  12.418  22.779  0.00  0.00     0.105 A 
ATOM      6  C   UNL d   1     -47.375  11.808  23.698  0.00  0.00     0.003 A 
ATOM      7  C   UNL d   1     -48.591  11.801  23.106  0.00  0.00     0.021 A 
ATOM      8  C   UNL d   1     -48.096  11.417  23.692  0.00  0.00     0.002 A 
ENDROOT
BRANCH   1   9
ATOM      9  C   UNL d   1     -46.172  13.217  23.034  0.00  0.00     0.231 C 
ATOM     10  O   UNL d   1     -45.532  12.959  22.581  0.00  0.00    -0.643 OA
ATOM     11  O   UNL d   1     -45.975  13.675  23.698  0.00  0.00    -0.643 OA
ENDBRANCH   1   9
TORSDOF 1
ENDMDL
MODEL 4
REMARK VINA RESULT:      -5.9      1.358      1.697
REMARK  1 active torsions:
REMARK  status: ('A' for Active; 'I' for Inactive)
REMARK    1  A    between atoms: C_6  and  C_1 
ROOT
ATOM      1  C   UNL d   1     -47.399  13.537  22.962  0.00  0.00     0.168 A 
ATOM      2  N   UNL d   1     -46.612  13.841  22.951  0.00  0.00    -0.142 NA
ATOM      3  C   UNL d   1     -47.377  12.768  23.241  0.00  0.00     0.045 A 
ATOM      4  N   UNL d   1     -46.106  13.234  23.234  0.00  0.00    -0.148 NA
ATOM      5  C   UNL d   1     -46.575  12.569  23.413  0.00  0.00     0.105 A 
ATOM      6  C   UNL d   1     -47.835  12.111  23.419  0.00  0.00     0.003 A 
ATOM      7  C   UNL d   1     -46.552  11.786  23.697  0.00  0.00     0.021 A 
ATOM      8  C   UNL d   1     -47.362  11.501  23.698  0.00  0.00     0.002 A 
ENDROOT
BRANCH   1   9
ATOM      9  C   UNL d   1     -48.065  13.941  22.732  0.00  0.00     0.231 C 
ATOM     10  O   UNL d   1     -48.343  13.898  21.957  0.00  0.00    -0.643 OA
ATOM     11  O   UNL d   1     -48.512  14.419  23.244  0.00  0.00    -0.643 OA
ENDBRANCH   1   9
TORSDOF 1
ENDMDL
MODEL 5
REMARK VINA RESULT:      -5.5      2.234      2.761
REMARK  1 active torsions:
REMARK  status: ('A' for Active; 'I' for Inactive)
REMARK    1  A    between atoms: C_6  and  C_1 
ROOT
ATOM      1  C   UNL d   1     -48.871  12.150  22.365  0.00  0.00     0.168 A 
ATOM      2  N   UNL d   1     -48.538  11.453  22.704  0.00  0.00    -0.142 NA
ATOM      3  C   UNL d   1     -49.604  12.280  22.706  0.00  0.00     0.045 A 
ATOM      4  N   UNL d   1     -49.090  11.160  23.264  0.00  0.00    -0.148 NA
ATOM      5  C   UNL d   1     -49.750  11.668  23.268  0.00  0.00     0.105 A 
ATOM      6  C   UNL d   1     -50.256  12.778  22.713  0.00  0.00     0.003 A 
ATOM      7  C   UNL d   1     -50.495  11.800  23.616  0.00  0.00     0.021 A 
ATOM      8  C   UNL d   1     -50.812  12.512  23.255  0.00  0.00     0.002 A 
ENDROOT
BRANCH   1   9
ATOM      9  C   UNL d   1     -48.523  12.612  21.796  0.00  0.00     0.231 C 
ATOM     10  O   UNL d   1     -48.677  12.491  20.995  0.00  0.00    -0.643 OA
ATOM     11  O   UNL d   1     -47.994  13.231  21.966  0.00  0.00    -0.643 OA
ENDBRANCH   1   9
TORSDOF 1
ENDMDL
MODEL 6
REMARK VINA RESULT:      -5.3      2.539      3.096
REMARK  1 active torsions:
REMARK  status: ('A' for Active; 'I' for Inactive)
REMARK    1  A    between atoms: C_6  and  C_1 
ROOT
ATOM      1  C   UNL d   1     -48.699  12.313  22.916  0.00  0.00     0.168 A 
ATOM      2  N   UNL d   1     -48.205  12.942  23.185  0.00  0.00    -0.142 NA
ATOM      3  C   UNL d   1     -49.223  12.612  22.364  0.00  0.00     0.045 A 
ATOM      4  N   UNL d   1     -48.442  13.637  22.779  0.00  0.00    -0.148 NA
ATOM      5  C   UNL d   1     -49.071  13.437  22.270  0.00  0.00     0.105 A 
ATOM      6  C   UNL d   1     -49.843  12.420  21.861  0.00  0.00     0.003 A 
ATOM      7  C   UNL d   1     -49.604  13.742  21.707  0.00  0.00     0.021 A 
ATOM      8  C   UNL d   1     -50.094  13.085  21.451  0.00  0.00     0.002 A 
ENDROOT
BRANCH   1   9
ATOM      9  C   UNL d   1     -48.660  11.541  23.166  0.00  0.00     0.231 C 
ATOM     10  O   UNL d   1     -48.065  11.037  22.898  0.00  0.00    -0.643 OA
ATOM     11  O   UNL d   1     -49.201  11.202  23.697  0.00  0.00    -0.643 OA
ENDBRANCH   1   9
TORSDOF 1
ENDMDL
MODEL 7
REMARK VINA RESULT:      -5.3      2.909      3.277
REMARK  1 active torsions:
REMARK  status: ('A' for Active; 'I' for Inactive)
REMARK    1  A    between atoms: C_6  and  C_1 
ROOT
ATOM      1  C   UNL d   1     -49.015  14.585  22.672  0.00  0.00     0.168 A 
ATOM      2  N   UNL d   1     -48.194  14.604  22.862  0.00  0.00    -0.142 NA
ATOM      3  C   UNL d   1     -49.150  13.955  22.168  0.00  0.00     0.045 A 
ATOM      4  N   UNL d   1     -47.829  13.966  22.458  0.00  0.00    -0.148 NA
ATOM      5  C   UNL d   1     -48.417  13.562  22.027  0.00  0.00     0.105 A 
ATOM      6  C   UNL d   1     -49.727  13.554  21.742  0.00  0.00     0.003 A 
ATOM      7  C   UNL d   1     -48.554  12.921  21.513  0.00  0.00     0.021 A 
ATOM      8  C   UNL d   1     -49.394  12.923  21.336  0.00  0.00     0.002 A 
ENDROOT
BRANCH   1   9
ATOM      9  C   UNL d   1     -49.576  15.104  22.945  0.00  0.00     0.231 C 
ATOM     10  O   UNL d   1     -49.920  15.007  23.689  0.00  0.00    -0.643 OA
ATOM     11  O   UNL d   1     -49.845  15.760  22.512  0.00  0.00    -0.643 OA
ENDBRANCH   1   9
TORSDOF 1
ENDMDL
MODEL 8
REMARK VINA RESULT:      -5.2      8.786      9.440
REMARK  1 active torsions:
REMARK  status: ('A' for Active; 'I' for Inactive)
REMARK    1  A    between atoms: C_6  and  C_1 
ROOT
ATOM      1  C   UNL d   1     -40.493  14.589  17.504  0.00  0.00     0.168 A 
ATOM      2  N   UNL d   1     -40.689  14.021  18.097  0.00  0.00    -0.142 NA
ATOM      3  C   UNL d   1     -39.764  14.394  17.190  0.00  0.00     0.045 A 
ATOM      4  N   UNL d   1     -40.056  13.472  18.136  0.00  0.00    -0.148 NA
ATOM      5  C   UNL d   1     -39.482  13.699  17.576  0.00  0.00     0.105 A 
ATOM      6  C   UNL d   1     -39.195  14.615  16.640  0.00  0.00     0.003 A 
ATOM      7  C   UNL d   1     -38.739  13.501  17.256  0.00  0.00     0.021 A 
ATOM      8  C   UNL d   1     -38.564  14.091  16.658  0.00  0.00     0.002 A 
ENDROOT
BRANCH   1   9
ATOM      9  C   UNL d   1     -40.953  15.221  17.285  0.00  0.00     0.231 C 
ATOM     10  O   UNL d   1     -40.951  15.921  17.722  0.00  0.00    -0.643 OA
ATOM     11  O   UNL d   1     -41.451  15.218  16.620  0.00  0.00    -0.643 OA
ENDBRANCH   1   9
TORSDOF 1
ENDMDL
MODEL 9
REMARK VINA RESULT:      -5.2      8.034      8.558
REMARK  1 active torsions:
REMARK  status: ('A' for Active; 'I' for Inactive)
REMARK    1  A    between atoms: C_6  and  C_1 
ROOT
ATOM      1  C   UNL d   1     -40.700  14.842  17.733  0.00  0.00     0.168 A 
ATOM      2  N   UNL d   1     -40.696  14.004  17.836  0.00  0.00    -0.142 NA
ATOM      3  C   UNL d   1     -40.625  15.194  18.468  0.00  0.00     0.045 A 
ATOM      4  N   UNL d   1     -40.616  13.855  18.659  0.00  0.00    -0.148 NA
ATOM      5  C   UNL d   1     -40.572  14.588  19.052  0.00  0.00     0.105 A 
ATOM      6  C   UNL d   1     -40.581  15.915  18.859  0.00  0.00     0.003 A 
ATOM      7  C   UNL d   1     -40.495  14.947  19.800  0.00  0.00     0.021 A 
ATOM      8  C   UNL d   1     -40.502  15.795  19.667  0.00  0.00     0.002 A 
ENDROOT
BRANCH   1   9
ATOM      9  C   UNL d   1     -40.767  15.230  17.023  0.00  0.00     0.231 C 
ATOM     10  O   UNL d   1     -41.503  15.339  16.666  0.00  0.00    -0.643 OA
ATOM     11  O   UNL d   1     -40.120  15.543  16.607  0.00  0.00    -0.643 OA
ENDBRANCH   1   9
TORSDOF 1
ENDMDL
