MODEL 1
REMARK VINA RESULT:      -7.2      0.000      0.000
REMARK  4 active torsions:
REMARK  status: ('A' for Active; 'I' for Inactive)
REMARK    1  A    between atoms: C_6  and  C_1 
REMARK    2  A    between atoms: C_13  and  C_2 
REMARK    3  A    between atoms: P_4  and  C_3 
REMARK    4  A    between atoms: C_17  and  C_13 
ROOT
ATOM      1  C   UNL d   1     -48.727  13.029  22.285  0.00  0.00     0.112 A 
ATOM      2  C   UNL d   1     -49.238  13.636  22.491  0.00  0.00     0.052 A 
ATOM      3  N   UNL d   1     -49.112  12.546  21.733  0.00  0.00    -0.217 NA
ATOM      4  C   UNL d   1     -49.865  12.861  21.601  0.00  0.00     0.215 A 
ATOM      5  S   UNL d   1     -49.941  13.531  22.067  0.00  0.00    -0.045 SA
ATOM      6  N   UNL d   1     -50.449  12.553  21.082  0.00  0.00    -0.120 N 
ENDROOT
BRANCH   1   7
ATOM      7  C   UNL d   1     -47.964  12.945  22.596  0.00  0.00     0.119 A 
ATOM      8  O   UNL d   1     -47.295  13.281  22.252  0.00  0.00    -0.297 OA
ATOM      9  C   UNL d   1     -46.640  13.080  22.713  0.00  0.00     0.191 A 
ATOM     10  C   UNL d   1     -46.906  12.620  23.342  0.00  0.00     0.036 A 
ATOM     11  C   UNL d   1     -47.721  12.537  23.270  0.00  0.00     0.029 A 
BRANCH   9  12
ATOM     12  P   UNL d   1     -45.852  13.299  22.574  0.00  0.00     0.321 P 
ATOM     13  O   UNL d   1     -45.894  12.955  21.819  0.00  0.00    -0.635 OA
ATOM     14  O   UNL d   1     -45.815  13.642  23.328  0.00  0.00    -0.635 OA
ATOM     15  O   UNL d   1     -45.065  13.519  22.438  0.00  0.00    -0.635 OA
ENDBRANCH   9  12
ENDBRANCH   1   7
BRANCH   2  16
ATOM     16  C   UNL d   1     -49.077  14.244  23.027  0.00  0.00     0.008 C 
BRANCH  16  17
ATOM     17  C   UNL d   1     -49.626  14.849  23.142  0.00  0.00     0.001 C 
ATOM     18  C   UNL d   1     -50.242  14.755  23.698  0.00  0.00     0.000 C 
ATOM     19  C   UNL d   1     -49.566  15.547  22.706  0.00  0.00     0.000 C 
ENDBRANCH  16  17
ENDBRANCH   2  16
TORSDOF 4
ENDMDL
MODEL 2
REMARK VINA RESULT:      -6.3      2.427      3.742
REMARK  4 active torsions:
REMARK  status: ('A' for Active; 'I' for Inactive)
REMARK    1  A    between atoms: C_6  and  C_1 
REMARK    2  A    between atoms: C_13  and  C_2 
REMARK    3  A    between atoms: P_4  and  C_3 
REMARK    4  A    between atoms: C_17  and  C_13 
ROOT
ATOM      1  C   UNL d   1     -47.743  13.799  22.851  0.00  0.00     0.112 A 
ATOM      2  C   UNL d   1     -47.544  13.019  23.003  0.00  0.00     0.052 A 
ATOM      3  N   UNL d   1     -47.061  14.190  22.587  0.00  0.00    -0.217 NA
ATOM      4  C   UNL d   1     -46.442  13.643  22.578  0.00  0.00     0.215 A 
ATOM      5  S   UNL d   1     -46.740  12.923  22.834  0.00  0.00    -0.045 SA
ATOM      6  N   UNL d   1     -45.648  13.794  22.348  0.00  0.00    -0.120 N 
ENDROOT
BRANCH   1   7
ATOM      7  C   UNL d   1     -48.504  14.109  22.954  0.00  0.00     0.119 A 
ATOM      8  O   UNL d   1     -49.012  14.282  22.329  0.00  0.00    -0.297 OA
ATOM      9  C   UNL d   1     -49.715  14.579  22.643  0.00  0.00     0.191 A 
ATOM     10  C   UNL d   1     -49.641  14.589  23.463  0.00  0.00     0.036 A 
ATOM     11  C   UNL d   1     -48.895  14.299  23.654  0.00  0.00     0.029 A 
BRANCH   9  12
ATOM     12  P   UNL d   1     -50.383  14.825  22.215  0.00  0.00     0.321 P 
ATOM     13  O   UNL d   1     -50.645  14.038  22.179  0.00  0.00    -0.635 OA
ATOM     14  O   UNL d   1     -50.117  15.609  22.254  0.00  0.00    -0.635 OA
ATOM     15  O   UNL d   1     -51.047  15.074  21.789  0.00  0.00    -0.635 OA
ENDBRANCH   9  12
ENDBRANCH   1   7
BRANCH   2  16
ATOM     16  C   UNL d   1     -48.059  12.432  23.277  0.00  0.00     0.008 C 
BRANCH  16  17
ATOM     17  C   UNL d   1     -47.845  11.638  23.224  0.00  0.00     0.001 C 
ATOM     18  C   UNL d   1     -47.225  11.339  23.698  0.00  0.00     0.000 C 
ATOM     19  C   UNL d   1     -48.243  11.138  22.702  0.00  0.00     0.000 C 
ENDBRANCH  16  17
ENDBRANCH   2  16
TORSDOF 4
ENDMDL
