MODEL 1
REMARK VINA RESULT:      63.2      0.000      0.000
REMARK  10 active torsions:
REMARK  status: ('A' for Active; 'I' for Inactive)
REMARK    1  A    between atoms: C_14  and  N_1 
REMARK    2  A    between atoms: C_7  and  N_3 
REMARK    3  A    between atoms: C_9  and  C_7 
REMARK       I    between atoms: N_18  and  C_9 
REMARK    4  A    between atoms: C_11  and  C_24 
REMARK       I    between atoms: N_12  and  C_11 
REMARK    5  A    between atoms: C_21  and  N_12 
REMARK    6  A    between atoms: C_13  and  C_25 
REMARK    7  A    between atoms: C_23  and  C_14 
REMARK    8  A    between atoms: C_22  and  N_18 
REMARK    9  A    between atoms: C_25  and  C_22 
REMARK   10  A    between atoms: C_24  and  C_23 
ROOT
ATOM      1  N   UNL d   1      13.801  14.515  -4.822  0.00  0.00    -0.226 N 
ATOM      2  C   UNL d   1      13.717  14.463  -4.003  0.00  0.00     0.342 A 
ATOM      3  N   UNL d   1      13.437  13.761  -3.661  0.00  0.00    -0.254 N 
ATOM      4  C   UNL d   1      13.605  13.865  -5.300  0.00  0.00     0.270 A 
ATOM      5  C   UNL d   1      13.327  13.170  -4.956  0.00  0.00     0.073 A 
ATOM      6  C   UNL d   1      13.243  13.117  -4.137  0.00  0.00     0.073 A 
ATOM      7  O   UNL d   1      13.911  15.110  -3.522  0.00  0.00    -0.245 OA
ATOM      8  O   UNL d   1      13.689  13.918  -6.119  0.00  0.00    -0.266 OA
ATOM      9  C   UNL d   1      13.134  12.527  -5.433  0.00  0.00     0.006 A 
ATOM     10  C   UNL d   1      12.966  12.423  -3.795  0.00  0.00     0.018 A 
ATOM     11  C   UNL d   1      12.856  11.832  -5.090  0.00  0.00     0.000 A 
ATOM     12  C   UNL d   1      12.772  11.779  -4.271  0.00  0.00     0.002 A 
ENDROOT
BRANCH   3  13
ATOM     13  C   UNL d   1      13.353  13.709  -2.841  0.00  0.00     0.147 C 
BRANCH  13  14
ATOM     14  C   UNL d   1      13.967  13.390  -2.392  0.00  0.00     0.297 C 
ATOM     15  O   UNL d   1      14.289  12.656  -2.581  0.00  0.00    -0.264 OA
ATOM     16  N   UNL d   1      14.270  13.810  -1.739  0.00  0.00    -0.205 NA
BRANCH  16  17
ATOM     17  C   UNL d   1      14.886  13.499  -1.283  0.00  0.00     0.102 C 
BRANCH  17  18
ATOM     18  C   UNL d   1      15.061  13.829  -0.547  0.00  0.00     0.021 C 
BRANCH  18  19
ATOM     19  C   UNL d   1      15.334  14.606  -0.494  0.00  0.00     0.002 A 
ATOM     20  C   UNL d   1      16.023  14.777  -0.075  0.00  0.00     0.000 A 
ATOM     21  C   UNL d   1      16.294  15.550  -0.022  0.00  0.00     0.000 A 
ATOM     22  C   UNL d   1      15.873  16.158  -0.391  0.00  0.00     0.000 A 
ATOM     23  C   UNL d   1      15.183  15.987  -0.811  0.00  0.00     0.000 A 
ATOM     24  C   UNL d   1      14.911  15.210  -0.864  0.00  0.00     0.000 A 
ENDBRANCH  18  19
ENDBRANCH  17  18
ENDBRANCH  16  17
ENDBRANCH  13  14
ENDBRANCH   3  13
BRANCH   1  25
ATOM     25  C   UNL d   1      14.080  15.215  -5.165  0.00  0.00     0.088 C 
BRANCH  25  26
ATOM     26  C   UNL d   1      13.609  15.892  -5.179  0.00  0.00     0.024 C 
BRANCH  26  27
ATOM     27  C   UNL d   1      13.565  16.359  -5.855  0.00  0.00     0.064 C 
BRANCH  27  28
ATOM     28  C   UNL d   1      13.914  17.115  -5.855  0.00  0.00     0.279 C 
ATOM     29  N   UNL d   1      13.444  17.784  -5.967  0.00  0.00    -0.208 NA
ATOM     30  O   UNL d   1      14.726  17.203  -5.744  0.00  0.00    -0.265 OA
BRANCH  29  31
ATOM     31  C   UNL d   1      13.774  18.540  -5.969  0.00  0.00     0.085 A 
ATOM     32  C   UNL d   1      14.457  18.859  -5.627  0.00  0.00     0.019 A 
ATOM     33  C   UNL d   1      14.495  19.656  -5.825  0.00  0.00     0.002 A 
ATOM     34  C   UNL d   1      13.837  19.837  -6.290  0.00  0.00     0.002 A 
ATOM     35  C   UNL d   1      13.391  19.157  -6.382  0.00  0.00     0.019 A 
ENDBRANCH  29  31
ENDBRANCH  27  28
ENDBRANCH  26  27
ENDBRANCH  25  26
ENDBRANCH   1  25
TORSDOF 10
ENDMDL
MODEL 2
REMARK VINA RESULT:      66.0      0.948      1.467
REMARK  10 active torsions:
REMARK  status: ('A' for Active; 'I' for Inactive)
REMARK    1  A    between atoms: C_14  and  N_1 
REMARK    2  A    between atoms: C_7  and  N_3 
REMARK    3  A    between atoms: C_9  and  C_7 
REMARK       I    between atoms: N_18  and  C_9 
REMARK    4  A    between atoms: C_11  and  C_24 
REMARK       I    between atoms: N_12  and  C_11 
REMARK    5  A    between atoms: C_21  and  N_12 
REMARK    6  A    between atoms: C_13  and  C_25 
REMARK    7  A    between atoms: C_23  and  C_14 
REMARK    8  A    between atoms: C_22  and  N_18 
REMARK    9  A    between atoms: C_25  and  C_22 
REMARK   10  A    between atoms: C_24  and  C_23 
ROOT
ATOM      1  N   UNL d   1      12.973  14.616  -5.080  0.00  0.00    -0.226 N 
ATOM      2  C   UNL d   1      13.034  14.636  -4.257  0.00  0.00     0.342 A 
ATOM      3  N   UNL d   1      13.154  13.932  -3.836  0.00  0.00    -0.254 N 
ATOM      4  C   UNL d   1      13.031  13.891  -5.481  0.00  0.00     0.270 A 
ATOM      5  C   UNL d   1      13.150  13.194  -5.058  0.00  0.00     0.073 A 
ATOM      6  C   UNL d   1      13.212  13.214  -4.236  0.00  0.00     0.073 A 
ATOM      7  O   UNL d   1      12.977  15.357  -3.853  0.00  0.00    -0.245 OA
ATOM      8  O   UNL d   1      12.969  13.871  -6.303  0.00  0.00    -0.266 OA
ATOM      9  C   UNL d   1      13.208  12.477  -5.459  0.00  0.00     0.006 A 
ATOM     10  C   UNL d   1      13.331  12.518  -3.814  0.00  0.00     0.018 A 
ATOM     11  C   UNL d   1      13.327  11.780  -5.036  0.00  0.00     0.000 A 
ATOM     12  C   UNL d   1      13.388  11.800  -4.214  0.00  0.00     0.002 A 
ENDROOT
BRANCH   3  13
ATOM     13  C   UNL d   1      13.216  13.952  -3.012  0.00  0.00     0.147 C 
BRANCH  13  14
ATOM     14  C   UNL d   1      13.962  14.021  -2.665  0.00  0.00     0.297 C 
ATOM     15  O   UNL d   1      14.642  13.834  -3.090  0.00  0.00    -0.264 OA
ATOM     16  N   UNL d   1      14.034  14.281  -1.876  0.00  0.00    -0.205 NA
BRANCH  16  17
ATOM     17  C   UNL d   1      14.777  14.353  -1.520  0.00  0.00     0.102 C 
BRANCH  17  18
ATOM     18  C   UNL d   1      15.284  13.702  -1.489  0.00  0.00     0.021 C 
BRANCH  18  19
ATOM     19  C   UNL d   1      15.107  13.061  -1.001  0.00  0.00     0.002 A 
ATOM     20  C   UNL d   1      15.624  12.420  -0.953  0.00  0.00     0.000 A 
ATOM     21  C   UNL d   1      15.447  11.782  -0.468  0.00  0.00     0.000 A 
ATOM     22  C   UNL d   1      14.748  11.783  -0.026  0.00  0.00     0.000 A 
ATOM     23  C   UNL d   1      14.231  12.424  -0.075  0.00  0.00     0.000 A 
ATOM     24  C   UNL d   1      14.408  13.065  -0.562  0.00  0.00     0.000 A 
ENDBRANCH  18  19
ENDBRANCH  17  18
ENDBRANCH  16  17
ENDBRANCH  13  14
ENDBRANCH   3  13
BRANCH   1  25
ATOM     25  C   UNL d   1      12.853  15.317  -5.502  0.00  0.00     0.088 C 
BRANCH  25  26
ATOM     26  C   UNL d   1      13.475  15.845  -5.624  0.00  0.00     0.024 C 
BRANCH  26  27
ATOM     27  C   UNL d   1      13.426  16.424  -6.206  0.00  0.00     0.064 C 
BRANCH  27  28
ATOM     28  C   UNL d   1      13.759  17.175  -6.067  0.00  0.00     0.279 C 
ATOM     29  N   UNL d   1      13.404  17.846  -6.389  0.00  0.00    -0.208 NA
ATOM     30  O   UNL d   1      14.441  17.254  -5.611  0.00  0.00    -0.265 OA
BRANCH  29  31
ATOM     31  C   UNL d   1      13.721  18.597  -6.260  0.00  0.00     0.085 A 
ATOM     32  C   UNL d   1      14.485  18.865  -6.084  0.00  0.00     0.019 A 
ATOM     33  C   UNL d   1      14.460  19.684  -6.018  0.00  0.00     0.002 A 
ATOM     34  C   UNL d   1      13.683  19.930  -6.152  0.00  0.00     0.002 A 
ATOM     35  C   UNL d   1      13.225  19.268  -6.302  0.00  0.00     0.019 A 
ENDBRANCH  29  31
ENDBRANCH  27  28
ENDBRANCH  26  27
ENDBRANCH  25  26
ENDBRANCH   1  25
TORSDOF 10
ENDMDL
