MODEL 1
REMARK VINA RESULT:      -2.0      0.000      0.000
REMARK  4 active torsions:
REMARK  status: ('A' for Active; 'I' for Inactive)
REMARK    1  A    between atoms: C_5  and  C_1 
REMARK    2  A    between atoms: C_11  and  C_2 
REMARK       I    between atoms: C_12  and  N_3 
REMARK    3  A    between atoms: C_15  and  N_7 
REMARK    4  A    between atoms: C_14  and  C_9 
ROOT
ATOM      1  C   UNL d   1      32.188  18.172 -23.639  0.00  0.00     0.057 A 
ATOM      2  C   UNL d   1      32.307  17.366 -23.832  0.00  0.00     0.110 A 
ATOM      3  N   UNL d   1      31.572  17.066 -24.079  0.00  0.00    -0.165 NA
ATOM      4  N   UNL d   1      31.020  17.696 -24.032  0.00  0.00    -0.228 N 
ATOM      5  C   UNL d   1      31.413  18.354 -23.764  0.00  0.00     0.103 A 
ENDROOT
BRANCH   1   6
ATOM      6  C   UNL d   1      32.454  18.897 -23.381  0.00  0.00     0.091 A 
ATOM      7  N   UNL d   1      32.783  19.493 -23.872  0.00  0.00    -0.195 N 
ATOM      8  N   UNL d   1      32.983  20.147 -23.385  0.00  0.00    -0.163 NA
ATOM      9  C   UNL d   1      32.901  19.471 -24.677  0.00  0.00     0.281 C 
ATOM     10  C   UNL d   1      32.779  19.951 -22.618  0.00  0.00     0.103 A 
ATOM     11  C   UNL d   1      32.455  19.192 -22.601  0.00  0.00     0.040 A 
ATOM     12  O   UNL d   1      32.671  18.780 -25.076  0.00  0.00    -0.265 OA
ATOM     13  C   UNL d   1      33.235  20.107 -25.092  0.00  0.00     0.068 C 
BRANCH  10  14
ATOM     14  C   UNL d   1      32.870  20.421 -21.936  0.00  0.00     0.019 A 
ATOM     15  C   UNL d   1      33.128  20.069 -21.229  0.00  0.00     0.002 A 
ATOM     16  C   UNL d   1      33.225  20.503 -20.554  0.00  0.00     0.000 A 
ATOM     17  C   UNL d   1      33.067  21.311 -20.558  0.00  0.00     0.000 A 
ATOM     18  C   UNL d   1      32.811  21.663 -21.260  0.00  0.00     0.000 A 
ATOM     19  C   UNL d   1      33.159  21.782 -19.877  0.00  0.00     0.000 C 
ATOM     20  C   UNL d   1      32.713  21.229 -21.941  0.00  0.00     0.002 A 
ENDBRANCH  10  14
ENDBRANCH   1   6
BRANCH   2  21
ATOM     21  C   UNL d   1      32.651  16.624 -23.956  0.00  0.00     0.049 A 
ATOM     22  S   UNL d   1      32.951  16.142 -23.357  0.00  0.00    -0.085 SA
ATOM     23  C   UNL d   1      33.241  15.453 -23.745  0.00  0.00     0.035 A 
ATOM     24  C   UNL d   1      33.114  15.530 -24.554  0.00  0.00     0.007 A 
ATOM     25  C   UNL d   1      32.743  16.268 -24.681  0.00  0.00     0.009 A 
ENDBRANCH   2  21
BRANCH   4  26
ATOM     26  C   UNL d   1      30.209  17.628 -24.233  0.00  0.00     0.083 A 
ATOM     27  C   UNL d   1      29.925  17.948 -24.933  0.00  0.00     0.019 A 
ATOM     28  C   UNL d   1      29.128  17.861 -25.095  0.00  0.00     0.002 A 
ATOM     29  C   UNL d   1      28.604  17.472 -24.595  0.00  0.00     0.000 A 
ATOM     30  C   UNL d   1      28.911  17.151 -23.885  0.00  0.00     0.002 A 
ATOM     31  C   UNL d   1      29.697  17.223 -23.699  0.00  0.00     0.019 A 
ENDBRANCH   4  26
TORSDOF 4
ENDMDL
