MODEL 1
REMARK VINA RESULT:      35.3      0.000      0.000
REMARK  4 active torsions:
REMARK  status: ('A' for Active; 'I' for Inactive)
REMARK    1  A    between atoms: C_2  and  C_1 
REMARK       I    between atoms: N_4  and  C_2 
REMARK    2  A    between atoms: C_5  and  N_4 
REMARK    3  A    between atoms: O_17  and  C_9 
REMARK    4  A    between atoms: O_18  and  C_12 
ROOT
ATOM      1  C   UNL d   1      15.273  13.798  -0.621  0.00  0.00     0.353 C 
ATOM      2  N   UNL d   1      14.835  13.388  -1.195  0.00  0.00    -0.361 NA
ATOM      3  O   UNL d   1      15.647  13.387  -0.028  0.00  0.00    -0.249 OA
ENDROOT
BRANCH   1   4
ATOM      4  C   UNL d   1      15.334  14.630  -0.648  0.00  0.00     0.195 A 
ATOM      5  O   UNL d   1      15.050  15.033  -1.305  0.00  0.00    -0.297 OA
ATOM      6  C   UNL d   1      15.120  15.849  -1.310  0.00  0.00     0.123 A 
ATOM      7  C   UNL d   1      14.832  16.278  -1.981  0.00  0.00     0.027 A 
ATOM      8  C   UNL d   1      15.459  16.269  -0.691  0.00  0.00     0.123 A 
ATOM      9  C   UNL d   1      14.904  17.083  -1.980  0.00  0.00     0.002 A 
ATOM     10  C   UNL d   1      15.247  17.487  -1.348  0.00  0.00     0.002 A 
ATOM     11  C   UNL d   1      15.524  17.091  -0.707  0.00  0.00     0.027 A 
ATOM     12  O   UNL d   1      15.743  15.847  -0.031  0.00  0.00    -0.301 OA
ATOM     13  C   UNL d   1      15.678  15.033  -0.015  0.00  0.00     0.153 A 
ENDBRANCH   1   4
BRANCH   2  14
ATOM     14  C   UNL d   1      14.399  12.996  -1.769  0.00  0.00     0.159 A 
ATOM     15  C   UNL d   1      14.267  13.336  -2.500  0.00  0.00     0.059 A 
ATOM     16  C   UNL d   1      13.824  12.943  -3.087  0.00  0.00     0.107 A 
ATOM     17  C   UNL d   1      13.510  12.173  -2.905  0.00  0.00     0.082 A 
ATOM     18  C   UNL d   1      13.642  11.833  -2.174  0.00  0.00     0.040 A 
ATOM     19 CL   UNL d   1      13.074  11.789  -3.488  0.00  0.00    -0.080 Cl
ATOM     20  C   UNL d   1      14.087  12.238  -1.595  0.00  0.00     0.125 A 
BRANCH  16  21
ATOM     21  O   UNL d   1      13.694  13.277  -3.806  0.00  0.00    -0.327 OA
ATOM     22  C   UNL d   1      13.260  13.975  -3.865  0.00  0.00     0.181 C 
ENDBRANCH  16  21
BRANCH  20  23
ATOM     23  O   UNL d   1      14.220  11.894  -0.857  0.00  0.00    -0.326 OA
ATOM     24  C   UNL d   1      13.579  11.779  -0.362  0.00  0.00     0.181 C 
ENDBRANCH  20  23
ENDBRANCH   2  14
TORSDOF 4
ENDMDL
MODEL 2
REMARK VINA RESULT:      35.8      1.611      4.086
REMARK  4 active torsions:
REMARK  status: ('A' for Active; 'I' for Inactive)
REMARK    1  A    between atoms: C_2  and  C_1 
REMARK       I    between atoms: N_4  and  C_2 
REMARK    2  A    between atoms: C_5  and  N_4 
REMARK    3  A    between atoms: O_17  and  C_9 
REMARK    4  A    between atoms: O_18  and  C_12 
ROOT
ATOM      1  C   UNL d   1      14.186  12.433  -1.751  0.00  0.00     0.353 C 
ATOM      2  N   UNL d   1      14.420  13.182  -1.478  0.00  0.00    -0.361 NA
ATOM      3  O   UNL d   1      14.304  11.779  -1.283  0.00  0.00    -0.249 OA
ENDROOT
BRANCH   1   4
ATOM      4  C   UNL d   1      13.832  12.345  -2.500  0.00  0.00     0.195 A 
ATOM      5  O   UNL d   1      14.160  12.732  -3.148  0.00  0.00    -0.297 OA
ATOM      6  C   UNL d   1      13.795  12.632  -3.874  0.00  0.00     0.123 A 
ATOM      7  C   UNL d   1      14.122  13.024  -4.550  0.00  0.00     0.027 A 
ATOM      8  C   UNL d   1      13.127  12.166  -3.975  0.00  0.00     0.123 A 
ATOM      9  C   UNL d   1      13.758  12.921  -5.265  0.00  0.00     0.002 A 
ATOM     10  C   UNL d   1      13.087  12.449  -5.345  0.00  0.00     0.002 A 
ATOM     11  C   UNL d   1      12.769  12.072  -4.712  0.00  0.00     0.027 A 
ATOM     12  O   UNL d   1      12.806  11.780  -3.310  0.00  0.00    -0.301 OA
ATOM     13  C   UNL d   1      13.161  11.873  -2.581  0.00  0.00     0.153 A 
ENDBRANCH   1   4
BRANCH   2  14
ATOM     14  C   UNL d   1      14.645  13.929  -1.223  0.00  0.00     0.159 A 
ATOM     15  C   UNL d   1      14.489  14.591  -1.675  0.00  0.00     0.059 A 
ATOM     16  C   UNL d   1      14.716  15.352  -1.420  0.00  0.00     0.107 A 
ATOM     17  C   UNL d   1      15.116  15.423  -0.671  0.00  0.00     0.082 A 
ATOM     18  C   UNL d   1      15.271  14.760  -0.219  0.00  0.00     0.040 A 
ATOM     19 CL   UNL d   1      15.337  16.177  -0.425  0.00  0.00    -0.080 Cl
ATOM     20  C   UNL d   1      15.039  14.004  -0.486  0.00  0.00     0.125 A 
BRANCH  16  21
ATOM     21  O   UNL d   1      14.563  16.004  -1.865  0.00  0.00    -0.327 OA
ATOM     22  C   UNL d   1      14.984  16.138  -2.560  0.00  0.00     0.181 C 
ENDBRANCH  16  21
BRANCH  20  23
ATOM     23  O   UNL d   1      15.196  13.335  -0.030  0.00  0.00    -0.326 OA
ATOM     24  C   UNL d   1      15.941  13.001  -0.076  0.00  0.00     0.181 C 
ENDBRANCH  20  23
ENDBRANCH   2  14
TORSDOF 4
ENDMDL
