MODEL 1
REMARK VINA RESULT:      -0.8      0.000      0.000
REMARK  3 active torsions:
REMARK  status: ('A' for Active; 'I' for Inactive)
REMARK    1  A    between atoms: S_12  and  C_7 
REMARK    2  A    between atoms: C_10  and  C_13 
REMARK    3  A    between atoms: C_13  and  S_12 
ROOT
ATOM      1  N   UNL d   1      57.900   0.318  29.603  0.00  0.00    -0.224 N 
ATOM      2  N   UNL d   1      59.303   0.525  29.824  0.00  0.00    -0.241 N 
ATOM      3  C   UNL d   1      58.670   0.430  29.306  0.00  0.00     0.343 A 
ATOM      4  C   UNL d   1      59.168   0.508  30.647  0.00  0.00     0.160 A 
ATOM      5  C   UNL d   1      57.771   0.302  30.417  0.00  0.00     0.273 A 
ATOM      6  C   UNL d   1      58.406   0.397  30.942  0.00  0.00     0.115 A 
ATOM      7  C   UNL d   1      58.274   0.381  31.747  0.00  0.00     0.120 A 
ATOM      8  N   UNL d   1      59.803   0.603  31.169  0.00  0.00    -0.209 NA
ATOM      9  N   UNL d   1      58.905   0.476  32.274  0.00  0.00    -0.220 NA
ATOM     10  C   UNL d   1      59.672   0.587  31.982  0.00  0.00     0.165 A 
ATOM     11  O   UNL d   1      58.800   0.446  28.493  0.00  0.00    -0.245 OA
ATOM     12  O   UNL d   1      57.008   0.191  30.711  0.00  0.00    -0.266 OA
ATOM     13  C   UNL d   1      57.275   0.224  29.083  0.00  0.00     0.107 C 
ATOM     14  C   UNL d   1      60.069   0.636  29.537  0.00  0.00     0.105 C 
ATOM     15  C   UNL d   1      60.301   0.682  32.502  0.00  0.00     0.042 C 
ENDROOT
BRANCH   7  16
ATOM     16  S   UNL d   1      57.511   0.270  32.042  0.00  0.00    -0.067 SA
BRANCH  16  17
ATOM     17  C   UNL d   1      57.387  -0.189  32.716  0.00  0.00     0.040 C 
BRANCH  17  18
ATOM     18  C   UNL d   1      56.626  -0.432  32.921  0.00  0.00     0.045 A 
ATOM     19  C   UNL d   1      56.193   0.006  33.474  0.00  0.00     0.060 A 
ATOM     20 CL   UNL d   1      56.525   0.682  33.817  0.00  0.00    -0.082 Cl
ATOM     21  C   UNL d   1      55.430  -0.224  33.689  0.00  0.00     0.012 A 
ATOM     22  C   UNL d   1      55.102  -0.899  33.346  0.00  0.00     0.003 A 
ATOM     23  C   UNL d   1      55.520  -1.345  32.794  0.00  0.00     0.030 A 
ATOM     24  C   UNL d   1      56.282  -1.111  32.582  0.00  0.00     0.141 A 
ATOM     25  F   UNL d   1      56.707  -1.546  32.035  0.00  0.00    -0.204 F 
ENDBRANCH  17  18
ENDBRANCH  16  17
ENDBRANCH   7  16
TORSDOF 3
ENDMDL
MODEL 2
REMARK VINA RESULT:      -0.3      9.923     10.188
REMARK  3 active torsions:
REMARK  status: ('A' for Active; 'I' for Inactive)
REMARK    1  A    between atoms: S_12  and  C_7 
REMARK    2  A    between atoms: C_10  and  C_13 
REMARK    3  A    between atoms: C_13  and  S_12 
ROOT
ATOM      1  N   UNL d   1      57.342  -9.800  31.195  0.00  0.00    -0.224 N 
ATOM      2  N   UNL d   1      58.309  -9.800  30.134  0.00  0.00    -0.241 N 
ATOM      3  C   UNL d   1      57.523  -9.797  30.382  0.00  0.00     0.343 A 
ATOM      4  C   UNL d   1      58.920  -9.806  30.701  0.00  0.00     0.160 A 
ATOM      5  C   UNL d   1      57.949  -9.806  31.752  0.00  0.00     0.273 A 
ATOM      6  C   UNL d   1      58.741  -9.809  31.507  0.00  0.00     0.115 A 
ATOM      7  C   UNL d   1      59.340  -9.815  32.062  0.00  0.00     0.120 A 
ATOM      8  N   UNL d   1      59.710  -9.809  30.454  0.00  0.00    -0.209 NA
ATOM      9  N   UNL d   1      60.131  -9.818  31.820  0.00  0.00    -0.220 NA
ATOM     10  C   UNL d   1      60.315  -9.815  31.012  0.00  0.00     0.165 A 
ATOM     11  O   UNL d   1      56.918  -9.791  29.824  0.00  0.00    -0.245 OA
ATOM     12  O   UNL d   1      57.769  -9.809  32.557  0.00  0.00    -0.266 OA
ATOM     13  C   UNL d   1      56.560  -9.797  31.435  0.00  0.00     0.107 C 
ATOM     14  C   UNL d   1      58.496  -9.797  29.330  0.00  0.00     0.105 C 
ATOM     15  C   UNL d   1      61.100  -9.818  30.769  0.00  0.00     0.042 C 
ENDROOT
BRANCH   7  16
ATOM     16  S   UNL d   1      59.160  -9.818  32.867  0.00  0.00    -0.067 SA
BRANCH  16  17
ATOM     17  C   UNL d   1      59.517  -9.274  33.376  0.00  0.00     0.040 C 
BRANCH  17  18
ATOM     18  C   UNL d   1      59.601  -9.447  34.178  0.00  0.00     0.045 A 
ATOM     19  C   UNL d   1      60.360  -9.487  34.509  0.00  0.00     0.060 A 
ATOM     20 CL   UNL d   1      61.024  -9.353  34.035  0.00  0.00    -0.082 Cl
ATOM     21  C   UNL d   1      60.460  -9.659  35.310  0.00  0.00     0.012 A 
ATOM     22  C   UNL d   1      59.795  -9.792  35.779  0.00  0.00     0.003 A 
ATOM     23  C   UNL d   1      59.034  -9.756  35.465  0.00  0.00     0.030 A 
ATOM     24  C   UNL d   1      58.938  -9.584  34.664  0.00  0.00     0.141 A 
ATOM     25  F   UNL d   1      58.188  -9.545  34.339  0.00  0.00    -0.204 F 
ENDBRANCH  17  18
ENDBRANCH  16  17
ENDBRANCH   7  16
TORSDOF 3
ENDMDL
MODEL 3
REMARK VINA RESULT:       1.6      2.266      4.345
REMARK  3 active torsions:
REMARK  status: ('A' for Active; 'I' for Inactive)
REMARK    1  A    between atoms: S_12  and  C_7 
REMARK    2  A    between atoms: C_10  and  C_13 
REMARK    3  A    between atoms: C_13  and  S_12 
ROOT
ATOM      1  N   UNL d   1      54.827   0.541  33.711  0.00  0.00    -0.224 N 
ATOM      2  N   UNL d   1      55.418   0.551  35.019  0.00  0.00    -0.241 N 
ATOM      3  C   UNL d   1      54.748   0.526  34.540  0.00  0.00     0.343 A 
ATOM      4  C   UNL d   1      56.173   0.591  34.669  0.00  0.00     0.160 A 
ATOM      5  C   UNL d   1      55.575   0.582  33.369  0.00  0.00     0.273 A 
ATOM      6  C   UNL d   1      56.252   0.607  33.848  0.00  0.00     0.115 A 
ATOM      7  C   UNL d   1      56.992   0.646  33.505  0.00  0.00     0.120 A 
ATOM      8  N   UNL d   1      56.847   0.616  35.148  0.00  0.00    -0.209 NA
ATOM      9  N   UNL d   1      57.669   0.672  33.980  0.00  0.00    -0.220 NA
ATOM     10  C   UNL d   1      57.594   0.656  34.805  0.00  0.00     0.165 A 
ATOM     11  O   UNL d   1      54.001   0.486  34.883  0.00  0.00    -0.245 OA
ATOM     12  O   UNL d   1      55.653   0.597  32.548  0.00  0.00    -0.266 OA
ATOM     13  C   UNL d   1      54.157   0.517  33.241  0.00  0.00     0.107 C 
ATOM     14  C   UNL d   1      55.347   0.536  35.841  0.00  0.00     0.105 C 
ATOM     15  C   UNL d   1      58.265   0.681  35.279  0.00  0.00     0.042 C 
ENDROOT
BRANCH   7  16
ATOM     16  S   UNL d   1      57.070   0.662  32.684  0.00  0.00    -0.067 SA
BRANCH  16  17
ATOM     17  C   UNL d   1      57.550   0.111  32.300  0.00  0.00     0.040 C 
BRANCH  17  18
ATOM     18  C   UNL d   1      57.798   0.243  31.525  0.00  0.00     0.045 A 
ATOM     19  C   UNL d   1      58.562   0.530  31.384  0.00  0.00     0.060 A 
ATOM     20 CL   UNL d   1      59.069   0.682  32.020  0.00  0.00    -0.082 Cl
ATOM     21  C   UNL d   1      58.825   0.667  30.614  0.00  0.00     0.012 A 
ATOM     22  C   UNL d   1      58.316   0.515  29.983  0.00  0.00     0.003 A 
ATOM     23  C   UNL d   1      57.553   0.229  30.106  0.00  0.00     0.030 A 
ATOM     24  C   UNL d   1      57.295   0.094  30.878  0.00  0.00     0.141 A 
ATOM     25  F   UNL d   1      56.540  -0.189  31.013  0.00  0.00    -0.204 F 
ENDBRANCH  17  18
ENDBRANCH  16  17
ENDBRANCH   7  16
TORSDOF 3
ENDMDL
MODEL 4
REMARK VINA RESULT:       2.1      1.901      3.755
REMARK  3 active torsions:
REMARK  status: ('A' for Active; 'I' for Inactive)
REMARK    1  A    between atoms: S_12  and  C_7 
REMARK    2  A    between atoms: C_10  and  C_13 
REMARK    3  A    between atoms: C_13  and  S_12 
ROOT
ATOM      1  N   UNL d   1      55.916   0.062  32.484  0.00  0.00    -0.224 N 
ATOM      2  N   UNL d   1      56.738   0.423  33.603  0.00  0.00    -0.241 N 
ATOM      3  C   UNL d   1      55.994   0.259  33.289  0.00  0.00     0.343 A 
ATOM      4  C   UNL d   1      57.410   0.389  33.111  0.00  0.00     0.160 A 
ATOM      5  C   UNL d   1      56.582   0.029  32.000  0.00  0.00     0.273 A 
ATOM      6  C   UNL d   1      57.332   0.193  32.313  0.00  0.00     0.115 A 
ATOM      7  C   UNL d   1      57.990   0.160  31.831  0.00  0.00     0.120 A 
ATOM      8  N   UNL d   1      58.158   0.552  33.425  0.00  0.00    -0.209 NA
ATOM      9  N   UNL d   1      58.741   0.322  32.140  0.00  0.00    -0.220 NA
ATOM     10  C   UNL d   1      58.823   0.519  32.941  0.00  0.00     0.165 A 
ATOM     11  O   UNL d   1      55.329   0.292  33.773  0.00  0.00    -0.245 OA
ATOM     12  O   UNL d   1      56.504  -0.166  31.203  0.00  0.00    -0.266 OA
ATOM     13  C   UNL d   1      55.173  -0.099  32.178  0.00  0.00     0.107 C 
ATOM     14  C   UNL d   1      56.824   0.619  34.400  0.00  0.00     0.105 C 
ATOM     15  C   UNL d   1      59.567   0.681  33.250  0.00  0.00     0.042 C 
ENDROOT
BRANCH   7  16
ATOM     16  S   UNL d   1      57.913  -0.036  31.033  0.00  0.00    -0.067 SA
BRANCH  16  17
ATOM     17  C   UNL d   1      58.581  -0.188  30.574  0.00  0.00     0.040 C 
BRANCH  17  18
ATOM     18  C   UNL d   1      58.521  -0.641  29.887  0.00  0.00     0.045 A 
ATOM     19  C   UNL d   1      58.418  -0.265  29.157  0.00  0.00     0.060 A 
ATOM     20 CL   UNL d   1      58.376   0.561  29.121  0.00  0.00    -0.082 Cl
ATOM     21  C   UNL d   1      58.356  -0.705  28.462  0.00  0.00     0.012 A 
ATOM     22  C   UNL d   1      58.399  -1.528  28.502  0.00  0.00     0.003 A 
ATOM     23  C   UNL d   1      58.501  -1.917  29.221  0.00  0.00     0.030 A 
ATOM     24  C   UNL d   1      58.562  -1.473  29.913  0.00  0.00     0.141 A 
ATOM     25  F   UNL d   1      58.663  -1.848  30.633  0.00  0.00    -0.204 F 
ENDBRANCH  17  18
ENDBRANCH  16  17
ENDBRANCH   7  16
TORSDOF 3
ENDMDL
