MODEL 1
REMARK VINA RESULT:      62.4      0.000      0.000
REMARK  6 active torsions:
REMARK  status: ('A' for Active; 'I' for Inactive)
REMARK    1  A    between atoms: C_2  and  S_1 
REMARK    2  A    between atoms: N_4  and  S_1 
REMARK    3  A    between atoms: C_18  and  N_4 
REMARK    4  A    between atoms: O_20  and  C_6 
REMARK    5  A    between atoms: C_19  and  C_18 
REMARK    6  A    between atoms: C_24  and  O_20 
ROOT
ATOM      1  S   UNL d   1     -54.784-100.441 -41.970  0.00  0.00     0.327 S 
ATOM      2  O   UNL d   1     -54.785 -99.873 -41.361  0.00  0.00    -0.186 OA
ATOM      3  O   UNL d   1     -54.782-101.004 -42.576  0.00  0.00    -0.186 OA
ENDROOT
BRANCH   1   4
ATOM      4  C   UNL d   1     -54.819-101.043 -41.413  0.00  0.00     0.118 A 
ATOM      5  C   UNL d   1     -54.755-100.872 -40.605  0.00  0.00     0.039 A 
ATOM      6  C   UNL d   1     -54.790-101.475 -40.043  0.00  0.00     0.101 A 
ATOM      7  C   UNL d   1     -54.891-102.263 -40.290  0.00  0.00     0.023 A 
ATOM      8  C   UNL d   1     -54.955-102.436 -41.094  0.00  0.00     0.003 A 
ATOM      9  C   UNL d   1     -54.927-102.869 -39.738  0.00  0.00     0.002 C 
ATOM     10  C   UNL d   1     -54.920-101.831 -41.660  0.00  0.00     0.013 A 
ATOM     11  C   UNL d   1     -54.984-102.009 -42.461  0.00  0.00     0.001 C 
BRANCH   6  12
ATOM     12  O   UNL d   1     -54.727-101.301 -39.247  0.00  0.00    -0.305 OA
BRANCH  12  13
ATOM     13  C   UNL d   1     -55.366-101.439 -38.752  0.00  0.00     0.123 C 
ATOM     14  C   UNL d   1     -55.271-101.349 -37.938  0.00  0.00     0.029 C 
ENDBRANCH  12  13
ENDBRANCH   6  12
ENDBRANCH   1   4
BRANCH   1  15
ATOM     15  N   UNL d   1     -54.749 -99.843 -42.527  0.00  0.00    -0.314 NA
BRANCH  15  16
ATOM     16  C   UNL d   1     -54.714 -99.237 -43.086  0.00  0.00     0.176 C 
BRANCH  16  17
ATOM     17  C   UNL d   1     -55.264 -99.202 -43.705  0.00  0.00     0.035 A 
ATOM     18  C   UNL d   1     -56.043 -98.990 -43.557  0.00  0.00     0.029 A 
ATOM     19  C   UNL d   1     -56.590 -98.955 -44.175  0.00  0.00     0.119 A 
ATOM     20  O   UNL d   1     -57.395 -98.763 -44.190  0.00  0.00    -0.300 OA
ATOM     21  C   UNL d   1     -56.349 -99.137 -44.950  0.00  0.00     0.119 A 
ATOM     22  C   UNL d   1     -57.650 -98.825 -44.975  0.00  0.00     0.304 A 
ATOM     23  O   UNL d   1     -57.007 -99.055 -45.440  0.00  0.00    -0.300 OA
ATOM     24  C   UNL d   1     -55.565 -99.350 -45.097  0.00  0.00     0.026 A 
ATOM     25  C   UNL d   1     -55.023 -99.383 -44.481  0.00  0.00     0.005 A 
ENDBRANCH  16  17
ENDBRANCH  15  16
ENDBRANCH   1  15
TORSDOF 6
ENDMDL
