MODEL 1
REMARK VINA RESULT:      56.1      0.000      0.000
REMARK  3 active torsions:
REMARK  status: ('A' for Active; 'I' for Inactive)
REMARK       I    between atoms: C_4  and  N_1 
REMARK    1  A    between atoms: N_3  and  C_2 
REMARK    2  A    between atoms: C_9  and  C_4 
REMARK    3  A    between atoms: N_10  and  C_5 
ROOT
ATOM      1  C   UNL d   1      13.951  14.164  -3.875  0.00  0.00     0.143 A 
ATOM      2  C   UNL d   1      13.686  13.361  -3.793  0.00  0.00     0.086 A 
ATOM      3  C   UNL d   1      14.208  14.559  -3.183  0.00  0.00     0.030 A 
ATOM      4  C   UNL d   1      14.197  14.166  -2.460  0.00  0.00     0.058 A 
ATOM      5  C   UNL d   1      13.688  13.002  -3.062  0.00  0.00     0.019 A 
ATOM      6  C   UNL d   1      13.945  13.411  -2.399  0.00  0.00     0.006 A 
ENDROOT
BRANCH   4   7
ATOM      7  C   UNL d   1      14.458  14.586  -1.795  0.00  0.00     0.265 C 
ATOM      8  N   UNL d   1      14.801  14.152  -1.161  0.00  0.00    -0.275 N 
ATOM      9  C   UNL d   1      15.091  14.471  -0.459  0.00  0.00     0.067 A 
ATOM     10  C   UNL d   1      14.904  13.331  -1.139  0.00  0.00     0.067 A 
ATOM     11  C   UNL d   1      15.365  13.869  -0.014  0.00  0.00     0.019 A 
ATOM     12  C   UNL d   1      15.184  15.442  -0.022  0.00  0.00     0.019 C 
ATOM     13  C   UNL d   1      15.260  13.151  -0.416  0.00  0.00     0.018 A 
ATOM     14  C   UNL d   1      15.433  12.366  -0.234  0.00  0.00     0.002 A 
ATOM     15  C   UNL d   1      15.250  11.785  -0.768  0.00  0.00     0.000 A 
ATOM     16  C   UNL d   1      14.900  11.956  -1.483  0.00  0.00     0.002 A 
ATOM     17  C   UNL d   1      14.723  12.738  -1.673  0.00  0.00     0.018 A 
ATOM     18  O   UNL d   1      14.391  15.413  -1.739  0.00  0.00    -0.267 OA
ENDBRANCH   4   7
BRANCH   1  19
ATOM     19  N   UNL d   1      13.951  14.536  -4.620  0.00  0.00    -0.112 N 
ATOM     20  O   UNL d   1      14.684  14.714  -5.008  0.00  0.00    -0.532 OA
ATOM     21  O   UNL d   1      13.239  14.739  -4.993  0.00  0.00    -0.532 OA
ENDBRANCH   1  19
BRANCH   2  22
ATOM     22  N   UNL d   1      13.426  12.949  -4.468  0.00  0.00    -0.302 N 
ATOM     23  C   UNL d   1      13.538  13.253  -5.248  0.00  0.00     0.080 A 
ATOM     24  C   UNL d   1      13.272  12.827  -5.902  0.00  0.00     0.019 A 
ATOM     25  C   UNL d   1      12.897  12.107  -5.804  0.00  0.00     0.003 A 
ATOM     26  C   UNL d   1      12.773  11.784  -5.047  0.00  0.00     0.019 A 
ATOM     27  C   UNL d   1      13.038  12.207  -4.390  0.00  0.00     0.080 A 
ENDBRANCH   2  22
TORSDOF 3
ENDMDL
