MODEL 1
REMARK VINA RESULT:      44.3      0.000      0.000
REMARK  3 active torsions:
REMARK  status: ('A' for Active; 'I' for Inactive)
REMARK    1  A    between atoms: N_2  and  S_1 
REMARK    2  A    between atoms: N_3  and  S_1 
REMARK    3  A    between atoms: C_4  and  N_2 
ROOT
ATOM      1  S   UNL d   1     -47.248  31.927  34.836  0.00  0.00     0.351 S 
ATOM      2  O   UNL d   1     -46.810  31.577  34.233  0.00  0.00    -0.180 OA
ATOM      3  O   UNL d   1     -47.686  32.275  35.446  0.00  0.00    -0.180 OA
ENDROOT
BRANCH   1   4
ATOM      4  N   UNL d   1     -46.995  31.403  35.419  0.00  0.00    -0.144 NA
BRANCH   4   5
ATOM      5  C   UNL d   1     -47.310  30.629  35.457  0.00  0.00     0.095 A 
ATOM      6  C   UNL d   1     -47.208  30.168  36.145  0.00  0.00     0.018 A 
ATOM      7  C   UNL d   1     -47.530  29.406  36.186  0.00  0.00     0.002 A 
ATOM      8  C   UNL d   1     -46.677  30.425  36.731  0.00  0.00     0.002 C 
ATOM      9  C   UNL d   1     -47.950  29.100  35.534  0.00  0.00     0.000 A 
ATOM     10  C   UNL d   1     -48.061  29.552  34.839  0.00  0.00     0.002 A 
ATOM     11  C   UNL d   1     -48.253  28.333  35.576  0.00  0.00     0.000 C 
ATOM     12  C   UNL d   1     -47.739  30.323  34.806  0.00  0.00     0.020 A 
ENDBRANCH   4   5
ENDBRANCH   1   4
BRANCH   1  13
ATOM     13  N   UNL d   1     -47.539  32.482  34.302  0.00  0.00    -0.215 N 
ATOM     14  C   UNL d   1     -47.007  32.917  33.834  0.00  0.00     0.093 C 
ATOM     15  C   UNL d   1     -47.300  33.468  33.306  0.00  0.00     0.020 C 
ATOM     16  C   UNL d   1     -48.098  33.675  33.308  0.00  0.00     0.003 C 
ATOM     17  C   UNL d   1     -48.607  33.322  33.850  0.00  0.00     0.020 C 
ATOM     18  C   UNL d   1     -48.318  32.762  34.390  0.00  0.00     0.093 C 
ENDBRANCH   1  13
TORSDOF 3
ENDMDL
