MODEL 1
REMARK VINA RESULT:      35.4      0.000      0.000
REMARK  7 active torsions:
REMARK  status: ('A' for Active; 'I' for Inactive)
REMARK    1  A    between atoms: S_3  and  N_12 
REMARK    2  A    between atoms: C_16  and  S_3 
REMARK    3  A    between atoms: C_17  and  C_7 
REMARK    4  A    between atoms: O_19  and  C_8 
REMARK    5  A    between atoms: O_20  and  C_11 
REMARK    6  A    between atoms: N_12  and  C_18 
REMARK    7  A    between atoms: C_18  and  C_17 
ROOT
ATOM      1  N   UNL d   1      13.290  13.905  -4.626  0.00  0.00    -0.206 NA
ATOM      2  C   UNL d   1      13.504  13.201  -3.404  0.00  0.00     0.042 A 
ATOM      3  C   UNL d   1      13.319  13.198  -4.207  0.00  0.00     0.109 A 
ATOM      4  C   UNL d   1      13.663  13.911  -3.015  0.00  0.00     0.008 A 
ATOM      5  C   UNL d   1      13.448  14.625  -4.242  0.00  0.00     0.279 A 
ATOM      6  C   UNL d   1      13.634  14.627  -3.438  0.00  0.00     0.060 A 
ATOM      7  C   UNL d   1      13.533  12.492  -2.984  0.00  0.00     0.096 A 
ATOM      8  C   UNL d   1      13.161  12.487  -4.592  0.00  0.00     0.112 A 
ATOM      9  O   UNL d   1      13.420  15.333  -4.661  0.00  0.00    -0.265 OA
ATOM     10  C   UNL d   1      13.376  11.782  -3.369  0.00  0.00     0.026 A 
ATOM     11  C   UNL d   1      13.190  11.779  -4.173  0.00  0.00     0.028 A 
ENDROOT
BRANCH   6  12
ATOM     12  C   UNL d   1      13.792  15.342  -3.053  0.00  0.00     0.026 C 
BRANCH  12  13
ATOM     13  C   UNL d   1      14.405  15.388  -2.506  0.00  0.00     0.112 C 
BRANCH  13  14
ATOM     14  N   UNL d   1      14.438  16.020  -1.979  0.00  0.00    -0.157 NA
BRANCH  14  15
ATOM     15  S   UNL d   1      15.089  16.094  -1.474  0.00  0.00     0.286 S 
ATOM     16  O   UNL d   1      15.758  16.345  -1.062  0.00  0.00    -0.198 OA
ATOM     17  O   UNL d   1      15.077  16.796  -1.907  0.00  0.00    -0.198 OA
BRANCH  15  18
ATOM     18  C   UNL d   1      15.084  15.383  -1.050  0.00  0.00     0.117 C 
ATOM     19  C   UNL d   1      15.292  15.375  -0.253  0.00  0.00     0.014 C 
ENDBRANCH  15  18
ENDBRANCH  14  15
ENDBRANCH  13  14
ENDBRANCH  12  13
ENDBRANCH   6  12
BRANCH   7  20
ATOM     20  O   UNL d   1      13.717  12.495  -2.188  0.00  0.00    -0.328 OA
ATOM     21  C   UNL d   1      13.814  11.779  -1.785  0.00  0.00     0.181 C 
ENDBRANCH   7  20
BRANCH   8  22
ATOM     22  O   UNL d   1      12.976  12.484  -5.395  0.00  0.00    -0.327 OA
ATOM     23  C   UNL d   1      13.079  11.790  -5.841  0.00  0.00     0.181 C 
ENDBRANCH   8  22
TORSDOF 7
ENDMDL
MODEL 2
REMARK VINA RESULT:      37.3      1.884      4.398
REMARK  7 active torsions:
REMARK  status: ('A' for Active; 'I' for Inactive)
REMARK    1  A    between atoms: S_3  and  N_12 
REMARK    2  A    between atoms: C_16  and  S_3 
REMARK    3  A    between atoms: C_17  and  C_7 
REMARK    4  A    between atoms: O_19  and  C_8 
REMARK    5  A    between atoms: O_20  and  C_11 
REMARK    6  A    between atoms: N_12  and  C_18 
REMARK    7  A    between atoms: C_18  and  C_17 
ROOT
ATOM      1  N   UNL d   1      14.428  12.410  -1.716  0.00  0.00    -0.206 NA
ATOM      2  C   UNL d   1      14.589  13.826  -1.637  0.00  0.00     0.042 A 
ATOM      3  C   UNL d   1      14.659  13.078  -1.296  0.00  0.00     0.109 A 
ATOM      4  C   UNL d   1      14.289  13.909  -2.401  0.00  0.00     0.008 A 
ATOM      5  C   UNL d   1      14.124  12.485  -2.486  0.00  0.00     0.279 A 
ATOM      6  C   UNL d   1      14.055  13.233  -2.827  0.00  0.00     0.060 A 
ATOM      7  C   UNL d   1      14.821  14.495  -1.216  0.00  0.00     0.096 A 
ATOM      8  C   UNL d   1      14.960  13.000  -0.533  0.00  0.00     0.112 A 
ATOM      9  O   UNL d   1      13.893  11.817  -2.907  0.00  0.00    -0.265 OA
ATOM     10  C   UNL d   1      15.121  14.416  -0.454  0.00  0.00     0.026 A 
ATOM     11  C   UNL d   1      15.191  13.668  -0.113  0.00  0.00     0.028 A 
ENDROOT
BRANCH   6  12
ATOM     12  C   UNL d   1      13.752  13.311  -3.593  0.00  0.00     0.026 C 
BRANCH  12  13
ATOM     13  C   UNL d   1      13.129  12.832  -3.839  0.00  0.00     0.112 C 
BRANCH  13  14
ATOM     14  N   UNL d   1      12.855  12.884  -4.615  0.00  0.00    -0.157 NA
BRANCH  14  15
ATOM     15  S   UNL d   1      13.196  12.406  -5.198  0.00  0.00     0.286 S 
ATOM     16  O   UNL d   1      13.455  11.781  -5.670  0.00  0.00    -0.198 OA
ATOM     17  O   UNL d   1      12.826  11.879  -4.682  0.00  0.00    -0.198 OA
BRANCH  15  18
ATOM     18  C   UNL d   1      13.561  12.951  -5.703  0.00  0.00     0.117 C 
ATOM     19  C   UNL d   1      14.007  12.688  -6.344  0.00  0.00     0.014 C 
ENDBRANCH  15  18
ENDBRANCH  14  15
ENDBRANCH  13  14
ENDBRANCH  12  13
ENDBRANCH   6  12
BRANCH   7  20
ATOM     20  O   UNL d   1      14.752  15.236  -1.554  0.00  0.00    -0.328 OA
ATOM     21  C   UNL d   1      14.901  15.911  -1.101  0.00  0.00     0.181 C 
ENDBRANCH   7  20
BRANCH   8  22
ATOM     22  O   UNL d   1      15.029  12.252  -0.192  0.00  0.00    -0.327 OA
ATOM     23  C   UNL d   1      14.346  11.814  -0.014  0.00  0.00     0.181 C 
ENDBRANCH   8  22
TORSDOF 7
ENDMDL
