MODEL 1
REMARK VINA RESULT:      -5.9      0.000      0.000
REMARK  4 active torsions:
REMARK  status: ('A' for Active; 'I' for Inactive)
REMARK    1  A    between atoms: C_2  and  C_1 
REMARK       I    between atoms: N_5  and  C_2 
REMARK    2  A    between atoms: C_10  and  N_5 
REMARK    3  A    between atoms: O_9  and  C_11 
REMARK    4  A    between atoms: C_12  and  O_9 
ROOT
ATOM      1  C   UNL d   1     -41.162-122.519 -52.348  0.00  0.00     0.085 A 
ATOM      2  C   UNL d   1     -41.154-123.061 -50.799  0.00  0.00     0.100 A 
ATOM      3  C   UNL d   1     -41.126-123.334 -52.197  0.00  0.00     0.021 A 
ATOM      4  C   UNL d   1     -41.194-121.981 -51.722  0.00  0.00     0.021 A 
ATOM      5  C   UNL d   1     -41.123-123.603 -51.425  0.00  0.00     0.026 A 
ATOM      6  C   UNL d   1     -41.189-122.264 -50.946  0.00  0.00     0.026 A 
ENDROOT
BRANCH   1   7
ATOM      7  N   UNL d   1     -41.166-122.246 -53.124  0.00  0.00    -0.206 NA
ATOM      8  C   UNL d   1     -41.748-122.511 -53.651  0.00  0.00     0.303 C 
ATOM      9  O   UNL d   1     -42.317-123.044 -53.395  0.00  0.00    -0.263 OA
BRANCH   8  10
ATOM     10  C   UNL d   1     -41.753-122.238 -54.429  0.00  0.00     0.176 A 
ATOM     11  C   UNL d   1     -42.392-121.884 -54.814  0.00  0.00     0.110 A 
ATOM     12  N   UNL d   1     -42.159-121.696 -55.580  0.00  0.00    -0.233 NA
ATOM     13  C   UNL d   1     -43.129-121.745 -54.486  0.00  0.00     0.023 C 
ATOM     14  C   UNL d   1     -41.366-121.937 -55.671  0.00  0.00     0.259 A 
ATOM     15  O   UNL d   1     -41.123-122.270 -54.955  0.00  0.00    -0.296 OA
ENDBRANCH   8  10
ENDBRANCH   1   7
BRANCH   2  16
ATOM     16  O   UNL d   1     -41.150-123.341 -50.021  0.00  0.00    -0.307 OA
BRANCH  16  17
ATOM     17  C   UNL d   1     -41.823-123.302 -49.568  0.00  0.00     0.100 A 
ATOM     18  C   UNL d   1     -42.455-123.809 -49.736  0.00  0.00     0.025 A 
ATOM     19  C   UNL d   1     -43.136-123.767 -49.275  0.00  0.00     0.002 A 
ATOM     20  C   UNL d   1     -43.195-123.224 -48.645  0.00  0.00     0.000 A 
ATOM     21  C   UNL d   1     -42.544-122.715 -48.485  0.00  0.00     0.002 A 
ATOM     22  C   UNL d   1     -41.874-122.773 -48.957  0.00  0.00     0.025 A 
ENDBRANCH  16  17
ENDBRANCH   2  16
TORSDOF 4
ENDMDL
MODEL 2
REMARK VINA RESULT:      -5.8      1.535      4.870
REMARK  4 active torsions:
REMARK  status: ('A' for Active; 'I' for Inactive)
REMARK    1  A    between atoms: C_2  and  C_1 
REMARK       I    between atoms: N_5  and  C_2 
REMARK    2  A    between atoms: C_10  and  N_5 
REMARK    3  A    between atoms: O_9  and  C_11 
REMARK    4  A    between atoms: C_12  and  O_9 
ROOT
ATOM      1  C   UNL d   1     -41.348-122.746 -51.215  0.00  0.00     0.085 A 
ATOM      2  C   UNL d   1     -41.198-122.179 -52.747  0.00  0.00     0.100 A 
ATOM      3  C   UNL d   1     -41.423-121.933 -51.362  0.00  0.00     0.021 A 
ATOM      4  C   UNL d   1     -41.199-123.270 -51.835  0.00  0.00     0.021 A 
ATOM      5  C   UNL d   1     -41.347-121.652 -52.126  0.00  0.00     0.026 A 
ATOM      6  C   UNL d   1     -41.125-122.974 -52.603  0.00  0.00     0.026 A 
ENDROOT
BRANCH   1   7
ATOM      7  N   UNL d   1     -41.424-123.031 -50.446  0.00  0.00    -0.206 NA
ATOM      8  C   UNL d   1     -42.144-122.948 -50.044  0.00  0.00     0.303 C 
ATOM      9  O   UNL d   1     -42.778-122.580 -50.416  0.00  0.00    -0.263 OA
BRANCH   8  10
ATOM     10  C   UNL d   1     -42.220-123.233 -49.275  0.00  0.00     0.176 A 
ATOM     11  C   UNL d   1     -42.879-123.626 -48.968  0.00  0.00     0.110 A 
ATOM     12  N   UNL d   1     -42.723-123.814 -48.182  0.00  0.00    -0.233 NA
ATOM     13  C   UNL d   1     -43.567-123.796 -49.377  0.00  0.00     0.023 C 
ATOM     14  C   UNL d   1     -41.959-123.535 -48.001  0.00  0.00     0.259 A 
ATOM     15  O   UNL d   1     -41.656-123.177 -48.682  0.00  0.00    -0.296 OA
ENDBRANCH   8  10
ENDBRANCH   1   7
BRANCH   2  16
ATOM     16  O   UNL d   1     -41.123-121.887 -53.517  0.00  0.00    -0.307 OA
BRANCH  16  17
ATOM     17  C   UNL d   1     -41.636-122.127 -54.098  0.00  0.00     0.100 A 
ATOM     18  C   UNL d   1     -42.331-121.699 -54.229  0.00  0.00     0.025 A 
ATOM     19  C   UNL d   1     -42.850-121.945 -54.819  0.00  0.00     0.002 A 
ATOM     20  C   UNL d   1     -42.683-122.617 -55.283  0.00  0.00     0.000 A 
ATOM     21  C   UNL d   1     -41.972-123.043 -55.140  0.00  0.00     0.002 A 
ATOM     22  C   UNL d   1     -41.468-122.781 -54.546  0.00  0.00     0.025 A 
ENDBRANCH  16  17
ENDBRANCH   2  16
TORSDOF 4
ENDMDL
