MODEL 1
REMARK VINA RESULT:      -7.7      0.000      0.000
REMARK  4 active torsions:
REMARK  status: ('A' for Active; 'I' for Inactive)
REMARK    1  A    between atoms: C_6  and  N_1 
REMARK    2  A    between atoms: C_7  and  C_6 
REMARK    3  A    between atoms: C_14  and  C_7 
REMARK    4  A    between atoms: N_10  and  C_14 
ROOT
ATOM      1  N   UNL d   1     -47.929  13.382  22.575  0.00  0.00    -0.303 N 
ATOM      2  C   UNL d   1     -48.410  14.048  22.672  0.00  0.00     0.064 A 
ATOM      3  C   UNL d   1     -49.094  13.816  23.084  0.00  0.00     0.018 A 
ATOM      4  C   UNL d   1     -48.313  12.739  22.925  0.00  0.00     0.064 A 
ATOM      5  C   UNL d   1     -49.030  13.006  23.239  0.00  0.00     0.018 A 
ATOM      6  C   UNL d   1     -48.318  14.837  22.441  0.00  0.00     0.018 A 
ATOM      7  C   UNL d   1     -49.677  14.371  23.261  0.00  0.00     0.002 A 
ATOM      8  C   UNL d   1     -48.102  11.944  22.999  0.00  0.00     0.018 A 
ATOM      9  C   UNL d   1     -49.533  12.478  23.625  0.00  0.00     0.002 A 
ATOM     10  C   UNL d   1     -49.586  15.157  23.031  0.00  0.00     0.000 A 
ATOM     11  C   UNL d   1     -48.909  15.395  22.621  0.00  0.00     0.002 A 
ATOM     12  C   UNL d   1     -48.604  11.421  23.384  0.00  0.00     0.002 A 
ATOM     13  C   UNL d   1     -49.321  11.689  23.697  0.00  0.00     0.000 A 
ENDROOT
BRANCH   1  14
ATOM     14  C   UNL d   1     -47.203  13.369  22.197  0.00  0.00     0.124 C 
BRANCH  14  15
ATOM     15  C   UNL d   1     -46.506  13.412  22.628  0.00  0.00     0.232 C 
ATOM     16  O   UNL d   1     -46.463  13.868  23.311  0.00  0.00    -0.283 OA
BRANCH  15  17
ATOM     17  C   UNL d   1     -45.844  12.991  22.371  0.00  0.00     0.142 C 
BRANCH  17  18
ATOM     18  N   UNL d   1     -45.123  13.380  22.260  0.00  0.00    -0.237 NA
ATOM     19  C   UNL d   1     -44.507  12.986  21.880  0.00  0.00     0.120 C 
ENDBRANCH  17  18
ENDBRANCH  15  17
ENDBRANCH  14  15
ENDBRANCH   1  14
TORSDOF 4
ENDMDL
MODEL 2
REMARK VINA RESULT:      -7.6      1.256      3.109
REMARK  4 active torsions:
REMARK  status: ('A' for Active; 'I' for Inactive)
REMARK    1  A    between atoms: C_6  and  N_1 
REMARK    2  A    between atoms: C_7  and  C_6 
REMARK    3  A    between atoms: C_14  and  C_7 
REMARK    4  A    between atoms: N_10  and  C_14 
ROOT
ATOM      1  N   UNL d   1     -48.236  13.614  23.210  0.00  0.00    -0.303 N 
ATOM      2  C   UNL d   1     -47.436  13.672  23.006  0.00  0.00     0.064 A 
ATOM      3  C   UNL d   1     -47.106  12.909  23.030  0.00  0.00     0.018 A 
ATOM      4  C   UNL d   1     -48.401  12.817  23.361  0.00  0.00     0.064 A 
ATOM      5  C   UNL d   1     -47.706  12.384  23.250  0.00  0.00     0.018 A 
ATOM      6  C   UNL d   1     -46.962  14.317  22.800  0.00  0.00     0.018 A 
ATOM      7  C   UNL d   1     -46.310  12.798  22.849  0.00  0.00     0.002 A 
ATOM      8  C   UNL d   1     -49.096  12.432  23.586  0.00  0.00     0.018 A 
ATOM      9  C   UNL d   1     -47.708  11.566  23.364  0.00  0.00     0.002 A 
ATOM     10  C   UNL d   1     -45.837  13.441  22.644  0.00  0.00     0.000 A 
ATOM     11  C   UNL d   1     -46.158  14.202  22.618  0.00  0.00     0.002 A 
ATOM     12  C   UNL d   1     -49.095  11.619  23.698  0.00  0.00     0.002 A 
ATOM     13  C   UNL d   1     -48.400  11.185  23.587  0.00  0.00     0.000 A 
ENDROOT
BRANCH   1  14
ATOM     14  C   UNL d   1     -48.763  14.238  23.254  0.00  0.00     0.124 C 
BRANCH  14  15
ATOM     15  C   UNL d   1     -49.295  14.380  22.645  0.00  0.00     0.232 C 
ATOM     16  O   UNL d   1     -49.057  14.322  21.860  0.00  0.00    -0.283 OA
BRANCH  15  17
ATOM     17  C   UNL d   1     -50.074  14.583  22.826  0.00  0.00     0.142 C 
BRANCH  17  18
ATOM     18  N   UNL d   1     -50.361  15.335  22.636  0.00  0.00    -0.237 NA
ATOM     19  C   UNL d   1     -51.058  15.601  22.986  0.00  0.00     0.120 C 
ENDBRANCH  17  18
ENDBRANCH  15  17
ENDBRANCH  14  15
ENDBRANCH   1  14
TORSDOF 4
ENDMDL
MODEL 3
REMARK VINA RESULT:      -7.5      1.235      3.525
REMARK  4 active torsions:
REMARK  status: ('A' for Active; 'I' for Inactive)
REMARK    1  A    between atoms: C_6  and  N_1 
REMARK    2  A    between atoms: C_7  and  C_6 
REMARK    3  A    between atoms: C_14  and  C_7 
REMARK    4  A    between atoms: N_10  and  C_14 
ROOT
ATOM      1  N   UNL d   1     -48.208  13.577  23.194  0.00  0.00    -0.303 N 
ATOM      2  C   UNL d   1     -48.399  12.787  23.348  0.00  0.00     0.064 A 
ATOM      3  C   UNL d   1     -47.718  12.327  23.223  0.00  0.00     0.018 A 
ATOM      4  C   UNL d   1     -47.411  13.607  22.975  0.00  0.00     0.064 A 
ATOM      5  C   UNL d   1     -47.109  12.837  22.992  0.00  0.00     0.018 A 
ATOM      6  C   UNL d   1     -49.102  12.422  23.585  0.00  0.00     0.018 A 
ATOM      7  C   UNL d   1     -47.745  11.511  23.335  0.00  0.00     0.002 A 
ATOM      8  C   UNL d   1     -46.922  14.237  22.761  0.00  0.00     0.018 A 
ATOM      9  C   UNL d   1     -46.320  12.700  22.796  0.00  0.00     0.002 A 
ATOM     10  C   UNL d   1     -48.445  11.147  23.571  0.00  0.00     0.000 A 
ATOM     11  C   UNL d   1     -49.126  11.598  23.698  0.00  0.00     0.002 A 
ATOM     12  C   UNL d   1     -46.137  14.097  22.566  0.00  0.00     0.002 A 
ATOM     13  C   UNL d   1     -45.835  13.328  22.584  0.00  0.00     0.000 A 
ENDROOT
BRANCH   1  14
ATOM     14  C   UNL d   1     -48.722  14.211  23.252  0.00  0.00     0.124 C 
BRANCH  14  15
ATOM     15  C   UNL d   1     -49.263  14.368  22.654  0.00  0.00     0.232 C 
ATOM     16  O   UNL d   1     -49.037  14.327  21.865  0.00  0.00    -0.283 OA
BRANCH  15  17
ATOM     17  C   UNL d   1     -50.039  14.568  22.852  0.00  0.00     0.142 C 
BRANCH  17  18
ATOM     18  N   UNL d   1     -50.326  15.326  22.688  0.00  0.00    -0.237 NA
ATOM     19  C   UNL d   1     -51.008  15.590  23.066  0.00  0.00     0.120 C 
ENDBRANCH  17  18
ENDBRANCH  15  17
ENDBRANCH  14  15
ENDBRANCH   1  14
TORSDOF 4
ENDMDL
MODEL 4
REMARK VINA RESULT:      -7.4      1.026      2.338
REMARK  4 active torsions:
REMARK  status: ('A' for Active; 'I' for Inactive)
REMARK    1  A    between atoms: C_6  and  N_1 
REMARK    2  A    between atoms: C_7  and  C_6 
REMARK    3  A    between atoms: C_14  and  C_7 
REMARK    4  A    between atoms: N_10  and  C_14 
ROOT
ATOM      1  N   UNL d   1     -48.242  13.193  22.792  0.00  0.00    -0.303 N 
ATOM      2  C   UNL d   1     -48.909  12.771  23.038  0.00  0.00     0.064 A 
ATOM      3  C   UNL d   1     -49.537  13.308  23.129  0.00  0.00     0.018 A 
ATOM      4  C   UNL d   1     -48.455  13.990  22.730  0.00  0.00     0.064 A 
ATOM      5  C   UNL d   1     -49.253  14.060  22.937  0.00  0.00     0.018 A 
ATOM      6  C   UNL d   1     -49.031  11.967  23.193  0.00  0.00     0.018 A 
ATOM      7  C   UNL d   1     -50.277  13.039  23.372  0.00  0.00     0.002 A 
ATOM      8  C   UNL d   1     -48.025  14.660  22.511  0.00  0.00     0.018 A 
ATOM      9  C   UNL d   1     -49.617  14.800  22.925  0.00  0.00     0.002 A 
ATOM     10  C   UNL d   1     -50.399  12.240  23.526  0.00  0.00     0.000 A 
ATOM     11  C   UNL d   1     -49.780  11.700  23.438  0.00  0.00     0.002 A 
ATOM     12  C   UNL d   1     -48.391  15.395  22.500  0.00  0.00     0.002 A 
ATOM     13  C   UNL d   1     -49.188  15.465  22.708  0.00  0.00     0.000 A 
ENDROOT
BRANCH   1  14
ATOM     14  C   UNL d   1     -47.504  12.872  22.639  0.00  0.00     0.124 C 
BRANCH  14  15
ATOM     15  C   UNL d   1     -46.949  12.793  23.238  0.00  0.00     0.232 C 
ATOM     16  O   UNL d   1     -46.656  13.456  23.627  0.00  0.00    -0.283 OA
BRANCH  15  17
ATOM     17  C   UNL d   1     -46.686  12.041  23.450  0.00  0.00     0.142 C 
BRANCH  17  18
ATOM     18  N   UNL d   1     -45.882  11.909  23.594  0.00  0.00    -0.237 NA
ATOM     19  C   UNL d   1     -45.612  11.137  23.695  0.00  0.00     0.120 C 
ENDBRANCH  17  18
ENDBRANCH  15  17
ENDBRANCH  14  15
ENDBRANCH   1  14
TORSDOF 4
ENDMDL
MODEL 5
REMARK VINA RESULT:      -7.3      1.496      3.031
REMARK  4 active torsions:
REMARK  status: ('A' for Active; 'I' for Inactive)
REMARK    1  A    between atoms: C_6  and  N_1 
REMARK    2  A    between atoms: C_7  and  C_6 
REMARK    3  A    between atoms: C_14  and  C_7 
REMARK    4  A    between atoms: N_10  and  C_14 
ROOT
ATOM      1  N   UNL d   1     -48.136  13.028  23.080  0.00  0.00    -0.303 N 
ATOM      2  C   UNL d   1     -47.591  13.631  22.930  0.00  0.00     0.064 A 
ATOM      3  C   UNL d   1     -46.827  13.327  23.054  0.00  0.00     0.018 A 
ATOM      4  C   UNL d   1     -47.712  12.351  23.296  0.00  0.00     0.064 A 
ATOM      5  C   UNL d   1     -46.906  12.535  23.280  0.00  0.00     0.018 A 
ATOM      6  C   UNL d   1     -47.686  14.419  22.696  0.00  0.00     0.018 A 
ATOM      7  C   UNL d   1     -46.168  13.809  22.944  0.00  0.00     0.002 A 
ATOM      8  C   UNL d   1     -47.957  11.591  23.506  0.00  0.00     0.018 A 
ATOM      9  C   UNL d   1     -46.348  11.959  23.474  0.00  0.00     0.002 A 
ATOM     10  C   UNL d   1     -46.262  14.594  22.712  0.00  0.00     0.000 A 
ATOM     11  C   UNL d   1     -47.018  14.904  22.587  0.00  0.00     0.002 A 
ATOM     12  C   UNL d   1     -47.400  11.020  23.698  0.00  0.00     0.002 A 
ATOM     13  C   UNL d   1     -46.594  11.204  23.682  0.00  0.00     0.000 A 
ENDROOT
BRANCH   1  14
ATOM     14  C   UNL d   1     -48.950  13.095  23.022  0.00  0.00     0.124 C 
BRANCH  14  15
ATOM     15  C   UNL d   1     -49.329  12.996  22.301  0.00  0.00     0.232 C 
ATOM     16  O   UNL d   1     -48.930  12.666  21.661  0.00  0.00    -0.283 OA
BRANCH  15  17
ATOM     17  C   UNL d   1     -50.116  13.230  22.221  0.00  0.00     0.142 C 
BRANCH  17  18
ATOM     18  N   UNL d   1     -50.445  13.325  21.468  0.00  0.00    -0.237 NA
ATOM     19  C   UNL d   1     -51.064  13.858  21.363  0.00  0.00     0.120 C 
ENDBRANCH  17  18
ENDBRANCH  15  17
ENDBRANCH  14  15
ENDBRANCH   1  14
TORSDOF 4
ENDMDL
MODEL 6
REMARK VINA RESULT:      -5.6      8.768      9.671
REMARK  4 active torsions:
REMARK  status: ('A' for Active; 'I' for Inactive)
REMARK    1  A    between atoms: C_6  and  N_1 
REMARK    2  A    between atoms: C_7  and  C_6 
REMARK    3  A    between atoms: C_14  and  C_7 
REMARK    4  A    between atoms: N_10  and  C_14 
ROOT
ATOM      1  N   UNL d   1     -40.016  14.403  18.543  0.00  0.00    -0.303 N 
ATOM      2  C   UNL d   1     -40.390  14.913  18.010  0.00  0.00     0.064 A 
ATOM      3  C   UNL d   1     -40.074  14.777  17.254  0.00  0.00     0.018 A 
ATOM      4  C   UNL d   1     -39.468  13.952  18.119  0.00  0.00     0.064 A 
ATOM      5  C   UNL d   1     -39.504  14.182  17.325  0.00  0.00     0.018 A 
ATOM      6  C   UNL d   1     -40.980  15.485  18.111  0.00  0.00     0.018 A 
ATOM      7  C   UNL d   1     -40.346  15.210  16.609  0.00  0.00     0.002 A 
ATOM      8  C   UNL d   1     -38.941  13.361  18.354  0.00  0.00     0.018 A 
ATOM      9  C   UNL d   1     -39.013  13.820  16.769  0.00  0.00     0.002 A 
ATOM     10  C   UNL d   1     -40.933  15.780  16.708  0.00  0.00     0.000 A 
ATOM     11  C   UNL d   1     -41.252  15.921  17.457  0.00  0.00     0.002 A 
ATOM     12  C   UNL d   1     -38.454  13.003  17.799  0.00  0.00     0.002 A 
ATOM     13  C   UNL d   1     -38.490  13.233  17.005  0.00  0.00     0.000 A 
ENDROOT
BRANCH   1  14
ATOM     14  C   UNL d   1     -40.166  14.359  19.347  0.00  0.00     0.124 C 
BRANCH  14  15
ATOM     15  C   UNL d   1     -39.674  14.736  19.886  0.00  0.00     0.232 C 
ATOM     16  O   UNL d   1     -39.341  15.467  19.709  0.00  0.00    -0.283 OA
BRANCH  15  17
ATOM     17  C   UNL d   1     -39.515  14.374  20.610  0.00  0.00     0.142 C 
BRANCH  17  18
ATOM     18  N   UNL d   1     -39.509  14.823  21.305  0.00  0.00    -0.237 NA
ATOM     19  C   UNL d   1     -39.265  14.472  22.009  0.00  0.00     0.120 C 
ENDBRANCH  17  18
ENDBRANCH  15  17
ENDBRANCH  14  15
ENDBRANCH   1  14
TORSDOF 4
ENDMDL
MODEL 7
REMARK VINA RESULT:      -4.8      8.412      9.638
REMARK  4 active torsions:
REMARK  status: ('A' for Active; 'I' for Inactive)
REMARK    1  A    between atoms: C_6  and  N_1 
REMARK    2  A    between atoms: C_7  and  C_6 
REMARK    3  A    between atoms: C_14  and  C_7 
REMARK    4  A    between atoms: N_10  and  C_14 
ROOT
ATOM      1  N   UNL d   1     -39.481  14.718  18.383  0.00  0.00    -0.303 N 
ATOM      2  C   UNL d   1     -39.785  14.890  19.133  0.00  0.00     0.064 A 
ATOM      3  C   UNL d   1     -40.465  15.357  19.037  0.00  0.00     0.018 A 
ATOM      4  C   UNL d   1     -39.972  15.079  17.823  0.00  0.00     0.064 A 
ATOM      5  C   UNL d   1     -40.577  15.472  18.226  0.00  0.00     0.018 A 
ATOM      6  C   UNL d   1     -39.533  14.683  19.894  0.00  0.00     0.018 A 
ATOM      7  C   UNL d   1     -40.886  15.613  19.697  0.00  0.00     0.002 A 
ATOM      8  C   UNL d   1     -39.944  15.099  16.998  0.00  0.00     0.018 A 
ATOM      9  C   UNL d   1     -41.154  15.884  17.802  0.00  0.00     0.002 A 
ATOM     10  C   UNL d   1     -40.636  15.407  20.455  0.00  0.00     0.000 A 
ATOM     11  C   UNL d   1     -39.961  14.943  20.558  0.00  0.00     0.002 A 
ATOM     12  C   UNL d   1     -40.519  15.509  16.579  0.00  0.00     0.002 A 
ATOM     13  C   UNL d   1     -41.124  15.903  16.982  0.00  0.00     0.000 A 
ENDROOT
BRANCH   1  14
ATOM     14  C   UNL d   1     -38.813  14.271  18.230  0.00  0.00     0.124 C 
BRANCH  14  15
ATOM     15  C   UNL d   1     -38.877  13.478  18.026  0.00  0.00     0.232 C 
ATOM     16  O   UNL d   1     -39.569  13.061  18.181  0.00  0.00    -0.283 OA
BRANCH  15  17
ATOM     17  C   UNL d   1     -38.240  13.100  17.663  0.00  0.00     0.142 C 
BRANCH  17  18
ATOM     18  N   UNL d   1     -38.004  12.349  17.917  0.00  0.00    -0.237 NA
ATOM     19  C   UNL d   1     -37.943  11.738  17.368  0.00  0.00     0.120 C 
ENDBRANCH  17  18
ENDBRANCH  15  17
ENDBRANCH  14  15
ENDBRANCH   1  14
TORSDOF 4
ENDMDL
