MODEL 1
REMARK VINA RESULT:      -7.3      0.000      0.000
REMARK  6 active torsions:
REMARK  status: ('A' for Active; 'I' for Inactive)
REMARK    1  A    between atoms: C_6  and  N_1 
REMARK    2  A    between atoms: S_7  and  C_2 
REMARK    3  A    between atoms: C_12  and  S_7 
REMARK    4  A    between atoms: C_8  and  O_9 
REMARK    5  A    between atoms: O_9  and  C_13 
REMARK    6  A    between atoms: C_13  and  C_12 
ROOT
ATOM      1  N   UNL d   1     -50.496  14.581  22.990  0.00  0.00    -0.186 N 
ATOM      2  C   UNL d   1     -49.757  14.917  22.980  0.00  0.00     0.219 A 
ATOM      3  N   UNL d   1     -49.857  15.754  22.989  0.00  0.00    -0.101 NA
ATOM      4  N   UNL d   1     -50.645  15.922  23.005  0.00  0.00    -0.022 NA
ATOM      5  N   UNL d   1     -51.059  15.209  23.006  0.00  0.00    -0.038 NA
ENDROOT
BRANCH   2   6
ATOM      6  S   UNL d   1     -49.012  14.501  22.963  0.00  0.00    -0.044 SA
BRANCH   6   7
ATOM      7  C   UNL d   1     -48.313  14.926  22.857  0.00  0.00     0.065 C 
BRANCH   7   8
ATOM      8  C   UNL d   1     -47.621  14.533  22.592  0.00  0.00     0.130 C 
BRANCH   8   9
ATOM      9  O   UNL d   1     -47.068  14.272  23.138  0.00  0.00    -0.305 OA
BRANCH   9  10
ATOM     10  C   UNL d   1     -46.487  13.709  22.934  0.00  0.00     0.100 A 
ATOM     11  C   UNL d   1     -46.561  12.928  23.220  0.00  0.00     0.025 A 
ATOM     12  C   UNL d   1     -45.996  12.359  23.028  0.00  0.00     0.002 A 
ATOM     13  C   UNL d   1     -45.357  12.558  22.553  0.00  0.00     0.000 A 
ATOM     14  C   UNL d   1     -45.276  13.325  22.267  0.00  0.00     0.002 A 
ATOM     15  C   UNL d   1     -45.843  13.910  22.455  0.00  0.00     0.025 A 
ENDBRANCH   9  10
ENDBRANCH   8   9
ENDBRANCH   7   8
ENDBRANCH   6   7
ENDBRANCH   2   6
BRANCH   1  16
ATOM     16  C   UNL d   1     -50.573  13.744  22.984  0.00  0.00     0.087 A 
ATOM     17  C   UNL d   1     -50.637  13.336  22.233  0.00  0.00     0.019 A 
ATOM     18  C   UNL d   1     -50.711  12.514  22.247  0.00  0.00     0.002 A 
ATOM     19  C   UNL d   1     -50.724  12.090  22.973  0.00  0.00     0.000 A 
ATOM     20  C   UNL d   1     -50.662  12.499  23.680  0.00  0.00     0.002 A 
ATOM     21  C   UNL d   1     -50.586  13.321  23.686  0.00  0.00     0.019 A 
ENDBRANCH   1  16
TORSDOF 6
ENDMDL
MODEL 2
REMARK VINA RESULT:      -6.8      1.594      2.165
REMARK  6 active torsions:
REMARK  status: ('A' for Active; 'I' for Inactive)
REMARK    1  A    between atoms: C_6  and  N_1 
REMARK    2  A    between atoms: S_7  and  C_2 
REMARK    3  A    between atoms: C_12  and  S_7 
REMARK    4  A    between atoms: C_8  and  O_9 
REMARK    5  A    between atoms: O_9  and  C_13 
REMARK    6  A    between atoms: C_13  and  C_12 
ROOT
ATOM      1  N   UNL d   1     -50.534  12.552  23.234  0.00  0.00    -0.186 N 
ATOM      2  C   UNL d   1     -49.762  12.301  23.260  0.00  0.00     0.219 A 
ATOM      3  N   UNL d   1     -49.761  11.509  23.550  0.00  0.00    -0.101 NA
ATOM      4  N   UNL d   1     -50.521  11.285  23.698  0.00  0.00    -0.022 NA
ATOM      5  N   UNL d   1     -51.015  11.917  23.509  0.00  0.00    -0.038 NA
ENDROOT
BRANCH   2   6
ATOM      6  S   UNL d   1     -49.075  12.753  23.034  0.00  0.00    -0.044 SA
BRANCH   6   7
ATOM      7  C   UNL d   1     -48.327  12.502  23.275  0.00  0.00     0.065 C 
BRANCH   7   8
ATOM      8  C   UNL d   1     -47.642  12.816  22.907  0.00  0.00     0.130 C 
BRANCH   8   9
ATOM      9  O   UNL d   1     -46.930  12.823  23.313  0.00  0.00    -0.305 OA
BRANCH   9  10
ATOM     10  C   UNL d   1     -46.200  12.871  22.912  0.00  0.00     0.100 A 
ATOM     11  C   UNL d   1     -45.702  12.200  22.897  0.00  0.00     0.025 A 
ATOM     12  C   UNL d   1     -44.977  12.230  22.504  0.00  0.00     0.002 A 
ATOM     13  C   UNL d   1     -44.742  12.919  22.126  0.00  0.00     0.000 A 
ATOM     14  C   UNL d   1     -45.226  13.583  22.136  0.00  0.00     0.002 A 
ATOM     15  C   UNL d   1     -45.963  13.566  22.531  0.00  0.00     0.025 A 
ENDBRANCH   9  10
ENDBRANCH   8   9
ENDBRANCH   7   8
ENDBRANCH   6   7
ENDBRANCH   2   6
BRANCH   1  16
ATOM     16  C   UNL d   1     -50.710  13.328  22.964  0.00  0.00     0.087 A 
ATOM     17  C   UNL d   1     -50.871  13.455  22.132  0.00  0.00     0.019 A 
ATOM     18  C   UNL d   1     -51.042  14.224  21.885  0.00  0.00     0.002 A 
ATOM     19  C   UNL d   1     -51.058  14.862  22.431  0.00  0.00     0.000 A 
ATOM     20  C   UNL d   1     -50.901  14.720  23.223  0.00  0.00     0.002 A 
ATOM     21  C   UNL d   1     -50.728  13.959  23.488  0.00  0.00     0.019 A 
ENDBRANCH   1  16
TORSDOF 6
ENDMDL
MODEL 3
REMARK VINA RESULT:      -6.5      2.055      2.956
REMARK  6 active torsions:
REMARK  status: ('A' for Active; 'I' for Inactive)
REMARK    1  A    between atoms: C_6  and  N_1 
REMARK    2  A    between atoms: S_7  and  C_2 
REMARK    3  A    between atoms: C_12  and  S_7 
REMARK    4  A    between atoms: C_8  and  O_9 
REMARK    5  A    between atoms: O_9  and  C_13 
REMARK    6  A    between atoms: C_13  and  C_12 
ROOT
ATOM      1  N   UNL d   1     -49.579  12.673  23.031  0.00  0.00    -0.186 N 
ATOM      2  C   UNL d   1     -49.049  12.097  23.246  0.00  0.00     0.219 A 
ATOM      3  N   UNL d   1     -49.482  11.383  23.366  0.00  0.00    -0.101 NA
ATOM      4  N   UNL d   1     -50.263  11.526  23.226  0.00  0.00    -0.022 NA
ATOM      5  N   UNL d   1     -50.345  12.319  23.017  0.00  0.00    -0.038 NA
ENDROOT
BRANCH   2   6
ATOM      6  S   UNL d   1     -48.206  12.193  23.335  0.00  0.00    -0.044 SA
BRANCH   6   7
ATOM      7  C   UNL d   1     -47.738  11.534  23.502  0.00  0.00     0.065 C 
BRANCH   7   8
ATOM      8  C   UNL d   1     -46.904  11.612  23.541  0.00  0.00     0.130 C 
BRANCH   8   9
ATOM      9  O   UNL d   1     -46.440  10.951  23.677  0.00  0.00    -0.305 OA
BRANCH   9  10
ATOM     10  C   UNL d   1     -45.627  10.943  23.490  0.00  0.00     0.100 A 
ATOM     11  C   UNL d   1     -45.170  10.276  23.697  0.00  0.00     0.025 A 
ATOM     12  C   UNL d   1     -44.365  10.252  23.520  0.00  0.00     0.002 A 
ATOM     13  C   UNL d   1     -44.009  10.885  23.138  0.00  0.00     0.000 A 
ATOM     14  C   UNL d   1     -44.451  11.546  22.930  0.00  0.00     0.002 A 
ATOM     15  C   UNL d   1     -45.268  11.582  23.105  0.00  0.00     0.025 A 
ENDBRANCH   9  10
ENDBRANCH   8   9
ENDBRANCH   7   8
ENDBRANCH   6   7
ENDBRANCH   2   6
BRANCH   1  16
ATOM     16  C   UNL d   1     -49.306  13.452  22.874  0.00  0.00     0.087 A 
ATOM     17  C   UNL d   1     -49.401  14.057  23.473  0.00  0.00     0.019 A 
ATOM     18  C   UNL d   1     -49.127  14.816  23.300  0.00  0.00     0.002 A 
ATOM     19  C   UNL d   1     -48.766  14.991  22.562  0.00  0.00     0.000 A 
ATOM     20  C   UNL d   1     -48.685  14.398  22.002  0.00  0.00     0.002 A 
ATOM     21  C   UNL d   1     -48.953  13.633  22.157  0.00  0.00     0.019 A 
ENDBRANCH   1  16
TORSDOF 6
ENDMDL
MODEL 4
REMARK VINA RESULT:      -6.3      0.833      1.256
REMARK  6 active torsions:
REMARK  status: ('A' for Active; 'I' for Inactive)
REMARK    1  A    between atoms: C_6  and  N_1 
REMARK    2  A    between atoms: S_7  and  C_2 
REMARK    3  A    between atoms: C_12  and  S_7 
REMARK    4  A    between atoms: C_8  and  O_9 
REMARK    5  A    between atoms: O_9  and  C_13 
REMARK    6  A    between atoms: C_13  and  C_12 
ROOT
ATOM      1  N   UNL d   1     -49.845  14.600  22.595  0.00  0.00    -0.186 N 
ATOM      2  C   UNL d   1     -49.041  14.694  22.647  0.00  0.00     0.219 A 
ATOM      3  N   UNL d   1     -48.878  15.522  22.636  0.00  0.00    -0.101 NA
ATOM      4  N   UNL d   1     -49.575  15.922  22.577  0.00  0.00    -0.022 NA
ATOM      5  N   UNL d   1     -50.187  15.370  22.551  0.00  0.00    -0.038 NA
ENDROOT
BRANCH   2   6
ATOM      6  S   UNL d   1     -48.461  14.070  22.703  0.00  0.00    -0.044 SA
BRANCH   6   7
ATOM      7  C   UNL d   1     -47.688  14.253  22.926  0.00  0.00     0.065 C 
BRANCH   7   8
ATOM      8  C   UNL d   1     -47.194  13.659  23.252  0.00  0.00     0.130 C 
BRANCH   8   9
ATOM      9  O   UNL d   1     -46.809  13.133  22.755  0.00  0.00    -0.305 OA
BRANCH   9  10
ATOM     10  C   UNL d   1     -46.490  12.418  23.041  0.00  0.00     0.100 A 
ATOM     11  C   UNL d   1     -45.675  12.269  22.940  0.00  0.00     0.025 A 
ATOM     12  C   UNL d   1     -45.342  11.566  23.217  0.00  0.00     0.002 A 
ATOM     13  C   UNL d   1     -45.813  11.010  23.594  0.00  0.00     0.000 A 
ATOM     14  C   UNL d   1     -46.617  11.148  23.697  0.00  0.00     0.002 A 
ATOM     15  C   UNL d   1     -46.965  11.856  23.421  0.00  0.00     0.025 A 
ENDBRANCH   9  10
ENDBRANCH   8   9
ENDBRANCH   7   8
ENDBRANCH   6   7
ENDBRANCH   2   6
BRANCH   1  16
ATOM     16  C   UNL d   1     -50.174  13.827  22.594  0.00  0.00     0.087 A 
ATOM     17  C   UNL d   1     -50.281  13.420  21.846  0.00  0.00     0.019 A 
ATOM     18  C   UNL d   1     -50.606  12.661  21.865  0.00  0.00     0.002 A 
ATOM     19  C   UNL d   1     -50.826  12.299  22.591  0.00  0.00     0.000 A 
ATOM     20  C   UNL d   1     -50.716  12.705  23.294  0.00  0.00     0.002 A 
ATOM     21  C   UNL d   1     -50.392  13.464  23.296  0.00  0.00     0.019 A 
ENDBRANCH   1  16
TORSDOF 6
ENDMDL
MODEL 5
REMARK VINA RESULT:      -6.1      9.365     10.294
REMARK  6 active torsions:
REMARK  status: ('A' for Active; 'I' for Inactive)
REMARK    1  A    between atoms: C_6  and  N_1 
REMARK    2  A    between atoms: S_7  and  C_2 
REMARK    3  A    between atoms: C_12  and  S_7 
REMARK    4  A    between atoms: C_8  and  O_9 
REMARK    5  A    between atoms: O_9  and  C_13 
REMARK    6  A    between atoms: C_13  and  C_12 
ROOT
ATOM      1  N   UNL d   1     -40.403  14.980  17.140  0.00  0.00    -0.186 N 
ATOM      2  C   UNL d   1     -40.599  15.357  17.831  0.00  0.00     0.219 A 
ATOM      3  N   UNL d   1     -41.327  15.762  17.704  0.00  0.00    -0.101 NA
ATOM      4  N   UNL d   1     -41.568  15.632  16.946  0.00  0.00    -0.022 NA
ATOM      5  N   UNL d   1     -41.010  15.149  16.579  0.00  0.00    -0.038 NA
ENDROOT
BRANCH   2   6
ATOM      6  S   UNL d   1     -40.151  15.347  18.557  0.00  0.00    -0.044 SA
BRANCH   6   7
ATOM      7  C   UNL d   1     -40.503  15.611  19.255  0.00  0.00     0.065 C 
BRANCH   7   8
ATOM      8  C   UNL d   1     -40.053  15.652  19.962  0.00  0.00     0.130 C 
BRANCH   8   9
ATOM      9  O   UNL d   1     -40.341  15.307  20.647  0.00  0.00    -0.305 OA
BRANCH   9  10
ATOM     10  C   UNL d   1     -39.875  15.253  21.336  0.00  0.00     0.100 A 
ATOM     11  C   UNL d   1     -39.587  14.505  21.572  0.00  0.00     0.025 A 
ATOM     12  C   UNL d   1     -39.124  14.432  22.251  0.00  0.00     0.002 A 
ATOM     13  C   UNL d   1     -38.944  15.096  22.698  0.00  0.00     0.000 A 
ATOM     14  C   UNL d   1     -39.223  15.836  22.473  0.00  0.00     0.002 A 
ATOM     15  C   UNL d   1     -39.693  15.922  21.787  0.00  0.00     0.025 A 
ENDBRANCH   9  10
ENDBRANCH   8   9
ENDBRANCH   7   8
ENDBRANCH   6   7
ENDBRANCH   2   6
BRANCH   1  16
ATOM     16  C   UNL d   1     -39.697  14.526  17.099  0.00  0.00     0.087 A 
ATOM     17  C   UNL d   1     -38.995  14.875  16.750  0.00  0.00     0.019 A 
ATOM     18  C   UNL d   1     -38.312  14.414  16.718  0.00  0.00     0.002 A 
ATOM     19  C   UNL d   1     -38.301  13.629  17.018  0.00  0.00     0.000 A 
ATOM     20  C   UNL d   1     -38.982  13.314  17.347  0.00  0.00     0.002 A 
ATOM     21  C   UNL d   1     -39.675  13.759  17.388  0.00  0.00     0.019 A 
ENDBRANCH   1  16
TORSDOF 6
ENDMDL
MODEL 6
REMARK VINA RESULT:      -5.5     10.111     10.780
REMARK  6 active torsions:
REMARK  status: ('A' for Active; 'I' for Inactive)
REMARK    1  A    between atoms: C_6  and  N_1 
REMARK    2  A    between atoms: S_7  and  C_2 
REMARK    3  A    between atoms: C_12  and  S_7 
REMARK    4  A    between atoms: C_8  and  O_9 
REMARK    5  A    between atoms: O_9  and  C_13 
REMARK    6  A    between atoms: C_13  and  C_12 
ROOT
ATOM      1  N   UNL d   1     -39.292  13.735  17.613  0.00  0.00    -0.186 N 
ATOM      2  C   UNL d   1     -38.979  13.663  18.358  0.00  0.00     0.219 A 
ATOM      3  N   UNL d   1     -38.589  12.916  18.400  0.00  0.00    -0.101 NA
ATOM      4  N   UNL d   1     -38.665  12.543  17.690  0.00  0.00    -0.022 NA
ATOM      5  N   UNL d   1     -39.097  13.033  17.188  0.00  0.00    -0.038 NA
ENDROOT
BRANCH   2   6
ATOM      6  S   UNL d   1     -39.034  14.236  18.987  0.00  0.00    -0.044 SA
BRANCH   6   7
ATOM      7  C   UNL d   1     -38.740  14.047  19.735  0.00  0.00     0.065 C 
BRANCH   7   8
ATOM      8  C   UNL d   1     -38.794  14.606  20.359  0.00  0.00     0.130 C 
BRANCH   8   9
ATOM      9  O   UNL d   1     -38.849  14.344  21.133  0.00  0.00    -0.305 OA
BRANCH   9  10
ATOM     10  C   UNL d   1     -38.814  14.876  21.775  0.00  0.00     0.100 A 
ATOM     11  C   UNL d   1     -38.137  14.875  22.264  0.00  0.00     0.025 A 
ATOM     12  C   UNL d   1     -38.085  15.394  22.904  0.00  0.00     0.002 A 
ATOM     13  C   UNL d   1     -38.699  15.914  23.062  0.00  0.00     0.000 A 
ATOM     14  C   UNL d   1     -39.369  15.922  22.585  0.00  0.00     0.002 A 
ATOM     15  C   UNL d   1     -39.433  15.401  21.935  0.00  0.00     0.025 A 
ENDBRANCH   9  10
ENDBRANCH   8   9
ENDBRANCH   7   8
ENDBRANCH   6   7
ENDBRANCH   2   6
BRANCH   1  16
ATOM     16  C   UNL d   1     -39.718  14.429  17.405  0.00  0.00     0.087 A 
ATOM     17  C   UNL d   1     -39.308  15.067  17.005  0.00  0.00     0.019 A 
ATOM     18  C   UNL d   1     -39.742  15.741  16.810  0.00  0.00     0.002 A 
ATOM     19  C   UNL d   1     -40.560  15.801  16.996  0.00  0.00     0.000 A 
ATOM     20  C   UNL d   1     -40.933  15.180  17.378  0.00  0.00     0.002 A 
ATOM     21  C   UNL d   1     -40.515  14.498  17.582  0.00  0.00     0.019 A 
ENDBRANCH   1  16
TORSDOF 6
ENDMDL
