MODEL 1
REMARK VINA RESULT:      -1.7      0.000      0.000
REMARK  6 active torsions:
REMARK  status: ('A' for Active; 'I' for Inactive)
REMARK    1  A    between atoms: S_3  and  N_1 
REMARK    2  A    between atoms: C_19  and  S_3 
REMARK    3  A    between atoms: S_4  and  N_8 
REMARK    4  A    between atoms: C_11  and  C_5 
REMARK    5  A    between atoms: C_12  and  C_6 
REMARK    6  A    between atoms: N_8  and  C_20 
ROOT
ATOM      1  N   UNL d   1      32.665  21.944 -22.390  0.00  0.00    -0.152 N 
ATOM      2  N   UNL d   1      32.757  21.300 -22.907  0.00  0.00    -0.155 NA
ATOM      3  C   UNL d   1      32.680  21.646 -21.612  0.00  0.00     0.096 A 
ATOM      4  C   UNL d   1      32.828  20.612 -22.455  0.00  0.00     0.104 A 
ATOM      5  C   UNL d   1      32.780  20.830 -21.658  0.00  0.00     0.041 A 
ENDROOT
BRANCH   4   6
ATOM      6  C   UNL d   1      32.929  19.847 -22.745  0.00  0.00     0.019 A 
ATOM      7  C   UNL d   1      33.034  19.724 -23.563  0.00  0.00     0.003 A 
ATOM      8  C   UNL d   1      33.134  18.962 -23.850  0.00  0.00     0.020 A 
ATOM      9  C   UNL d   1      33.132  18.314 -23.334  0.00  0.00     0.093 A 
ATOM     10  C   UNL d   1      33.027  18.440 -22.519  0.00  0.00     0.020 A 
ATOM     11  C   UNL d   1      32.926  19.211 -22.227  0.00  0.00     0.003 A 
BRANCH   9  12
ATOM     12  N   UNL d   1      33.232  17.544 -23.617  0.00  0.00    -0.162 NA
BRANCH  12  13
ATOM     13  S   UNL d   1      32.594  17.034 -23.689  0.00  0.00     0.266 S 
ATOM     14  O   UNL d   1      32.735  16.937 -22.877  0.00  0.00    -0.203 OA
ATOM     15  O   UNL d   1      32.020  16.493 -23.434  0.00  0.00    -0.203 OA
ATOM     16  C   UNL d   1      32.432  17.113 -24.495  0.00  0.00     0.165 C 
ENDBRANCH  12  13
ENDBRANCH   9  12
ENDBRANCH   4   6
BRANCH   1  17
ATOM     17  S   UNL d   1      32.575  22.734 -22.616  0.00  0.00     0.287 S 
ATOM     18  O   UNL d   1      32.109  23.413 -22.680  0.00  0.00    -0.198 OA
ATOM     19  O   UNL d   1      31.941  22.326 -22.273  0.00  0.00    -0.198 OA
BRANCH  17  20
ATOM     20  C   UNL d   1      33.240  23.078 -22.948  0.00  0.00     0.118 C 
ATOM     21  C   UNL d   1      33.163  23.551 -23.626  0.00  0.00     0.014 C 
ENDBRANCH  17  20
ENDBRANCH   1  17
BRANCH   3  22
ATOM     22  C   UNL d   1      32.607  22.094 -20.931  0.00  0.00     0.019 A 
ATOM     23  C   UNL d   1      33.240  22.562 -20.685  0.00  0.00     0.004 A 
ATOM     24  C   UNL d   1      33.173  23.017 -19.998  0.00  0.00     0.030 A 
ATOM     25  C   UNL d   1      32.478  22.998 -19.570  0.00  0.00     0.140 A 
ATOM     26  C   UNL d   1      31.853  22.536 -19.812  0.00  0.00     0.030 A 
ATOM     27  F   UNL d   1      32.411  23.457 -18.877  0.00  0.00    -0.204 F 
ATOM     28  C   UNL d   1      31.910  22.082 -20.491  0.00  0.00     0.004 A 
ENDBRANCH   3  22
TORSDOF 6
ENDMDL
MODEL 2
REMARK VINA RESULT:      -1.4      2.320      5.679
REMARK  6 active torsions:
REMARK  status: ('A' for Active; 'I' for Inactive)
REMARK    1  A    between atoms: S_3  and  N_1 
REMARK    2  A    between atoms: C_19  and  S_3 
REMARK    3  A    between atoms: S_4  and  N_8 
REMARK    4  A    between atoms: C_11  and  C_5 
REMARK    5  A    between atoms: C_12  and  C_6 
REMARK    6  A    between atoms: N_8  and  C_20 
ROOT
ATOM      1  N   UNL d   1      32.553  17.632 -23.313  0.00  0.00    -0.152 N 
ATOM      2  N   UNL d   1      32.954  18.246 -22.924  0.00  0.00    -0.155 NA
ATOM      3  C   UNL d   1      31.800  17.919 -23.527  0.00  0.00     0.096 A 
ATOM      4  C   UNL d   1      32.457  18.905 -22.897  0.00  0.00     0.104 A 
ATOM      5  C   UNL d   1      31.747  18.699 -23.270  0.00  0.00     0.041 A 
ENDROOT
BRANCH   4   6
ATOM      6  C   UNL d   1      32.635  19.635 -22.559  0.00  0.00     0.019 A 
ATOM      7  C   UNL d   1      32.896  19.675 -21.769  0.00  0.00     0.003 A 
ATOM      8  C   UNL d   1      33.073  20.404 -21.435  0.00  0.00     0.020 A 
ATOM      9  C   UNL d   1      32.995  21.099 -21.877  0.00  0.00     0.093 A 
ATOM     10  C   UNL d   1      32.735  21.056 -22.665  0.00  0.00     0.020 A 
ATOM     11  C   UNL d   1      32.555  20.321 -23.004  0.00  0.00     0.003 A 
BRANCH   9  12
ATOM     12  N   UNL d   1      33.172  21.836 -21.546  0.00  0.00    -0.162 NA
BRANCH  12  13
ATOM     13  S   UNL d   1      32.629  22.226 -21.070  0.00  0.00     0.266 S 
ATOM     14  O   UNL d   1      32.404  22.550 -21.802  0.00  0.00    -0.203 OA
ATOM     15  O   UNL d   1      32.003  22.741 -20.895  0.00  0.00    -0.203 OA
ATOM     16  C   UNL d   1      32.834  21.920 -20.332  0.00  0.00     0.165 C 
ENDBRANCH  12  13
ENDBRANCH   9  12
ENDBRANCH   4   6
BRANCH   1  17
ATOM     17  S   UNL d   1      32.853  16.875 -23.458  0.00  0.00     0.287 S 
ATOM     18  O   UNL d   1      33.128  16.302 -23.986  0.00  0.00    -0.198 OA
ATOM     19  O   UNL d   1      32.728  17.399 -24.088  0.00  0.00    -0.198 OA
BRANCH  17  20
ATOM     20  C   UNL d   1      32.953  16.408 -22.793  0.00  0.00     0.118 C 
ATOM     21  C   UNL d   1      33.176  15.613 -22.880  0.00  0.00     0.014 C 
ENDBRANCH  17  20
ENDBRANCH   1  17
BRANCH   3  22
ATOM     22  C   UNL d   1      31.224  17.492 -23.923  0.00  0.00     0.019 A 
ATOM     23  C   UNL d   1      30.820  16.894 -23.525  0.00  0.00     0.004 A 
ATOM     24  C   UNL d   1      30.237  16.459 -23.918  0.00  0.00     0.030 A 
ATOM     25  C   UNL d   1      30.069  16.628 -24.700  0.00  0.00     0.140 A 
ATOM     26  C   UNL d   1      30.468  17.218 -25.092  0.00  0.00     0.030 A 
ATOM     27  F   UNL d   1      29.481  16.188 -25.096  0.00  0.00    -0.204 F 
ATOM     28  C   UNL d   1      31.047  17.654 -24.711  0.00  0.00     0.004 A 
ENDBRANCH   3  22
TORSDOF 6
ENDMDL
