MODEL 1
REMARK VINA RESULT:       0.9      0.000      0.000
REMARK  7 active torsions:
REMARK  status: ('A' for Active; 'I' for Inactive)
REMARK    1  A    between atoms: C_10  and  C_3 
REMARK    2  A    between atoms: N_11  and  C_4 
REMARK    3  A    between atoms: C_21  and  N_11 
REMARK    4  A    between atoms: O_20  and  C_23 
REMARK    5  A    between atoms: C_24  and  O_20 
REMARK    6  A    between atoms: C_23  and  C_21 
REMARK    7  A    between atoms: C_22  and  C_24 
ROOT
ATOM      1  C   UNL d   1      58.289   0.067  30.867  0.00  0.00     0.167 A 
ATOM      2  N   UNL d   1      57.563   0.224  31.281  0.00  0.00    -0.195 N 
ATOM      3  C   UNL d   1      58.272  -0.232  30.113  0.00  0.00     0.057 A 
ATOM      4  C   UNL d   1      57.599   0.522  32.031  0.00  0.00     0.167 A 
ATOM      5  N   UNL d   1      56.834  -0.232  30.147  0.00  0.00    -0.161 NA
ATOM      6  N   UNL d   1      59.005   0.218  31.230  0.00  0.00    -0.227 NA
ATOM      7  C   UNL d   1      58.316   0.677  32.406  0.00  0.00     0.058 A 
ATOM      8  C   UNL d   1      57.538  -0.384  29.746  0.00  0.00     0.124 A 
ATOM      9  C   UNL d   1      59.032   0.523  31.999  0.00  0.00     0.086 A 
ATOM     10  C   UNL d   1      59.786   0.682  32.382  0.00  0.00     0.021 C 
ENDROOT
BRANCH   3  11
ATOM     11  C   UNL d   1      58.976  -0.384  29.712  0.00  0.00     0.005 A 
ATOM     12  C   UNL d   1      59.339  -1.110  29.791  0.00  0.00     0.001 A 
ATOM     13  C   UNL d   1      60.032  -1.260  29.396  0.00  0.00     0.011 A 
ATOM     14  C   UNL d   1      60.374  -0.687  28.916  0.00  0.00     0.058 A 
ATOM     15  C   UNL d   1      60.010   0.039  28.838  0.00  0.00     0.011 A 
ATOM     16 CL   UNL d   1      61.112  -0.846  28.496  0.00  0.00    -0.082 Cl
ATOM     17  C   UNL d   1      59.306   0.192  29.239  0.00  0.00     0.001 A 
ENDBRANCH   3  11
BRANCH   4  18
ATOM     18  N   UNL d   1      56.867   0.682  32.452  0.00  0.00    -0.223 NA
BRANCH  18  19
ATOM     19  C   UNL d   1      56.363   0.661  33.141  0.00  0.00     0.127 C 
BRANCH  19  20
ATOM     20  C   UNL d   1      55.660   0.159  33.120  0.00  0.00     0.143 C 
BRANCH  20  21
ATOM     21  O   UNL d   1      55.167   0.072  33.817  0.00  0.00    -0.298 OA
BRANCH  21  22
ATOM     22  C   UNL d   1      54.357   0.369  33.823  0.00  0.00     0.168 C 
BRANCH  22  23
ATOM     23  C   UNL d   1      53.989   0.599  34.563  0.00  0.00     0.261 C 
ATOM     24  O   UNL d   1      53.131   0.663  34.618  0.00  0.00    -0.281 OA
ENDBRANCH  22  23
ENDBRANCH  21  22
ENDBRANCH  20  21
ENDBRANCH  19  20
ENDBRANCH  18  19
ENDBRANCH   4  18
TORSDOF 7
ENDMDL
MODEL 2
REMARK VINA RESULT:       1.4      9.633     10.193
REMARK  7 active torsions:
REMARK  status: ('A' for Active; 'I' for Inactive)
REMARK    1  A    between atoms: C_10  and  C_3 
REMARK    2  A    between atoms: N_11  and  C_4 
REMARK    3  A    between atoms: C_21  and  N_11 
REMARK    4  A    between atoms: O_20  and  C_23 
REMARK    5  A    between atoms: C_24  and  O_20 
REMARK    6  A    between atoms: C_23  and  C_21 
REMARK    7  A    between atoms: C_22  and  C_24 
ROOT
ATOM      1  C   UNL d   1      59.096  -9.818  31.599  0.00  0.00     0.167 A 
ATOM      2  N   UNL d   1      59.708  -9.817  32.191  0.00  0.00    -0.195 N 
ATOM      3  C   UNL d   1      59.291  -9.818  30.812  0.00  0.00     0.057 A 
ATOM      4  C   UNL d   1      59.494  -9.817  32.970  0.00  0.00     0.167 A 
ATOM      5  N   UNL d   1      60.687  -9.818  31.159  0.00  0.00    -0.161 NA
ATOM      6  N   UNL d   1      58.311  -9.817  31.825  0.00  0.00    -0.227 NA
ATOM      7  C   UNL d   1      58.706  -9.817  33.208  0.00  0.00     0.058 A 
ATOM      8  C   UNL d   1      60.094  -9.818  30.585  0.00  0.00     0.124 A 
ATOM      9  C   UNL d   1      58.103  -9.817  32.626  0.00  0.00     0.086 A 
ATOM     10  C   UNL d   1      57.277  -9.817  32.865  0.00  0.00     0.021 C 
ENDROOT
BRANCH   3  11
ATOM     11  C   UNL d   1      58.698  -9.818  30.238  0.00  0.00     0.005 A 
ATOM     12  C   UNL d   1      58.898  -9.818  29.449  0.00  0.00     0.001 A 
ATOM     13  C   UNL d   1      58.315  -9.818  28.884  0.00  0.00     0.011 A 
ATOM     14  C   UNL d   1      57.522  -9.818  29.101  0.00  0.00     0.058 A 
ATOM     15  C   UNL d   1      57.322  -9.818  29.891  0.00  0.00     0.011 A 
ATOM     16 CL   UNL d   1      56.900  -9.818  28.500  0.00  0.00    -0.082 Cl
ATOM     17  C   UNL d   1      57.916  -9.818  30.465  0.00  0.00     0.001 A 
ENDBRANCH   3  11
BRANCH   4  18
ATOM     18  N   UNL d   1      60.110  -9.817  33.570  0.00  0.00    -0.223 NA
BRANCH  18  19
ATOM     19  C   UNL d   1      60.426  -9.618  34.337  0.00  0.00     0.127 C 
BRANCH  19  20
ATOM     20  C   UNL d   1      60.635  -8.794  34.494  0.00  0.00     0.143 C 
BRANCH  20  21
ATOM     21  O   UNL d   1      60.886  -8.550  35.277  0.00  0.00    -0.298 OA
BRANCH  21  22
ATOM     22  C   UNL d   1      61.098  -7.729  35.437  0.00  0.00     0.168 C 
BRANCH  22  23
ATOM     23  C   UNL d   1      60.712  -7.302  36.073  0.00  0.00     0.261 C 
ATOM     24  O   UNL d   1      60.990  -6.518  36.298  0.00  0.00    -0.281 OA
ENDBRANCH  22  23
ENDBRANCH  21  22
ENDBRANCH  20  21
ENDBRANCH  19  20
ENDBRANCH  18  19
ENDBRANCH   4  18
TORSDOF 7
ENDMDL
