MODEL 1
REMARK VINA RESULT:      11.4      0.000      0.000
REMARK  4 active torsions:
REMARK  status: ('A' for Active; 'I' for Inactive)
REMARK    1  A    between atoms: C_2  and  C_1 
REMARK       I    between atoms: N_3  and  C_1 
REMARK       I    between atoms: N_4  and  C_2 
REMARK    2  A    between atoms: C_8  and  N_3 
REMARK    3  A    between atoms: C_9  and  N_4 
REMARK    4  A    between atoms: C_10  and  C_9 
ROOT
ATOM      1  C   UNL d   1      45.466 -16.053  44.634  0.00  0.00     0.337 C 
ATOM      2  N   UNL d   1      45.066 -15.406  44.953  0.00  0.00    -0.204 NA
ATOM      3  O   UNL d   1      45.354 -16.805  44.954  0.00  0.00    -0.260 OA
ENDROOT
BRANCH   1   4
ATOM      4  C   UNL d   1      45.976 -15.948  43.998  0.00  0.00     0.337 C 
ATOM      5  N   UNL d   1      46.182 -16.592  43.519  0.00  0.00    -0.201 NA
ATOM      6  O   UNL d   1      46.285 -15.201  43.835  0.00  0.00    -0.260 OA
BRANCH   5   7
ATOM      7  C   UNL d   1      45.873 -17.340  43.682  0.00  0.00     0.121 C 
BRANCH   7   8
ATOM      8  C   UNL d   1      46.128 -17.991  43.268  0.00  0.00     0.101 A 
ATOM      9  N   UNL d   1      46.186 -17.952  42.445  0.00  0.00    -0.242 NA
ATOM     10  C   UNL d   1      46.444 -18.610  42.018  0.00  0.00     0.099 A 
ATOM     11  C   UNL d   1      46.643 -19.302  42.411  0.00  0.00     0.021 A 
ATOM     12  C   UNL d   1      46.585 -19.341  43.233  0.00  0.00     0.003 A 
ATOM     13  C   UNL d   1      46.327 -18.683  43.660  0.00  0.00     0.021 A 
ENDBRANCH   7   8
ENDBRANCH   5   7
ENDBRANCH   1   4
BRANCH   2  14
ATOM     14  C   UNL d   1      45.178 -14.654  44.633  0.00  0.00     0.085 A 
ATOM     15  C   UNL d   1      44.704 -14.396  44.008  0.00  0.00     0.019 A 
ATOM     16  C   UNL d   1      44.816 -13.644  43.688  0.00  0.00     0.002 A 
ATOM     17  C   UNL d   1      45.402 -13.150  43.993  0.00  0.00     0.000 A 
ATOM     18  C   UNL d   1      45.870 -13.408  44.611  0.00  0.00     0.002 A 
ATOM     19  C   UNL d   1      45.514 -12.398  43.672  0.00  0.00     0.000 C 
ATOM     20  C   UNL d   1      45.758 -14.160  44.931  0.00  0.00     0.019 A 
ENDBRANCH   2  14
TORSDOF 4
ENDMDL
