MODEL 1
REMARK VINA RESULT:      -2.9      0.000      0.000
REMARK  4 active torsions:
REMARK  status: ('A' for Active; 'I' for Inactive)
REMARK    1  A    between atoms: S_3  and  N_1 
REMARK    2  A    between atoms: C_7  and  C_4 
REMARK    3  A    between atoms: C_10  and  C_5 
REMARK    4  A    between atoms: C_21  and  C_20 
ROOT
ATOM      1  N   UNL d   1      31.631  16.167 -23.955  0.00  0.00    -0.155 N 
ATOM      2  N   UNL d   1      30.971  15.669 -23.840  0.00  0.00    -0.153 NA
ATOM      3  C   UNL d   1      30.299  16.138 -23.884  0.00  0.00     0.126 A 
ATOM      4  C   UNL d   1      31.355  16.922 -24.066  0.00  0.00     0.096 A 
ATOM      5  C   UNL d   1      30.553  16.919 -24.025  0.00  0.00     0.043 A 
ENDROOT
BRANCH   4   6
ATOM      6  C   UNL d   1      31.827  17.586 -24.200  0.00  0.00     0.018 A 
ATOM      7  C   UNL d   1      32.195  17.996 -23.568  0.00  0.00     0.002 A 
ATOM      8  C   UNL d   1      32.666  18.660 -23.701  0.00  0.00     0.000 A 
ATOM      9  C   UNL d   1      32.770  18.914 -24.467  0.00  0.00     0.000 A 
ATOM     10  C   UNL d   1      32.432  18.545 -25.097  0.00  0.00     0.000 A 
ATOM     11  C   UNL d   1      31.961  17.882 -24.964  0.00  0.00     0.002 A 
BRANCH   9  12
ATOM     12  C   UNL d   1      33.241  19.577 -24.600  0.00  0.00     0.000 C 
ATOM     13  C   UNL d   1      32.926  20.237 -24.984  0.00  0.00     0.000 C 
ENDBRANCH   9  12
ENDBRANCH   4   6
BRANCH   1  14
ATOM     14  S   UNL d   1      32.409  15.890 -23.948  0.00  0.00     0.266 S 
ATOM     15  O   UNL d   1      32.425  15.958 -23.122  0.00  0.00    -0.203 OA
ATOM     16  O   UNL d   1      32.419  15.815 -24.763  0.00  0.00    -0.203 OA
ATOM     17  C   UNL d   1      33.184  15.617 -23.912  0.00  0.00     0.165 C 
ENDBRANCH   1  14
BRANCH   3  18
ATOM     18  C   UNL d   1      29.514  15.888 -23.803  0.00  0.00     0.119 A 
ATOM     19  O   UNL d   1      29.026  15.720 -24.436  0.00  0.00    -0.304 OA
ATOM     20  C   UNL d   1      28.284  15.488 -24.104  0.00  0.00     0.123 A 
ATOM     21  C   UNL d   1      28.358  15.527 -23.288  0.00  0.00     0.029 A 
ATOM     22  C   UNL d   1      29.103  15.770 -23.098  0.00  0.00     0.028 A 
ENDBRANCH   3  18
TORSDOF 4
ENDMDL
MODEL 2
REMARK VINA RESULT:      -2.8      1.289      3.896
REMARK  4 active torsions:
REMARK  status: ('A' for Active; 'I' for Inactive)
REMARK    1  A    between atoms: S_3  and  N_1 
REMARK    2  A    between atoms: C_7  and  C_4 
REMARK    3  A    between atoms: C_10  and  C_5 
REMARK    4  A    between atoms: C_21  and  C_20 
ROOT
ATOM      1  N   UNL d   1      32.483  16.983 -23.777  0.00  0.00    -0.155 N 
ATOM      2  N   UNL d   1      32.999  17.586 -23.519  0.00  0.00    -0.153 NA
ATOM      3  C   UNL d   1      32.550  18.264 -23.410  0.00  0.00     0.126 A 
ATOM      4  C   UNL d   1      31.736  17.299 -23.821  0.00  0.00     0.096 A 
ATOM      5  C   UNL d   1      31.763  18.071 -23.603  0.00  0.00     0.043 A 
ENDROOT
BRANCH   4   6
ATOM      6  C   UNL d   1      31.059  16.888 -24.055  0.00  0.00     0.018 A 
ATOM      7  C   UNL d   1      30.730  16.986 -24.820  0.00  0.00     0.002 A 
ATOM      8  C   UNL d   1      30.053  16.576 -25.053  0.00  0.00     0.000 A 
ATOM      9  C   UNL d   1      29.705  16.068 -24.522  0.00  0.00     0.000 A 
ATOM     10  C   UNL d   1      29.994  15.950 -23.780  0.00  0.00     0.000 A 
ATOM     11  C   UNL d   1      30.671  16.360 -23.547  0.00  0.00     0.002 A 
BRANCH   9  12
ATOM     12  C   UNL d   1      29.029  15.658 -24.755  0.00  0.00     0.000 C 
ATOM     13  C   UNL d   1      28.400  15.565 -24.228  0.00  0.00     0.000 C 
ENDBRANCH   9  12
ENDBRANCH   4   6
BRANCH   1  14
ATOM     14  S   UNL d   1      32.736  16.215 -23.945  0.00  0.00     0.266 S 
ATOM     15  O   UNL d   1      32.874  16.434 -24.732  0.00  0.00    -0.203 OA
ATOM     16  O   UNL d   1      32.609  15.975 -23.173  0.00  0.00    -0.203 OA
ATOM     17  C   UNL d   1      32.994  15.459 -24.140  0.00  0.00     0.165 C 
ENDBRANCH   1  14
BRANCH   3  18
ATOM     18  C   UNL d   1      32.822  19.004 -23.157  0.00  0.00     0.119 A 
ATOM     19  O   UNL d   1      32.975  19.626 -23.664  0.00  0.00    -0.304 OA
ATOM     20  C   UNL d   1      33.239  20.265 -23.176  0.00  0.00     0.123 A 
ATOM     21  C   UNL d   1      33.233  19.999 -22.399  0.00  0.00     0.029 A 
ATOM     22  C   UNL d   1      32.981  19.233 -22.381  0.00  0.00     0.028 A 
ENDBRANCH   3  18
TORSDOF 4
ENDMDL
MODEL 3
REMARK VINA RESULT:      -1.4      5.944      7.426
REMARK  4 active torsions:
REMARK  status: ('A' for Active; 'I' for Inactive)
REMARK    1  A    between atoms: S_3  and  N_1 
REMARK    2  A    between atoms: C_7  and  C_4 
REMARK    3  A    between atoms: C_10  and  C_5 
REMARK    4  A    between atoms: C_21  and  C_20 
ROOT
ATOM      1  N   UNL d   1      32.454  22.845 -20.486  0.00  0.00    -0.155 N 
ATOM      2  N   UNL d   1      32.461  23.260 -19.763  0.00  0.00    -0.153 NA
ATOM      3  C   UNL d   1      32.820  22.777 -19.205  0.00  0.00     0.126 A 
ATOM      4  C   UNL d   1      32.804  22.124 -20.361  0.00  0.00     0.096 A 
ATOM      5  C   UNL d   1      33.029  22.070 -19.592  0.00  0.00     0.043 A 
ENDROOT
BRANCH   4   6
ATOM      6  C   UNL d   1      32.910  21.541 -20.935  0.00  0.00     0.018 A 
ATOM      7  C   UNL d   1      32.833  20.726 -20.752  0.00  0.00     0.002 A 
ATOM      8  C   UNL d   1      32.940  20.143 -21.325  0.00  0.00     0.000 A 
ATOM      9  C   UNL d   1      33.122  20.374 -22.084  0.00  0.00     0.000 A 
ATOM     10  C   UNL d   1      33.204  21.146 -22.295  0.00  0.00     0.000 A 
ATOM     11  C   UNL d   1      33.098  21.729 -21.722  0.00  0.00     0.002 A 
BRANCH   9  12
ATOM     12  C   UNL d   1      33.228  19.791 -22.657  0.00  0.00     0.000 C 
ATOM     13  C   UNL d   1      32.719  19.142 -22.685  0.00  0.00     0.000 C 
ENDBRANCH   9  12
ENDBRANCH   4   6
BRANCH   1  14
ATOM     14  S   UNL d   1      32.134  23.158 -21.181  0.00  0.00     0.266 S 
ATOM     15  O   UNL d   1      31.385  22.880 -20.960  0.00  0.00    -0.203 OA
ATOM     16  O   UNL d   1      32.862  23.442 -21.421  0.00  0.00    -0.203 OA
ATOM     17  C   UNL d   1      31.789  23.459 -21.864  0.00  0.00     0.165 C 
ENDBRANCH   1  14
BRANCH   3  18
ATOM     18  C   UNL d   1      32.952  22.953 -18.407  0.00  0.00     0.119 A 
ATOM     19  O   UNL d   1      32.964  22.389 -17.816  0.00  0.00    -0.304 OA
ATOM     20  C   UNL d   1      33.114  22.808 -17.097  0.00  0.00     0.123 A 
ATOM     21  C   UNL d   1      33.186  23.603 -17.287  0.00  0.00     0.029 A 
ATOM     22  C   UNL d   1      33.088  23.698 -18.082  0.00  0.00     0.028 A 
ENDBRANCH   3  18
TORSDOF 4
ENDMDL
MODEL 4
REMARK VINA RESULT:      -0.7      5.889      7.517
REMARK  4 active torsions:
REMARK  status: ('A' for Active; 'I' for Inactive)
REMARK    1  A    between atoms: S_3  and  N_1 
REMARK    2  A    between atoms: C_7  and  C_4 
REMARK    3  A    between atoms: C_10  and  C_5 
REMARK    4  A    between atoms: C_21  and  C_20 
ROOT
ATOM      1  N   UNL d   1      32.145  22.132 -21.127  0.00  0.00    -0.155 N 
ATOM      2  N   UNL d   1      32.141  22.186 -21.959  0.00  0.00    -0.153 NA
ATOM      3  C   UNL d   1      32.430  22.929 -22.159  0.00  0.00     0.126 A 
ATOM      4  C   UNL d   1      32.431  22.833 -20.834  0.00  0.00     0.096 A 
ATOM      5  C   UNL d   1      32.607  23.322 -21.446  0.00  0.00     0.043 A 
ENDROOT
BRANCH   4   6
ATOM      6  C   UNL d   1      32.526  23.011 -20.034  0.00  0.00     0.018 A 
ATOM      7  C   UNL d   1      31.997  23.524 -19.634  0.00  0.00     0.002 A 
ATOM      8  C   UNL d   1      32.092  23.702 -18.834  0.00  0.00     0.000 A 
ATOM      9  C   UNL d   1      32.715  23.367 -18.433  0.00  0.00     0.000 A 
ATOM     10  C   UNL d   1      33.241  22.870 -18.785  0.00  0.00     0.000 A 
ATOM     11  C   UNL d   1      33.146  22.692 -19.585  0.00  0.00     0.002 A 
BRANCH   9  12
ATOM     12  C   UNL d   1      32.809  23.544 -17.634  0.00  0.00     0.000 C 
ATOM     13  C   UNL d   1      32.147  23.613 -17.145  0.00  0.00     0.000 C 
ENDBRANCH   9  12
ENDBRANCH   4   6
BRANCH   1  14
ATOM     14  S   UNL d   1      31.891  21.460 -20.719  0.00  0.00     0.266 S 
ATOM     15  O   UNL d   1      32.659  21.151 -20.752  0.00  0.00    -0.203 OA
ATOM     16  O   UNL d   1      31.125  21.743 -20.674  0.00  0.00    -0.203 OA
ATOM     17  C   UNL d   1      31.666  20.780 -20.315  0.00  0.00     0.165 C 
ENDBRANCH   1  14
BRANCH   3  18
ATOM     18  C   UNL d   1      32.528  23.235 -22.922  0.00  0.00     0.119 A 
ATOM     19  O   UNL d   1      31.906  23.407 -23.422  0.00  0.00    -0.304 OA
ATOM     20  C   UNL d   1      32.254  23.702 -24.134  0.00  0.00     0.123 A 
ATOM     21  C   UNL d   1      33.068  23.695 -24.030  0.00  0.00     0.029 A 
ATOM     22  C   UNL d   1      33.241  23.411 -23.295  0.00  0.00     0.028 A 
ENDBRANCH   3  18
TORSDOF 4
ENDMDL
