MODEL 1
REMARK VINA RESULT:      -5.7      0.000      0.000
REMARK  5 active torsions:
REMARK  status: ('A' for Active; 'I' for Inactive)
REMARK    1  A    between atoms: C_12  and  S_1 
REMARK    2  A    between atoms: N_13  and  S_1 
REMARK    3  A    between atoms: C_2  and  N_6 
REMARK    4  A    between atoms: C_5  and  C_3 
REMARK       I    between atoms: N_6  and  C_8 
REMARK    5  A    between atoms: C_8  and  C_18 
ROOT
ATOM      1  N   UNL d   1     -44.816  13.446  21.707  0.00  0.00    -0.183 NA
ATOM      2  C   UNL d   1     -45.249  13.089  22.305  0.00  0.00     0.281 C 
ATOM      3  O   UNL d   1     -44.888  12.519  22.787  0.00  0.00    -0.265 OA
ENDROOT
BRANCH   1   4
ATOM      4  C   UNL d   1     -44.032  13.243  21.582  0.00  0.00     0.197 A 
ATOM      5  N   UNL d   1     -43.404  13.768  21.490  0.00  0.00    -0.218 NA
ATOM      6  C   UNL d   1     -42.716  13.324  21.378  0.00  0.00     0.113 A 
ATOM      7  C   UNL d   1     -42.918  12.525  21.401  0.00  0.00     0.059 A 
ATOM      8  S   UNL d   1     -43.729  12.478  21.526  0.00  0.00    -0.046 SA
BRANCH   6   9
ATOM      9  C   UNL d   1     -41.960  13.627  21.264  0.00  0.00     0.118 A 
ATOM     10  O   UNL d   1     -41.286  13.451  21.626  0.00  0.00    -0.306 OA
ATOM     11  C   UNL d   1     -40.648  13.846  21.383  0.00  0.00     0.100 A 
ATOM     12  C   UNL d   1     -39.842  13.865  21.577  0.00  0.00     0.025 A 
ATOM     13  C   UNL d   1     -40.940  14.349  20.783  0.00  0.00     0.025 A 
ATOM     14  C   UNL d   1     -39.333  14.375  21.181  0.00  0.00     0.002 A 
ATOM     15  C   UNL d   1     -39.616  14.882  20.579  0.00  0.00     0.000 A 
ATOM     16  C   UNL d   1     -40.421  14.860  20.388  0.00  0.00     0.002 A 
ATOM     17  C   UNL d   1     -41.749  14.208  20.715  0.00  0.00     0.028 A 
ENDBRANCH   6   9
ENDBRANCH   1   4
BRANCH   2  18
ATOM     18  C   UNL d   1     -46.039  13.292  22.431  0.00  0.00     0.058 A 
ATOM     19  C   UNL d   1     -46.640  12.862  22.065  0.00  0.00     0.005 A 
ATOM     20  C   UNL d   1     -47.420  13.067  22.193  0.00  0.00     0.013 A 
ATOM     21  C   UNL d   1     -47.610  13.707  22.690  0.00  0.00     0.104 A 
ATOM     22  C   UNL d   1     -46.998  14.132  23.052  0.00  0.00     0.013 A 
ATOM     23  C   UNL d   1     -46.222  13.925  22.922  0.00  0.00     0.005 A 
BRANCH  21  24
ATOM     24  S   UNL d   1     -48.402  13.913  22.818  0.00  0.00     0.271 S 
ATOM     25  O   UNL d   1     -48.485  13.268  23.318  0.00  0.00    -0.200 OA
ATOM     26  O   UNL d   1     -48.318  14.563  22.315  0.00  0.00    -0.200 OA
BRANCH  24  27
ATOM     27  N   UNL d   1     -49.189  14.117  22.946  0.00  0.00    -0.226 N 
ATOM     28  C   UNL d   1     -49.472  14.840  22.678  0.00  0.00     0.111 C 
ATOM     29  C   UNL d   1     -49.689  13.600  23.340  0.00  0.00     0.111 C 
ENDBRANCH  24  27
ENDBRANCH  21  24
ENDBRANCH   2  18
TORSDOF 5
ENDMDL
MODEL 2
REMARK VINA RESULT:      -5.1      1.978      6.802
REMARK  5 active torsions:
REMARK  status: ('A' for Active; 'I' for Inactive)
REMARK    1  A    between atoms: C_12  and  S_1 
REMARK    2  A    between atoms: N_13  and  S_1 
REMARK    3  A    between atoms: C_2  and  N_6 
REMARK    4  A    between atoms: C_5  and  C_3 
REMARK       I    between atoms: N_6  and  C_8 
REMARK    5  A    between atoms: C_8  and  C_18 
ROOT
ATOM      1  N   UNL d   1     -42.599  13.538  20.734  0.00  0.00    -0.183 NA
ATOM      2  C   UNL d   1     -41.895  13.804  21.060  0.00  0.00     0.281 C 
ATOM      3  O   UNL d   1     -41.749  13.686  21.868  0.00  0.00    -0.265 OA
ENDROOT
BRANCH   1   4
ATOM      4  C   UNL d   1     -43.156  13.158  21.199  0.00  0.00     0.197 A 
ATOM      5  N   UNL d   1     -43.887  13.463  21.428  0.00  0.00    -0.218 NA
ATOM      6  C   UNL d   1     -44.266  12.894  21.891  0.00  0.00     0.113 A 
ATOM      7  C   UNL d   1     -43.771  12.236  21.949  0.00  0.00     0.059 A 
ATOM      8  S   UNL d   1     -43.089  12.402  21.521  0.00  0.00    -0.046 SA
BRANCH   6   9
ATOM      9  C   UNL d   1     -45.008  12.969  22.236  0.00  0.00     0.118 A 
ATOM     10  O   UNL d   1     -45.418  12.457  22.669  0.00  0.00    -0.306 OA
ATOM     11  C   UNL d   1     -46.124  12.702  22.920  0.00  0.00     0.100 A 
ATOM     12  C   UNL d   1     -46.744  12.389  23.373  0.00  0.00     0.025 A 
ATOM     13  C   UNL d   1     -46.189  13.477  22.613  0.00  0.00     0.025 A 
ATOM     14  C   UNL d   1     -47.418  12.836  23.519  0.00  0.00     0.002 A 
ATOM     15  C   UNL d   1     -47.492  13.613  23.216  0.00  0.00     0.000 A 
ATOM     16  C   UNL d   1     -46.870  13.922  22.765  0.00  0.00     0.002 A 
ATOM     17  C   UNL d   1     -45.497  13.634  22.193  0.00  0.00     0.028 A 
ENDBRANCH   6   9
ENDBRANCH   1   4
BRANCH   2  18
ATOM     18  C   UNL d   1     -41.333  14.187  20.593  0.00  0.00     0.058 A 
ATOM     19  C   UNL d   1     -40.912  13.764  20.024  0.00  0.00     0.005 A 
ATOM     20  C   UNL d   1     -40.356  14.147  19.564  0.00  0.00     0.013 A 
ATOM     21  C   UNL d   1     -40.215  14.961  19.666  0.00  0.00     0.104 A 
ATOM     22  C   UNL d   1     -40.644  15.375  20.240  0.00  0.00     0.013 A 
ATOM     23  C   UNL d   1     -41.197  14.990  20.698  0.00  0.00     0.005 A 
BRANCH  21  24
ATOM     24  S   UNL d   1     -39.651  15.348  19.198  0.00  0.00     0.271 S 
ATOM     25  O   UNL d   1     -39.068  15.138  19.735  0.00  0.00    -0.200 OA
ATOM     26  O   UNL d   1     -40.240  15.559  18.658  0.00  0.00    -0.200 OA
BRANCH  24  27
ATOM     27  N   UNL d   1     -39.091  15.731  18.734  0.00  0.00    -0.226 N 
ATOM     28  C   UNL d   1     -38.359  15.922  19.052  0.00  0.00     0.111 C 
ATOM     29  C   UNL d   1     -39.263  15.922  17.956  0.00  0.00     0.111 C 
ENDBRANCH  24  27
ENDBRANCH  21  24
ENDBRANCH   2  18
TORSDOF 5
ENDMDL
MODEL 3
REMARK VINA RESULT:      -4.7      1.447      6.722
REMARK  5 active torsions:
REMARK  status: ('A' for Active; 'I' for Inactive)
REMARK    1  A    between atoms: C_12  and  S_1 
REMARK    2  A    between atoms: N_13  and  S_1 
REMARK    3  A    between atoms: C_2  and  N_6 
REMARK    4  A    between atoms: C_5  and  C_3 
REMARK       I    between atoms: N_6  and  C_8 
REMARK    5  A    between atoms: C_8  and  C_18 
ROOT
ATOM      1  N   UNL d   1     -44.736  13.481  21.980  0.00  0.00    -0.183 NA
ATOM      2  C   UNL d   1     -44.131  12.948  21.833  0.00  0.00     0.281 C 
ATOM      3  O   UNL d   1     -44.248  12.142  21.992  0.00  0.00    -0.265 OA
ENDROOT
BRANCH   1   4
ATOM      4  C   UNL d   1     -45.453  13.224  22.283  0.00  0.00     0.197 A 
ATOM      5  N   UNL d   1     -46.182  13.258  21.900  0.00  0.00    -0.218 NA
ATOM      6  C   UNL d   1     -46.751  12.940  22.408  0.00  0.00     0.113 A 
ATOM      7  C   UNL d   1     -46.374  12.709  23.105  0.00  0.00     0.059 A 
ATOM      8  S   UNL d   1     -45.576  12.885  23.025  0.00  0.00    -0.046 SA
BRANCH   6   9
ATOM      9  C   UNL d   1     -47.554  12.866  22.248  0.00  0.00     0.118 A 
ATOM     10  O   UNL d   1     -48.010  13.276  21.758  0.00  0.00    -0.306 OA
ATOM     11  C   UNL d   1     -48.770  13.065  21.731  0.00  0.00     0.100 A 
ATOM     12  C   UNL d   1     -49.449  13.310  21.324  0.00  0.00     0.025 A 
ATOM     13  C   UNL d   1     -48.820  12.432  22.274  0.00  0.00     0.025 A 
ATOM     14  C   UNL d   1     -50.169  12.933  21.453  0.00  0.00     0.002 A 
ATOM     15  C   UNL d   1     -50.229  12.298  21.995  0.00  0.00     0.000 A 
ATOM     16  C   UNL d   1     -49.548  12.057  22.400  0.00  0.00     0.002 A 
ATOM     17  C   UNL d   1     -48.067  12.315  22.588  0.00  0.00     0.028 A 
ENDBRANCH   6   9
ENDBRANCH   1   4
BRANCH   2  18
ATOM     18  C   UNL d   1     -43.409  13.206  21.528  0.00  0.00     0.058 A 
ATOM     19  C   UNL d   1     -42.801  12.665  21.393  0.00  0.00     0.005 A 
ATOM     20  C   UNL d   1     -42.088  12.925  21.091  0.00  0.00     0.013 A 
ATOM     21  C   UNL d   1     -41.973  13.732  20.919  0.00  0.00     0.104 A 
ATOM     22  C   UNL d   1     -42.591  14.264  21.059  0.00  0.00     0.013 A 
ATOM     23  C   UNL d   1     -43.301  14.002  21.360  0.00  0.00     0.005 A 
BRANCH  21  24
ATOM     24  S   UNL d   1     -41.249  13.993  20.613  0.00  0.00     0.271 S 
ATOM     25  O   UNL d   1     -41.043  14.277  21.354  0.00  0.00    -0.200 OA
ATOM     26  O   UNL d   1     -41.458  13.706  19.866  0.00  0.00    -0.200 OA
BRANCH  24  27
ATOM     27  N   UNL d   1     -40.530  14.252  20.309  0.00  0.00    -0.226 N 
ATOM     28  C   UNL d   1     -39.886  14.344  20.809  0.00  0.00     0.111 C 
ATOM     29  C   UNL d   1     -40.457  14.418  19.510  0.00  0.00     0.111 C 
ENDBRANCH  24  27
ENDBRANCH  21  24
ENDBRANCH   2  18
TORSDOF 5
ENDMDL
MODEL 4
REMARK VINA RESULT:      -4.3      6.399      8.094
REMARK  5 active torsions:
REMARK  status: ('A' for Active; 'I' for Inactive)
REMARK    1  A    between atoms: C_12  and  S_1 
REMARK    2  A    between atoms: N_13  and  S_1 
REMARK    3  A    between atoms: C_2  and  N_6 
REMARK    4  A    between atoms: C_5  and  C_3 
REMARK       I    between atoms: N_6  and  C_8 
REMARK    5  A    between atoms: C_8  and  C_18 
ROOT
ATOM      1  N   UNL d   1     -38.515  15.134  18.703  0.00  0.00    -0.183 NA
ATOM      2  C   UNL d   1     -38.996  14.602  19.100  0.00  0.00     0.281 C 
ATOM      3  O   UNL d   1     -39.564  14.170  18.677  0.00  0.00    -0.265 OA
ENDROOT
BRANCH   1   4
ATOM      4  C   UNL d   1     -38.591  15.242  17.895  0.00  0.00     0.197 A 
ATOM      5  N   UNL d   1     -38.358  14.711  17.310  0.00  0.00    -0.218 NA
ATOM      6  C   UNL d   1     -38.539  15.045  16.576  0.00  0.00     0.113 A 
ATOM      7  C   UNL d   1     -38.884  15.783  16.706  0.00  0.00     0.059 A 
ATOM      8  S   UNL d   1     -38.914  15.902  17.519  0.00  0.00    -0.046 SA
BRANCH   6   9
ATOM      9  C   UNL d   1     -38.400  14.701  15.842  0.00  0.00     0.118 A 
ATOM     10  O   UNL d   1     -38.312  15.035  15.137  0.00  0.00    -0.306 OA
ATOM     11  C   UNL d   1     -38.183  14.545  14.533  0.00  0.00     0.100 A 
ATOM     12  C   UNL d   1     -38.059  14.614  13.717  0.00  0.00     0.025 A 
ATOM     13  C   UNL d   1     -38.186  13.787  14.887  0.00  0.00     0.025 A 
ATOM     14  C   UNL d   1     -37.940  13.943  13.257  0.00  0.00     0.002 A 
ATOM     15  C   UNL d   1     -37.942  13.181  13.602  0.00  0.00     0.000 A 
ATOM     16  C   UNL d   1     -38.066  13.115  14.418  0.00  0.00     0.002 A 
ATOM     17  C   UNL d   1     -38.320  13.892  15.693  0.00  0.00     0.028 A 
ENDBRANCH   6   9
ENDBRANCH   1   4
BRANCH   2  18
ATOM     18  C   UNL d   1     -38.920  14.493  19.914  0.00  0.00     0.058 A 
ATOM     19  C   UNL d   1     -38.250  14.123  20.221  0.00  0.00     0.005 A 
ATOM     20  C   UNL d   1     -38.179  14.017  21.027  0.00  0.00     0.013 A 
ATOM     21  C   UNL d   1     -38.780  14.280  21.540  0.00  0.00     0.104 A 
ATOM     22  C   UNL d   1     -39.448  14.650  21.221  0.00  0.00     0.013 A 
ATOM     23  C   UNL d   1     -39.515  14.754  20.416  0.00  0.00     0.005 A 
BRANCH  21  24
ATOM     24  S   UNL d   1     -38.706  14.172  22.358  0.00  0.00     0.271 S 
ATOM     25  O   UNL d   1     -38.325  14.896  22.416  0.00  0.00    -0.200 OA
ATOM     26  O   UNL d   1     -39.089  13.442  22.299  0.00  0.00    -0.200 OA
BRANCH  24  27
ATOM     27  N   UNL d   1     -38.631  14.064  23.171  0.00  0.00    -0.226 N 
ATOM     28  C   UNL d   1     -38.290  14.653  23.630  0.00  0.00     0.111 C 
ATOM     29  C   UNL d   1     -38.898  13.372  23.520  0.00  0.00     0.111 C 
ENDBRANCH  24  27
ENDBRANCH  21  24
ENDBRANCH   2  18
TORSDOF 5
ENDMDL
