MODEL 1
REMARK VINA RESULT:      23.8      0.000      0.000
REMARK  6 active torsions:
REMARK  status: ('A' for Active; 'I' for Inactive)
REMARK    1  A    between atoms: C_12  and  N_1 
REMARK    2  A    between atoms: S_10  and  C_2 
REMARK    3  A    between atoms: C_5  and  N_7 
REMARK       I    between atoms: N_7  and  C_11 
REMARK    4  A    between atoms: C_16  and  S_10 
REMARK    5  A    between atoms: C_11  and  C_16 
REMARK    6  A    between atoms: C_17  and  C_12 
ROOT
ATOM      1  N   UNL d   1      46.553 -18.696  42.791  0.00  0.00    -0.303 N 
ATOM      2  C   UNL d   1      46.421 -17.906  43.858  0.00  0.00     0.049 A 
ATOM      3  C   UNL d   1      46.512 -17.923  43.028  0.00  0.00     0.087 A 
ATOM      4  C   UNL d   1      46.409 -18.693  44.111  0.00  0.00     0.024 A 
ATOM      5  C   UNL d   1      46.490 -19.182  43.452  0.00  0.00     0.065 A 
ATOM      6  C   UNL d   1      46.333 -19.020  44.861  0.00  0.00     0.002 A 
ATOM      7  C   UNL d   1      46.497 -19.998  43.542  0.00  0.00     0.018 A 
ATOM      8  C   UNL d   1      46.339 -19.841  44.953  0.00  0.00     0.000 A 
ATOM      9  C   UNL d   1      46.421 -20.329  44.293  0.00  0.00     0.002 A 
ENDROOT
BRANCH   2  10
ATOM     10  S   UNL d   1      46.355 -17.240  44.335  0.00  0.00    -0.080 SA
BRANCH  10  11
ATOM     11  C   UNL d   1      45.733 -16.702  44.220  0.00  0.00     0.098 C 
BRANCH  11  12
ATOM     12  C   UNL d   1      45.812 -15.911  44.430  0.00  0.00     0.288 C 
ATOM     13  N   UNL d   1      45.285 -15.341  44.150  0.00  0.00    -0.182 NA
ATOM     14  O   UNL d   1      46.424 -15.690  44.925  0.00  0.00    -0.265 OA
BRANCH  13  15
ATOM     15  C   UNL d   1      45.373 -14.551  44.367  0.00  0.00     0.197 A 
ATOM     16  N   UNL d   1      46.023 -14.043  44.326  0.00  0.00    -0.219 NA
ATOM     17  C   UNL d   1      45.783 -13.307  44.626  0.00  0.00     0.108 A 
ATOM     18  C   UNL d   1      44.993 -13.373  44.845  0.00  0.00     0.059 A 
ATOM     19  S   UNL d   1      44.740 -14.143  44.685  0.00  0.00    -0.046 SA
ENDBRANCH  13  15
ENDBRANCH  11  12
ENDBRANCH  10  11
ENDBRANCH   2  10
BRANCH   1  20
ATOM     20  C   UNL d   1      46.645 -18.959  41.999  0.00  0.00     0.080 C 
BRANCH  20  21
ATOM     21  C   UNL d   1      46.166 -18.659  41.404  0.00  0.00     0.018 A 
ATOM     22  C   UNL d   1      45.350 -18.590  41.515  0.00  0.00     0.002 A 
ATOM     23  C   UNL d   1      44.872 -18.289  40.915  0.00  0.00     0.000 A 
ATOM     24  C   UNL d   1      45.200 -18.054  40.204  0.00  0.00     0.000 A 
ATOM     25  C   UNL d   1      46.026 -18.121  40.083  0.00  0.00     0.000 A 
ATOM     26  C   UNL d   1      46.502 -18.425  40.689  0.00  0.00     0.002 A 
ENDBRANCH  20  21
ENDBRANCH   1  20
TORSDOF 6
ENDMDL
MODEL 2
REMARK VINA RESULT:      26.7      1.596      5.099
REMARK  6 active torsions:
REMARK  status: ('A' for Active; 'I' for Inactive)
REMARK    1  A    between atoms: C_12  and  N_1 
REMARK    2  A    between atoms: S_10  and  C_2 
REMARK    3  A    between atoms: C_5  and  N_7 
REMARK       I    between atoms: N_7  and  C_11 
REMARK    4  A    between atoms: C_16  and  S_10 
REMARK    5  A    between atoms: C_11  and  C_16 
REMARK    6  A    between atoms: C_17  and  C_12 
ROOT
ATOM      1  N   UNL d   1      45.489 -14.007  44.371  0.00  0.00    -0.303 N 
ATOM      2  C   UNL d   1      45.838 -15.295  44.369  0.00  0.00     0.049 A 
ATOM      3  C   UNL d   1      46.107 -14.514  44.243  0.00  0.00     0.087 A 
ATOM      4  C   UNL d   1      45.039 -15.240  44.576  0.00  0.00     0.024 A 
ATOM      5  C   UNL d   1      44.824 -14.444  44.577  0.00  0.00     0.065 A 
ATOM      6  C   UNL d   1      44.487 -15.818  44.763  0.00  0.00     0.002 A 
ATOM      7  C   UNL d   1      44.055 -14.226  44.765  0.00  0.00     0.018 A 
ATOM      8  C   UNL d   1      43.713 -15.600  44.952  0.00  0.00     0.000 A 
ATOM      9  C   UNL d   1      43.497 -14.804  44.953  0.00  0.00     0.002 A 
ENDROOT
BRANCH   2  10
ATOM     10  S   UNL d   1      46.277 -15.987  44.302  0.00  0.00    -0.080 SA
BRANCH  10  11
ATOM     11  C   UNL d   1      46.151 -16.503  43.663  0.00  0.00     0.098 C 
BRANCH  11  12
ATOM     12  C   UNL d   1      46.277 -17.311  43.740  0.00  0.00     0.288 C 
ATOM     13  N   UNL d   1      46.218 -17.816  43.090  0.00  0.00    -0.182 NA
ATOM     14  O   UNL d   1      46.465 -17.617  44.475  0.00  0.00    -0.265 OA
BRANCH  13  15
ATOM     15  C   UNL d   1      46.346 -18.625  43.178  0.00  0.00     0.197 A 
ATOM     16  N   UNL d   1      46.313 -19.113  43.843  0.00  0.00    -0.219 NA
ATOM     17  C   UNL d   1      46.495 -19.884  43.595  0.00  0.00     0.108 A 
ATOM     18  C   UNL d   1      46.636 -19.858  42.784  0.00  0.00     0.059 A 
ATOM     19  S   UNL d   1      46.544 -19.079  42.527  0.00  0.00    -0.046 SA
ENDBRANCH  13  15
ENDBRANCH  11  12
ENDBRANCH  10  11
ENDBRANCH   2  10
BRANCH   1  20
ATOM     20  C   UNL d   1      45.523 -13.171  44.303  0.00  0.00     0.080 C 
BRANCH  20  21
ATOM     21  C   UNL d   1      45.469 -12.812  43.567  0.00  0.00     0.018 A 
ATOM     22  C   UNL d   1      46.148 -12.573  43.163  0.00  0.00     0.002 A 
ATOM     23  C   UNL d   1      46.089 -12.214  42.425  0.00  0.00     0.000 A 
ATOM     24  C   UNL d   1      45.357 -12.088  42.083  0.00  0.00     0.000 A 
ATOM     25  C   UNL d   1      44.662 -12.327  42.485  0.00  0.00     0.000 A 
ATOM     26  C   UNL d   1      44.728 -12.688  43.228  0.00  0.00     0.002 A 
ENDBRANCH  20  21
ENDBRANCH   1  20
TORSDOF 6
ENDMDL
