MODEL 1
REMARK VINA RESULT:       1.6      0.000      0.000
REMARK  2 active torsions:
REMARK  status: ('A' for Active; 'I' for Inactive)
REMARK       I    between atoms: N_2  and  C_1 
REMARK    1  A    between atoms: C_6  and  C_1 
REMARK    2  A    between atoms: C_4  and  N_2 
ROOT
ATOM      1  C   UNL d   1     -54.744-102.327 -36.899  0.00  0.00     0.085 A 
ATOM      2  C   UNL d   1     -54.716-101.498 -36.962  0.00  0.00     0.019 A 
ATOM      3  C   UNL d   1     -54.797-102.693 -36.161  0.00  0.00     0.019 A 
ATOM      4  C   UNL d   1     -54.824-102.237 -35.473  0.00  0.00     0.002 A 
ATOM      5  C   UNL d   1     -54.743-101.042 -36.276  0.00  0.00     0.002 A 
ATOM      6  C   UNL d   1     -54.797-101.414 -35.526  0.00  0.00     0.000 A 
ENDROOT
BRANCH   1   7
ATOM      7  N   UNL d   1     -54.717-102.783 -37.585  0.00  0.00    -0.207 NA
ATOM      8  C   UNL d   1     -54.738-102.416 -38.324  0.00  0.00     0.300 C 
ATOM      9  O   UNL d   1     -54.786-101.593 -38.376  0.00  0.00    -0.263 OA
BRANCH   8  10
ATOM     10  C   UNL d   1     -54.711-102.873 -39.011  0.00  0.00     0.184 C 
ATOM     11  N   UNL d   1     -54.751-102.507 -39.749  0.00  0.00    -0.141 N 
ENDBRANCH   8  10
ENDBRANCH   1   7
TORSDOF 2
ENDMDL
