MODEL 1
REMARK VINA RESULT:      44.1      0.000      0.000
REMARK  3 active torsions:
REMARK  status: ('A' for Active; 'I' for Inactive)
REMARK    1  A    between atoms: N_2  and  S_1 
REMARK    2  A    between atoms: C_3  and  S_1 
REMARK    3  A    between atoms: C_5  and  N_4 
ROOT
ATOM      1  N   UNL d   1      14.040  13.885  -3.020  0.00  0.00    -0.226 N 
ATOM      2  N   UNL d   1      14.621  14.947  -1.913  0.00  0.00    -0.286 N 
ATOM      3  C   UNL d   1      14.405  13.610  -2.338  0.00  0.00     0.111 A 
ATOM      4  C   UNL d   1      13.965  14.692  -3.148  0.00  0.00     0.111 A 
ATOM      5  C   UNL d   1      14.256  15.223  -2.595  0.00  0.00     0.101 A 
ATOM      6  C   UNL d   1      14.696  14.140  -1.784  0.00  0.00     0.101 A 
ENDROOT
BRANCH   1   7
ATOM      7  S   UNL d   1      13.741  13.347  -3.587  0.00  0.00     0.277 S 
ATOM      8  O   UNL d   1      13.479  13.983  -4.056  0.00  0.00    -0.199 OA
ATOM      9  O   UNL d   1      14.005  12.707  -3.117  0.00  0.00    -0.199 OA
BRANCH   7  10
ATOM     10  C   UNL d   1      13.443  12.809  -4.154  0.00  0.00     0.133 A 
ATOM     11  S   UNL d   1      12.910  12.192  -4.006  0.00  0.00    -0.074 SA
ATOM     12  C   UNL d   1      12.769  11.800  -4.733  0.00  0.00     0.036 A 
ATOM     13  C   UNL d   1      13.218  12.181  -5.320  0.00  0.00     0.008 A 
ATOM     14  C   UNL d   1      13.636  12.804  -4.969  0.00  0.00     0.020 A 
ENDBRANCH   7  10
ENDBRANCH   1   7
BRANCH   2  15
ATOM     15  C   UNL d   1      14.915  15.470  -1.353  0.00  0.00     0.148 A 
ATOM     16  N   UNL d   1      15.014  15.214  -0.580  0.00  0.00    -0.227 NA
ATOM     17  C   UNL d   1      15.308  15.729  -0.014  0.00  0.00     0.101 A 
ATOM     18  C   UNL d   1      15.503  16.503  -0.221  0.00  0.00     0.021 A 
ATOM     19  C   UNL d   1      15.401  16.754  -1.001  0.00  0.00     0.005 A 
ATOM     20  C   UNL d   1      15.108  16.239  -1.567  0.00  0.00     0.037 A 
ENDBRANCH   2  15
TORSDOF 3
ENDMDL
