MODEL 1
REMARK VINA RESULT:      30.4      0.000      0.000
REMARK  5 active torsions:
REMARK  status: ('A' for Active; 'I' for Inactive)
REMARK    1  A    between atoms: C_2  and  C_1 
REMARK    2  A    between atoms: C_3  and  C_1 
REMARK    3  A    between atoms: C_4  and  C_2 
REMARK    4  A    between atoms: O_9  and  C_6 
REMARK    5  A    between atoms: O_10  and  C_7 
ROOT
ATOM      1  C   UNL d   1      58.332  49.515  50.366  0.00  0.00     0.236 C 
ATOM      2  O   UNL d   1      58.403  49.567  49.553  0.00  0.00    -0.283 OA
ENDROOT
BRANCH   1   3
ATOM      3  C   UNL d   1      58.991  49.515  50.863  0.00  0.00     0.236 C 
ATOM      4  O   UNL d   1      58.905  49.515  51.673  0.00  0.00    -0.283 OA
BRANCH   3   5
ATOM      5  C   UNL d   1      59.760  49.515  50.528  0.00  0.00     0.065 A 
ATOM      6  C   UNL d   1      60.412  49.355  50.969  0.00  0.00     0.097 A 
ATOM      7  C   UNL d   1      61.169  49.358  50.624  0.00  0.00     0.024 A 
ATOM      8  C   UNL d   1      61.238  49.528  49.824  0.00  0.00     0.002 A 
ATOM      9  C   UNL d   1      60.583  49.689  49.378  0.00  0.00     0.000 A 
ATOM     10  C   UNL d   1      59.829  49.685  49.728  0.00  0.00     0.005 A 
BRANCH   6  11
ATOM     11  O   UNL d   1      60.339  49.183  51.782  0.00  0.00    -0.328 OA
ATOM     12  C   UNL d   1      60.485  49.683  52.301  0.00  0.00     0.181 C 
ENDBRANCH   6  11
ENDBRANCH   3   5
ENDBRANCH   1   3
BRANCH   1  13
ATOM     13  C   UNL d   1      57.578  49.459  50.704  0.00  0.00     0.065 A 
ATOM     14  C   UNL d   1      56.953  49.162  50.260  0.00  0.00     0.097 A 
ATOM     15  C   UNL d   1      56.206  49.111  50.605  0.00  0.00     0.024 A 
ATOM     16  C   UNL d   1      56.085  49.350  51.376  0.00  0.00     0.002 A 
ATOM     17  C   UNL d   1      56.694  49.642  51.813  0.00  0.00     0.000 A 
ATOM     18  C   UNL d   1      57.454  49.705  51.493  0.00  0.00     0.005 A 
BRANCH  14  19
ATOM     19  O   UNL d   1      57.066  48.906  49.448  0.00  0.00    -0.328 OA
ATOM     20  C   UNL d   1      56.434  48.784  48.929  0.00  0.00     0.181 C 
ENDBRANCH  14  19
ENDBRANCH   1  13
TORSDOF 5
ENDMDL
