MODEL 1
REMARK VINA RESULT:      -2.6      0.000      0.000
REMARK  4 active torsions:
REMARK  status: ('A' for Active; 'I' for Inactive)
REMARK    1  A    between atoms: N_5  and  S_1 
REMARK    2  A    between atoms: C_6  and  S_1 
REMARK    3  A    between atoms: N_2  and  C_7 
REMARK    4  A    between atoms: C_18  and  N_5 
ROOT
ATOM      1  C   UNL d   1      32.765  19.069 -22.723  0.00  0.00     0.117 A 
ATOM      2  C   UNL d   1      32.592  17.619 -23.471  0.00  0.00     0.070 A 
ATOM      3  C   UNL d   1      33.240  18.445 -22.512  0.00  0.00     0.015 A 
ATOM      4  C   UNL d   1      32.196  18.971 -23.313  0.00  0.00     0.015 A 
ATOM      5  C   UNL d   1      33.156  17.716 -22.886  0.00  0.00     0.018 A 
ATOM      6  C   UNL d   1      32.114  18.242 -23.684  0.00  0.00     0.018 A 
ENDROOT
BRANCH   1   7
ATOM      7  S   UNL d   1      32.850  19.798 -22.348  0.00  0.00     0.327 S 
ATOM      8  O   UNL d   1      32.466  19.493 -21.676  0.00  0.00    -0.186 OA
ATOM      9  O   UNL d   1      33.226  20.090 -23.012  0.00  0.00    -0.186 OA
BRANCH   7  10
ATOM     10  N   UNL d   1      32.931  20.520 -21.969  0.00  0.00    -0.317 NA
BRANCH  10  11
ATOM     11  C   UNL d   1      33.008  21.246 -21.584  0.00  0.00     0.145 A 
ATOM     12  C   UNL d   1      33.067  21.276 -20.754  0.00  0.00     0.033 A 
ATOM     13  C   UNL d   1      33.143  22.001 -20.369  0.00  0.00     0.003 A 
ATOM     14  C   UNL d   1      33.162  22.698 -20.795  0.00  0.00     0.000 A 
ATOM     15  C   UNL d   1      33.104  22.681 -21.627  0.00  0.00     0.003 A 
ATOM     16  C   UNL d   1      33.239  23.425 -20.407  0.00  0.00     0.000 C 
ATOM     17  C   UNL d   1      33.027  21.950 -22.016  0.00  0.00     0.033 A 
ENDBRANCH  10  11
ENDBRANCH   7  10
ENDBRANCH   1   7
BRANCH   2  18
ATOM     18  N   UNL d   1      32.507  16.890 -23.845  0.00  0.00    -0.242 N 
ATOM     19  C   UNL d   1      32.109  16.227 -23.543  0.00  0.00     0.267 A 
ATOM     20  C   UNL d   1      32.159  15.616 -24.100  0.00  0.00     0.066 A 
ATOM     21  O   UNL d   1      31.729  16.184 -22.813  0.00  0.00    -0.267 OA
ATOM     22  C   UNL d   1      32.586  15.900 -24.745  0.00  0.00     0.066 A 
ATOM     23  C   UNL d   1      32.801  16.683 -24.591  0.00  0.00     0.267 A 
ATOM     24  O   UNL d   1      33.236  17.175 -25.096  0.00  0.00    -0.267 OA
ENDBRANCH   2  18
TORSDOF 4
ENDMDL
MODEL 2
REMARK VINA RESULT:      -0.9      1.929      3.128
REMARK  4 active torsions:
REMARK  status: ('A' for Active; 'I' for Inactive)
REMARK    1  A    between atoms: N_5  and  S_1 
REMARK    2  A    between atoms: C_6  and  S_1 
REMARK    3  A    between atoms: N_2  and  C_7 
REMARK    4  A    between atoms: C_18  and  N_5 
ROOT
ATOM      1  C   UNL d   1      32.943  21.209 -21.317  0.00  0.00     0.117 A 
ATOM      2  C   UNL d   1      32.978  20.358 -22.719  0.00  0.00     0.070 A 
ATOM      3  C   UNL d   1      33.222  21.557 -21.996  0.00  0.00     0.015 A 
ATOM      4  C   UNL d   1      32.677  20.427 -21.335  0.00  0.00     0.015 A 
ATOM      5  C   UNL d   1      33.241  21.132 -22.701  0.00  0.00     0.018 A 
ATOM      6  C   UNL d   1      32.697  20.006 -22.040  0.00  0.00     0.018 A 
ENDROOT
BRANCH   1   7
ATOM      7  S   UNL d   1      32.924  21.635 -20.612  0.00  0.00     0.327 S 
ATOM      8  O   UNL d   1      33.240  20.977 -20.212  0.00  0.00    -0.186 OA
ATOM      9  O   UNL d   1      32.615  22.275 -21.012  0.00  0.00    -0.186 OA
BRANCH   7  10
ATOM     10  N   UNL d   1      32.909  22.052 -19.906  0.00  0.00    -0.317 NA
BRANCH  10  11
ATOM     11  C   UNL d   1      32.892  22.467 -19.193  0.00  0.00     0.145 A 
ATOM     12  C   UNL d   1      33.123  22.094 -18.485  0.00  0.00     0.033 A 
ATOM     13  C   UNL d   1      33.105  22.508 -17.772  0.00  0.00     0.003 A 
ATOM     14  C   UNL d   1      32.862  23.288 -17.751  0.00  0.00     0.000 A 
ATOM     15  C   UNL d   1      32.629  23.672 -18.453  0.00  0.00     0.003 A 
ATOM     16  C   UNL d   1      32.846  23.702 -17.035  0.00  0.00     0.000 C 
ATOM     17  C   UNL d   1      32.646  23.256 -19.172  0.00  0.00     0.033 A 
ENDBRANCH  10  11
ENDBRANCH   7  10
ENDBRANCH   1   7
BRANCH   2  18
ATOM     18  N   UNL d   1      32.997  19.932 -23.425  0.00  0.00    -0.242 N 
ATOM     19  C   UNL d   1      33.080  20.250 -24.186  0.00  0.00     0.267 A 
ATOM     20  C   UNL d   1      33.071  19.627 -24.732  0.00  0.00     0.066 A 
ATOM     21  O   UNL d   1      33.160  21.050 -24.370  0.00  0.00    -0.267 OA
ATOM     22  C   UNL d   1      32.981  18.925 -24.309  0.00  0.00     0.066 A 
ATOM     23  C   UNL d   1      32.935  19.111 -23.504  0.00  0.00     0.267 A 
ATOM     24  O   UNL d   1      32.844  18.567 -22.886  0.00  0.00    -0.267 OA
ENDBRANCH   2  18
TORSDOF 4
ENDMDL
