MODEL 1
REMARK VINA RESULT:      -5.8      0.000      0.000
REMARK  3 active torsions:
REMARK  status: ('A' for Active; 'I' for Inactive)
REMARK    1  A    between atoms: C_2  and  N_1 
REMARK    2  A    between atoms: C_4  and  N_1 
REMARK    3  A    between atoms: C_5  and  C_2 
ROOT
ATOM      1  N   UNL d   1     -41.324-122.346 -52.589  0.00  0.00    -0.184 N 
ATOM      2  O   UNL d   1     -41.122-121.567 -52.756  0.00  0.00    -0.080 OA
ENDROOT
BRANCH   1   3
ATOM      3  C   UNL d   1     -41.590-122.839 -53.186  0.00  0.00     0.108 C 
BRANCH   3   4
ATOM      4  C   UNL d   1     -41.753-122.532 -53.937  0.00  0.00     0.020 A 
ATOM      5  C   UNL d   1     -42.458-122.111 -54.062  0.00  0.00     0.004 A 
ATOM      6  C   UNL d   1     -42.620-121.805 -54.811  0.00  0.00     0.030 A 
ATOM      7  C   UNL d   1     -42.092-121.914 -55.426  0.00  0.00     0.140 A 
ATOM      8  C   UNL d   1     -41.398-122.331 -55.291  0.00  0.00     0.030 A 
ATOM      9  F   UNL d   1     -42.254-121.608 -56.172  0.00  0.00    -0.204 F 
ATOM     10  C   UNL d   1     -41.226-122.642 -54.546  0.00  0.00     0.004 A 
ENDBRANCH   3   4
ENDBRANCH   1   3
BRANCH   1  11
ATOM     11  C   UNL d   1     -41.257-122.629 -51.809  0.00  0.00     0.090 A 
ATOM     12  C   UNL d   1     -41.213-123.429 -51.668  0.00  0.00     0.020 A 
ATOM     13  C   UNL d   1     -41.147-123.702 -50.898  0.00  0.00     0.002 A 
ATOM     14  C   UNL d   1     -41.125-123.165 -50.268  0.00  0.00     0.000 A 
ATOM     15  C   UNL d   1     -41.171-122.352 -50.423  0.00  0.00     0.002 A 
ATOM     16  C   UNL d   1     -41.237-122.081 -51.189  0.00  0.00     0.020 A 
ENDBRANCH   1  11
TORSDOF 3
ENDMDL
MODEL 2
REMARK VINA RESULT:      -4.6      2.296      4.279
REMARK  3 active torsions:
REMARK  status: ('A' for Active; 'I' for Inactive)
REMARK    1  A    between atoms: C_2  and  N_1 
REMARK    2  A    between atoms: C_4  and  N_1 
REMARK    3  A    between atoms: C_5  and  C_2 
ROOT
ATOM      1  N   UNL d   1     -41.340-122.818 -51.737  0.00  0.00    -0.184 N 
ATOM      2  O   UNL d   1     -41.123-122.087 -51.429  0.00  0.00    -0.080 OA
ENDROOT
BRANCH   1   3
ATOM      3  C   UNL d   1     -41.562-123.425 -51.235  0.00  0.00     0.108 C 
BRANCH   3   4
ATOM      4  C   UNL d   1     -41.736-123.266 -50.441  0.00  0.00     0.020 A 
ATOM      5  C   UNL d   1     -41.177-123.452 -49.856  0.00  0.00     0.004 A 
ATOM      6  C   UNL d   1     -41.349-123.293 -49.065  0.00  0.00     0.030 A 
ATOM      7  C   UNL d   1     -42.064-122.956 -48.857  0.00  0.00     0.140 A 
ATOM      8  C   UNL d   1     -42.610-122.776 -49.444  0.00  0.00     0.030 A 
ATOM      9  F   UNL d   1     -42.236-122.798 -48.069  0.00  0.00    -0.204 F 
ATOM     10  C   UNL d   1     -42.448-122.930 -50.238  0.00  0.00     0.004 A 
ENDBRANCH   3   4
ENDBRANCH   1   3
BRANCH   1  11
ATOM     11  C   UNL d   1     -41.334-122.935 -52.561  0.00  0.00     0.090 A 
ATOM     12  C   UNL d   1     -41.477-122.311 -53.063  0.00  0.00     0.020 A 
ATOM     13  C   UNL d   1     -41.470-122.435 -53.873  0.00  0.00     0.002 A 
ATOM     14  C   UNL d   1     -41.317-123.189 -54.177  0.00  0.00     0.000 A 
ATOM     15  C   UNL d   1     -41.172-123.817 -53.656  0.00  0.00     0.002 A 
ATOM     16  C   UNL d   1     -41.180-123.696 -52.851  0.00  0.00     0.020 A 
ENDBRANCH   1  11
TORSDOF 3
ENDMDL
