MODEL 1
REMARK VINA RESULT:      11.0      0.000      0.000
REMARK  6 active torsions:
REMARK  status: ('A' for Active; 'I' for Inactive)
REMARK    1  A    between atoms: C_2  and  S_1 
REMARK    2  A    between atoms: N_3  and  S_1 
REMARK    3  A    between atoms: C_10  and  N_3 
REMARK    4  A    between atoms: C_16  and  C_11 
REMARK    5  A    between atoms: C_17  and  C_16 
REMARK    6  A    between atoms: C_18  and  C_17 
ROOT
ATOM      1  C   UNL d   1      45.535 -14.732  44.841  0.00  0.00     0.094 A 
ATOM      2  C   UNL d   1      45.773 -16.334  44.627  0.00  0.00     0.000 A 
ATOM      3  C   UNL d   1      44.910 -15.260  44.955  0.00  0.00     0.020 A 
ATOM      4  C   UNL d   1      46.273 -15.013  44.622  0.00  0.00     0.020 A 
ATOM      5  C   UNL d   1      46.390 -15.798  44.517  0.00  0.00     0.002 A 
ATOM      6  C   UNL d   1      45.027 -16.046  44.850  0.00  0.00     0.002 A 
ENDROOT
BRANCH   1   7
ATOM      7  N   UNL d   1      45.409 -13.885  44.955  0.00  0.00    -0.158 NA
BRANCH   7   8
ATOM      8  S   UNL d   1      45.258 -13.407  44.302  0.00  0.00     0.291 S 
ATOM      9  O   UNL d   1      46.029 -13.071  44.429  0.00  0.00    -0.198 OA
ATOM     10  O   UNL d   1      44.499 -13.780  44.226  0.00  0.00    -0.198 OA
BRANCH   8  11
ATOM     11  C   UNL d   1      45.117 -12.926  43.654  0.00  0.00     0.135 A 
ATOM     12  S   UNL d   1      44.451 -12.554  43.360  0.00  0.00    -0.073 SA
ATOM     13  C   UNL d   1      44.654 -12.137  42.676  0.00  0.00     0.036 A 
ATOM     14  C   UNL d   1      45.425 -12.245  42.546  0.00  0.00     0.008 A 
ATOM     15  C   UNL d   1      45.732 -12.731  43.140  0.00  0.00     0.020 A 
ENDBRANCH   8  11
ENDBRANCH   7   8
ENDBRANCH   1   7
BRANCH   2  16
ATOM     16  C   UNL d   1      45.899 -17.181  44.514  0.00  0.00     0.000 C 
BRANCH  16  17
ATOM     17  C   UNL d   1      46.220 -17.459  43.805  0.00  0.00     0.000 C 
BRANCH  17  18
ATOM     18  C   UNL d   1      46.439 -18.251  43.735  0.00  0.00     0.000 C 
ATOM     19  C   UNL d   1      46.196 -18.691  43.086  0.00  0.00     0.000 C 
ENDBRANCH  17  18
ENDBRANCH  16  17
ENDBRANCH   2  16
TORSDOF 6
ENDMDL
MODEL 2
REMARK VINA RESULT:      12.8      1.034      1.682
REMARK  6 active torsions:
REMARK  status: ('A' for Active; 'I' for Inactive)
REMARK    1  A    between atoms: C_2  and  S_1 
REMARK    2  A    between atoms: N_3  and  S_1 
REMARK    3  A    between atoms: C_10  and  N_3 
REMARK    4  A    between atoms: C_16  and  C_11 
REMARK    5  A    between atoms: C_17  and  C_16 
REMARK    6  A    between atoms: C_18  and  C_17 
ROOT
ATOM      1  C   UNL d   1      45.527 -16.151  44.532  0.00  0.00     0.094 A 
ATOM      2  C   UNL d   1      46.212 -17.408  43.745  0.00  0.00     0.000 A 
ATOM      3  C   UNL d   1      45.968 -16.708  44.952  0.00  0.00     0.020 A 
ATOM      4  C   UNL d   1      45.434 -16.230  43.721  0.00  0.00     0.020 A 
ATOM      5  C   UNL d   1      45.770 -16.846  43.335  0.00  0.00     0.002 A 
ATOM      6  C   UNL d   1      46.304 -17.325  44.567  0.00  0.00     0.002 A 
ENDROOT
BRANCH   1   7
ATOM      7  N   UNL d   1      45.164 -15.486  44.947  0.00  0.00    -0.158 NA
BRANCH   7   8
ATOM      8  S   UNL d   1      45.327 -14.717  44.702  0.00  0.00     0.291 S 
ATOM      9  O   UNL d   1      44.487 -14.584  44.721  0.00  0.00    -0.198 OA
ATOM     10  O   UNL d   1      46.154 -14.910  44.701  0.00  0.00    -0.198 OA
BRANCH   8  11
ATOM     11  C   UNL d   1      45.478 -13.950  44.457  0.00  0.00     0.135 A 
ATOM     12  S   UNL d   1      45.304 -13.529  43.778  0.00  0.00    -0.073 SA
ATOM     13  C   UNL d   1      45.605 -12.762  43.852  0.00  0.00     0.036 A 
ATOM     14  C   UNL d   1      45.956 -12.706  44.556  0.00  0.00     0.008 A 
ATOM     15  C   UNL d   1      45.889 -13.430  44.948  0.00  0.00     0.020 A 
ENDBRANCH   8  11
ENDBRANCH   7   8
ENDBRANCH   1   7
BRANCH   2  16
ATOM     16  C   UNL d   1      46.575 -18.074  43.330  0.00  0.00     0.000 C 
BRANCH  16  17
ATOM     17  C   UNL d   1      46.115 -18.725  43.114  0.00  0.00     0.000 C 
BRANCH  17  18
ATOM     18  C   UNL d   1      46.473 -19.456  42.983  0.00  0.00     0.000 C 
ATOM     19  C   UNL d   1      46.026 -20.095  42.730  0.00  0.00     0.000 C 
ENDBRANCH  17  18
ENDBRANCH  16  17
ENDBRANCH   2  16
TORSDOF 6
ENDMDL
