MODEL 1
REMARK VINA RESULT:      42.0      0.000      0.000
REMARK  2 active torsions:
REMARK  status: ('A' for Active; 'I' for Inactive)
REMARK    1  A    between atoms: C_12  and  N_1 
REMARK    2  A    between atoms: N_6  and  C_13 
ROOT
ATOM      1  N   UNL d   1     -54.774-101.509 -42.522  0.00  0.00    -0.242 N 
ATOM      2  C   UNL d   1     -54.787-101.977 -43.274  0.00  0.00     0.263 A 
ATOM      3  C   UNL d   1     -54.748-100.743 -42.691  0.00  0.00     0.263 A 
ATOM      4  C   UNL d   1     -54.741-100.603 -43.525  0.00  0.00     0.039 A 
ATOM      5  C   UNL d   1     -54.762-101.271 -43.906  0.00  0.00     0.039 A 
ATOM      6  C   UNL d   1     -54.760-101.315 -44.689  0.00  0.00     0.049 A 
ATOM      7  C   UNL d   1     -54.716 -99.913 -43.971  0.00  0.00     0.049 A 
ATOM      8  C   UNL d   1     -54.737-100.654 -45.137  0.00  0.00    -0.026 A 
ATOM      9  C   UNL d   1     -54.715 -99.940 -44.763  0.00  0.00    -0.026 A 
ATOM     10  C   UNL d   1     -54.747-100.837 -43.994  0.00  0.00     0.018 A 
ATOM     11  O   UNL d   1     -54.730-100.135 -42.139  0.00  0.00    -0.267 OA
ATOM     12  O   UNL d   1     -54.810-102.680 -43.412  0.00  0.00    -0.267 OA
ENDROOT
BRANCH   1  13
ATOM     13  C   UNL d   1     -54.786-101.784 -41.747  0.00  0.00     0.070 A 
ATOM     14  C   UNL d   1     -54.712-102.594 -41.593  0.00  0.00     0.019 A 
ATOM     15  C   UNL d   1     -54.723-102.879 -40.812  0.00  0.00     0.018 A 
ATOM     16  C   UNL d   1     -54.810-102.340 -40.174  0.00  0.00     0.096 A 
ATOM     17  C   UNL d   1     -54.882-101.536 -40.339  0.00  0.00     0.018 A 
ATOM     18  C   UNL d   1     -54.870-101.257 -41.125  0.00  0.00     0.019 A 
BRANCH  16  19
ATOM     19  N   UNL d   1     -54.822-102.609 -39.400  0.00  0.00     0.037 NA
ATOM     20  O   UNL d   1     -54.732-101.856 -39.707  0.00  0.00    -0.084 OA
ATOM     21  O   UNL d   1     -54.813-102.740 -38.539  0.00  0.00    -0.084 OA
ENDBRANCH  16  19
ENDBRANCH   1  13
TORSDOF 2
ENDMDL
