MODEL 1
REMARK VINA RESULT:      -8.3      0.000      0.000
REMARK  3 active torsions:
REMARK  status: ('A' for Active; 'I' for Inactive)
REMARK    1  A    between atoms: N_6  and  C_1 
REMARK    2  A    between atoms: C_14  and  N_4 
REMARK    3  A    between atoms: C_7  and  N_6 
ROOT
ATOM      1  C   UNL d   1      51.645  33.869  53.289  0.00  0.00     0.157 A 
ATOM      2  C   UNL d   1      51.694  33.047  53.358  0.00  0.00     0.298 A 
ATOM      3  N   UNL d   1      52.878  33.547  53.182  0.00  0.00    -0.238 N 
ATOM      4  N   UNL d   1      52.450  32.837  53.294  0.00  0.00    -0.209 N 
ATOM      5  C   UNL d   1      52.334  34.134  53.189  0.00  0.00     0.104 A 
ATOM      6  O   UNL d   1      51.052  32.528  53.476  0.00  0.00    -0.263 OA
ATOM      7  C   UNL d   1      53.702  33.661  53.081  0.00  0.00     0.120 C 
ATOM      8  C   UNL d   1      52.516  34.907  53.098  0.00  0.00     0.022 C 
ENDROOT
BRANCH   1   9
ATOM      9  N   UNL d   1      50.968  34.334  53.321  0.00  0.00    -0.239 NA
BRANCH   9  10
ATOM     10  C   UNL d   1      50.487  34.385  52.677  0.00  0.00     0.082 A 
ATOM     11  C   UNL d   1      49.743  34.785  52.711  0.00  0.00     0.021 A 
ATOM     12  C   UNL d   1      49.249  34.841  52.060  0.00  0.00     0.040 A 
ATOM     13  C   UNL d   1      49.515  35.125  53.420  0.00  0.00     0.002 A 
ATOM     14  C   UNL d   1      48.528  35.233  52.106  0.00  0.00     0.003 A 
ATOM     15  C   UNL d   1      49.477  34.501  51.351  0.00  0.00     0.196 A 
ATOM     16  C   UNL d   1      48.314  35.570  52.829  0.00  0.00     0.000 A 
ATOM     17  C   UNL d   1      48.797  35.519  53.480  0.00  0.00     0.000 A 
ATOM     18  C   UNL d   1      50.199  34.105  51.293  0.00  0.00     0.044 A 
ATOM     19  O   UNL d   1      48.956  34.563  50.674  0.00  0.00    -0.287 OA
ATOM     20  C   UNL d   1      50.712  34.049  51.977  0.00  0.00     0.022 A 
ENDBRANCH   9  10
ENDBRANCH   1   9
BRANCH   4  21
ATOM     21  C   UNL d   1      52.744  32.072  53.331  0.00  0.00     0.085 A 
ATOM     22  C   UNL d   1      53.227  31.846  53.983  0.00  0.00     0.019 A 
ATOM     23  C   UNL d   1      53.530  31.074  54.031  0.00  0.00     0.002 A 
ATOM     24  C   UNL d   1      53.366  30.511  53.441  0.00  0.00     0.000 A 
ATOM     25  C   UNL d   1      52.887  30.726  52.790  0.00  0.00     0.002 A 
ATOM     26  C   UNL d   1      52.587  31.501  52.749  0.00  0.00     0.019 A 
ENDBRANCH   4  21
TORSDOF 3
ENDMDL
MODEL 2
REMARK VINA RESULT:      -8.0      1.359      2.285
REMARK  3 active torsions:
REMARK  status: ('A' for Active; 'I' for Inactive)
REMARK    1  A    between atoms: N_6  and  C_1 
REMARK    2  A    between atoms: C_14  and  N_4 
REMARK    3  A    between atoms: C_7  and  N_6 
ROOT
ATOM      1  C   UNL d   1      52.234  33.364  52.819  0.00  0.00     0.157 A 
ATOM      2  C   UNL d   1      52.839  33.754  53.223  0.00  0.00     0.298 A 
ATOM      3  N   UNL d   1      52.857  32.491  53.515  0.00  0.00    -0.238 N 
ATOM      4  N   UNL d   1      53.230  33.226  53.656  0.00  0.00    -0.209 N 
ATOM      5  C   UNL d   1      52.262  32.642  53.000  0.00  0.00     0.104 A 
ATOM      6  O   UNL d   1      53.008  34.570  53.181  0.00  0.00    -0.263 OA
ATOM      7  C   UNL d   1      53.036  31.734  53.826  0.00  0.00     0.120 C 
ATOM      8  C   UNL d   1      51.765  32.082  52.721  0.00  0.00     0.022 C 
ENDROOT
BRANCH   1   9
ATOM      9  N   UNL d   1      51.685  33.692  52.303  0.00  0.00    -0.239 NA
BRANCH   9  10
ATOM     10  C   UNL d   1      51.040  34.078  52.596  0.00  0.00     0.082 A 
ATOM     11  C   UNL d   1      50.387  34.285  52.102  0.00  0.00     0.021 A 
ATOM     12  C   UNL d   1      49.729  34.677  52.393  0.00  0.00     0.040 A 
ATOM     13  C   UNL d   1      50.419  34.086  51.308  0.00  0.00     0.002 A 
ATOM     14  C   UNL d   1      49.099  34.874  51.903  0.00  0.00     0.003 A 
ATOM     15  C   UNL d   1      49.697  34.876  53.187  0.00  0.00     0.196 A 
ATOM     16  C   UNL d   1      49.148  34.665  51.105  0.00  0.00     0.000 A 
ATOM     17  C   UNL d   1      49.796  34.277  50.807  0.00  0.00     0.000 A 
ATOM     18  C   UNL d   1      50.323  34.683  53.689  0.00  0.00     0.044 A 
ATOM     19  O   UNL d   1      49.006  35.285  53.485  0.00  0.00    -0.287 OA
ATOM     20  C   UNL d   1      51.009  34.274  53.379  0.00  0.00     0.022 A 
ENDBRANCH   9  10
ENDBRANCH   1   9
BRANCH   4  21
ATOM     21  C   UNL d   1      53.873  33.379  54.142  0.00  0.00     0.085 A 
ATOM     22  C   UNL d   1      54.651  33.337  53.824  0.00  0.00     0.019 A 
ATOM     23  C   UNL d   1      55.309  33.490  54.308  0.00  0.00     0.002 A 
ATOM     24  C   UNL d   1      55.215  33.686  55.111  0.00  0.00     0.000 A 
ATOM     25  C   UNL d   1      54.446  33.730  55.436  0.00  0.00     0.002 A 
ATOM     26  C   UNL d   1      53.792  33.576  54.945  0.00  0.00     0.019 A 
ENDBRANCH   4  21
TORSDOF 3
ENDMDL
MODEL 3
REMARK VINA RESULT:      -7.3      1.162      4.637
REMARK  3 active torsions:
REMARK  status: ('A' for Active; 'I' for Inactive)
REMARK    1  A    between atoms: N_6  and  C_1 
REMARK    2  A    between atoms: C_14  and  N_4 
REMARK    3  A    between atoms: C_7  and  N_6 
ROOT
ATOM      1  C   UNL d   1      52.727  32.797  53.666  0.00  0.00     0.157 A 
ATOM      2  C   UNL d   1      51.942  32.927  53.447  0.00  0.00     0.298 A 
ATOM      3  N   UNL d   1      52.654  33.978  53.181  0.00  0.00    -0.238 N 
ATOM      4  N   UNL d   1      51.884  33.653  53.147  0.00  0.00    -0.209 N 
ATOM      5  C   UNL d   1      53.117  33.411  53.505  0.00  0.00     0.104 A 
ATOM      6  O   UNL d   1      51.315  32.383  53.530  0.00  0.00    -0.263 OA
ATOM      7  C   UNL d   1      52.924  34.733  52.939  0.00  0.00     0.120 C 
ATOM      8  C   UNL d   1      53.901  33.501  53.636  0.00  0.00     0.022 C 
ENDROOT
BRANCH   1   9
ATOM      9  N   UNL d   1      53.047  32.120  54.004  0.00  0.00    -0.239 NA
BRANCH   9  10
ATOM     10  C   UNL d   1      53.060  31.432  53.583  0.00  0.00     0.082 A 
ATOM     11  C   UNL d   1      53.156  30.683  53.964  0.00  0.00     0.021 A 
ATOM     12  C   UNL d   1      53.171  29.981  53.543  0.00  0.00     0.040 A 
ATOM     13  C   UNL d   1      53.235  30.667  54.779  0.00  0.00     0.002 A 
ATOM     14  C   UNL d   1      53.264  29.258  53.924  0.00  0.00     0.003 A 
ATOM     15  C   UNL d   1      53.091  29.997  52.728  0.00  0.00     0.196 A 
ATOM     16  C   UNL d   1      53.343  29.260  54.747  0.00  0.00     0.000 A 
ATOM     17  C   UNL d   1      53.329  29.952  55.172  0.00  0.00     0.000 A 
ATOM     18  C   UNL d   1      52.997  30.716  52.335  0.00  0.00     0.044 A 
ATOM     19  O   UNL d   1      53.108  29.259  52.295  0.00  0.00    -0.287 OA
ATOM     20  C   UNL d   1      52.982  31.448  52.779  0.00  0.00     0.022 A 
ENDBRANCH   9  10
ENDBRANCH   1   9
BRANCH   4  21
ATOM     21  C   UNL d   1      51.201  34.005  52.861  0.00  0.00     0.085 A 
ATOM     22  C   UNL d   1      51.051  34.007  52.033  0.00  0.00     0.019 A 
ATOM     23  C   UNL d   1      50.362  34.361  51.733  0.00  0.00     0.002 A 
ATOM     24  C   UNL d   1      49.808  34.719  52.240  0.00  0.00     0.000 A 
ATOM     25  C   UNL d   1      49.948  34.723  53.064  0.00  0.00     0.002 A 
ATOM     26  C   UNL d   1      50.640  34.366  53.357  0.00  0.00     0.019 A 
ENDBRANCH   4  21
TORSDOF 3
ENDMDL
MODEL 4
REMARK VINA RESULT:      -7.2      1.143      1.892
REMARK  3 active torsions:
REMARK  status: ('A' for Active; 'I' for Inactive)
REMARK    1  A    between atoms: N_6  and  C_1 
REMARK    2  A    between atoms: C_14  and  N_4 
REMARK    3  A    between atoms: C_7  and  N_6 
ROOT
ATOM      1  C   UNL d   1      52.736  32.917  52.823  0.00  0.00     0.157 A 
ATOM      2  C   UNL d   1      52.582  32.112  52.923  0.00  0.00     0.298 A 
ATOM      3  N   UNL d   1      53.681  32.431  53.534  0.00  0.00    -0.238 N 
ATOM      4  N   UNL d   1      53.159  31.801  53.359  0.00  0.00    -0.209 N 
ATOM      5  C   UNL d   1      53.369  33.078  53.181  0.00  0.00     0.104 A 
ATOM      6  O   UNL d   1      51.928  31.698  52.613  0.00  0.00    -0.263 OA
ATOM      7  C   UNL d   1      54.391  32.426  53.979  0.00  0.00     0.120 C 
ATOM      8  C   UNL d   1      53.702  33.804  53.214  0.00  0.00     0.022 C 
ENDROOT
BRANCH   1   9
ATOM      9  N   UNL d   1      52.285  33.465  52.408  0.00  0.00    -0.239 NA
BRANCH   9  10
ATOM     10  C   UNL d   1      51.631  33.787  52.752  0.00  0.00     0.082 A 
ATOM     11  C   UNL d   1      50.983  34.071  52.289  0.00  0.00     0.021 A 
ATOM     12  C   UNL d   1      50.316  34.400  52.632  0.00  0.00     0.040 A 
ATOM     13  C   UNL d   1      51.030  34.012  51.474  0.00  0.00     0.002 A 
ATOM     14  C   UNL d   1      49.691  34.672  52.171  0.00  0.00     0.003 A 
ATOM     15  C   UNL d   1      50.269  34.459  53.447  0.00  0.00     0.196 A 
ATOM     16  C   UNL d   1      49.755  34.605  51.350  0.00  0.00     0.000 A 
ATOM     17  C   UNL d   1      50.413  34.280  51.002  0.00  0.00     0.000 A 
ATOM     18  C   UNL d   1      50.889  34.189  53.919  0.00  0.00     0.044 A 
ATOM     19  O   UNL d   1      49.568  34.804  53.799  0.00  0.00    -0.287 OA
ATOM     20  C   UNL d   1      51.585  33.846  53.556  0.00  0.00     0.022 A 
ENDBRANCH   9  10
ENDBRANCH   1   9
BRANCH   4  21
ATOM     21  C   UNL d   1      53.222  31.016  53.589  0.00  0.00     0.085 A 
ATOM     22  C   UNL d   1      53.353  30.424  53.006  0.00  0.00     0.019 A 
ATOM     23  C   UNL d   1      53.419  29.626  53.227  0.00  0.00     0.002 A 
ATOM     24  C   UNL d   1      53.357  29.395  54.024  0.00  0.00     0.000 A 
ATOM     25  C   UNL d   1      53.228  29.976  54.611  0.00  0.00     0.002 A 
ATOM     26  C   UNL d   1      53.163  30.774  54.381  0.00  0.00     0.019 A 
ENDBRANCH   4  21
TORSDOF 3
ENDMDL
MODEL 5
REMARK VINA RESULT:      -6.8      2.723      3.728
REMARK  3 active torsions:
REMARK  status: ('A' for Active; 'I' for Inactive)
REMARK    1  A    between atoms: N_6  and  C_1 
REMARK    2  A    between atoms: C_14  and  N_4 
REMARK    3  A    between atoms: C_7  and  N_6 
ROOT
ATOM      1  C   UNL d   1      53.074  31.785  53.331  0.00  0.00     0.157 A 
ATOM      2  C   UNL d   1      53.506  31.177  53.685  0.00  0.00     0.298 A 
ATOM      3  N   UNL d   1      52.305  30.767  53.417  0.00  0.00    -0.238 N 
ATOM      4  N   UNL d   1      53.042  30.544  53.743  0.00  0.00    -0.209 N 
ATOM      5  C   UNL d   1      52.389  31.529  53.186  0.00  0.00     0.104 A 
ATOM      6  O   UNL d   1      54.299  31.225  53.938  0.00  0.00    -0.263 OA
ATOM      7  C   UNL d   1      51.602  30.319  53.332  0.00  0.00     0.120 C 
ATOM      8  C   UNL d   1      51.806  31.955  52.843  0.00  0.00     0.022 C 
ENDROOT
BRANCH   1   9
ATOM      9  N   UNL d   1      53.331  32.547  53.158  0.00  0.00    -0.239 NA
BRANCH   9  10
ATOM     10  C   UNL d   1      53.431  33.080  53.755  0.00  0.00     0.082 A 
ATOM     11  C   UNL d   1      53.207  33.890  53.666  0.00  0.00     0.021 A 
ATOM     12  C   UNL d   1      53.306  34.437  54.267  0.00  0.00     0.040 A 
ATOM     13  C   UNL d   1      52.881  34.129  52.953  0.00  0.00     0.002 A 
ATOM     14  C   UNL d   1      53.084  35.223  54.169  0.00  0.00     0.003 A 
ATOM     15  C   UNL d   1      53.632  34.198  54.979  0.00  0.00     0.196 A 
ATOM     16  C   UNL d   1      52.757  35.446  53.444  0.00  0.00     0.000 A 
ATOM     17  C   UNL d   1      52.655  34.911  52.842  0.00  0.00     0.000 A 
ATOM     18  C   UNL d   1      53.858  33.412  55.089  0.00  0.00     0.044 A 
ATOM     19  O   UNL d   1      53.733  34.775  55.604  0.00  0.00    -0.287 OA
ATOM     20  C   UNL d   1      53.753  32.844  54.457  0.00  0.00     0.022 A 
ENDBRANCH   9  10
ENDBRANCH   1   9
BRANCH   4  21
ATOM     21  C   UNL d   1      53.252  29.818  54.062  0.00  0.00     0.085 A 
ATOM     22  C   UNL d   1      53.071  29.653  54.867  0.00  0.00     0.019 A 
ATOM     23  C   UNL d   1      53.280  28.921  55.201  0.00  0.00     0.002 A 
ATOM     24  C   UNL d   1      53.668  28.339  54.750  0.00  0.00     0.000 A 
ATOM     25  C   UNL d   1      53.852  28.494  53.950  0.00  0.00     0.002 A 
ATOM     26  C   UNL d   1      53.640  29.229  53.623  0.00  0.00     0.019 A 
ENDBRANCH   4  21
TORSDOF 3
ENDMDL
MODEL 6
REMARK VINA RESULT:      -6.8      1.405      4.618
REMARK  3 active torsions:
REMARK  status: ('A' for Active; 'I' for Inactive)
REMARK    1  A    between atoms: N_6  and  C_1 
REMARK    2  A    between atoms: C_14  and  N_4 
REMARK    3  A    between atoms: C_7  and  N_6 
ROOT
ATOM      1  C   UNL d   1      51.361  33.764  52.972  0.00  0.00     0.157 A 
ATOM      2  C   UNL d   1      50.615  34.044  53.188  0.00  0.00     0.298 A 
ATOM      3  N   UNL d   1      50.840  34.306  51.938  0.00  0.00    -0.238 N 
ATOM      4  N   UNL d   1      50.284  34.381  52.558  0.00  0.00    -0.209 N 
ATOM      5  C   UNL d   1      51.470  33.924  52.253  0.00  0.00     0.104 A 
ATOM      6  O   UNL d   1      50.270  33.982  53.945  0.00  0.00    -0.263 OA
ATOM      7  C   UNL d   1      50.788  34.562  51.142  0.00  0.00     0.120 C 
ATOM      8  C   UNL d   1      52.129  33.742  51.839  0.00  0.00     0.022 C 
ENDROOT
BRANCH   1   9
ATOM      9  N   UNL d   1      51.906  33.375  53.448  0.00  0.00    -0.239 NA
BRANCH   9  10
ATOM     10  C   UNL d   1      52.450  33.800  53.864  0.00  0.00     0.082 A 
ATOM     11  C   UNL d   1      53.069  33.422  54.298  0.00  0.00     0.021 A 
ATOM     12  C   UNL d   1      53.625  33.848  54.723  0.00  0.00     0.040 A 
ATOM     13  C   UNL d   1      53.109  32.604  54.289  0.00  0.00     0.002 A 
ATOM     14  C   UNL d   1      54.223  33.469  55.141  0.00  0.00     0.003 A 
ATOM     15  C   UNL d   1      53.586  34.666  54.731  0.00  0.00     0.196 A 
ATOM     16  C   UNL d   1      54.248  32.643  55.121  0.00  0.00     0.000 A 
ATOM     17  C   UNL d   1      53.701  32.213  54.703  0.00  0.00     0.000 A 
ATOM     18  C   UNL d   1      52.990  35.057  54.315  0.00  0.00     0.044 A 
ATOM     19  O   UNL d   1      54.170  35.105  55.178  0.00  0.00    -0.287 OA
ATOM     20  C   UNL d   1      52.411  34.607  53.873  0.00  0.00     0.022 A 
ENDBRANCH   9  10
ENDBRANCH   1   9
BRANCH   4  21
ATOM     21  C   UNL d   1      49.542  34.730  52.530  0.00  0.00     0.085 A 
ATOM     22  C   UNL d   1      48.989  34.478  51.948  0.00  0.00     0.019 A 
ATOM     23  C   UNL d   1      48.235  34.825  51.910  0.00  0.00     0.002 A 
ATOM     24  C   UNL d   1      48.011  35.424  52.442  0.00  0.00     0.000 A 
ATOM     25  C   UNL d   1      48.554  35.681  53.024  0.00  0.00     0.002 A 
ATOM     26  C   UNL d   1      49.307  35.329  53.055  0.00  0.00     0.019 A 
ENDBRANCH   4  21
TORSDOF 3
ENDMDL
MODEL 7
REMARK VINA RESULT:      -6.5      2.379      4.898
REMARK  3 active torsions:
REMARK  status: ('A' for Active; 'I' for Inactive)
REMARK    1  A    between atoms: N_6  and  C_1 
REMARK    2  A    between atoms: C_14  and  N_4 
REMARK    3  A    between atoms: C_7  and  N_6 
ROOT
ATOM      1  C   UNL d   1      53.923  32.230  54.006  0.00  0.00     0.157 A 
ATOM      2  C   UNL d   1      53.340  32.781  54.202  0.00  0.00     0.298 A 
ATOM      3  N   UNL d   1      54.244  33.340  53.459  0.00  0.00    -0.238 N 
ATOM      4  N   UNL d   1      53.528  33.469  53.870  0.00  0.00    -0.209 N 
ATOM      5  C   UNL d   1      54.430  32.571  53.581  0.00  0.00     0.104 A 
ATOM      6  O   UNL d   1      52.667  32.634  54.673  0.00  0.00    -0.263 OA
ATOM      7  C   UNL d   1      54.701  33.875  53.005  0.00  0.00     0.120 C 
ATOM      8  C   UNL d   1      55.082  32.220  53.279  0.00  0.00     0.022 C 
ENDROOT
BRANCH   1   9
ATOM      9  N   UNL d   1      53.959  31.439  54.229  0.00  0.00    -0.239 NA
BRANCH   9  10
ATOM     10  C   UNL d   1      53.530  30.890  53.824  0.00  0.00     0.082 A 
ATOM     11  C   UNL d   1      53.405  30.113  54.132  0.00  0.00     0.021 A 
ATOM     12  C   UNL d   1      52.971  29.549  53.726  0.00  0.00     0.040 A 
ATOM     13  C   UNL d   1      53.731  29.923  54.859  0.00  0.00     0.002 A 
ATOM     14  C   UNL d   1      52.856  28.796  54.036  0.00  0.00     0.003 A 
ATOM     15  C   UNL d   1      52.645  29.738  52.999  0.00  0.00     0.196 A 
ATOM     16  C   UNL d   1      53.192  28.623  54.770  0.00  0.00     0.000 A 
ATOM     17  C   UNL d   1      53.624  29.175  55.180  0.00  0.00     0.000 A 
ATOM     18  C   UNL d   1      52.754  30.491  52.679  0.00  0.00     0.044 A 
ATOM     19  O   UNL d   1      52.192  29.145  52.580  0.00  0.00    -0.287 OA
ATOM     20  C   UNL d   1      53.209  31.077  53.107  0.00  0.00     0.022 A 
ENDBRANCH   9  10
ENDBRANCH   1   9
BRANCH   4  21
ATOM     21  C   UNL d   1      53.097  34.166  53.925  0.00  0.00     0.085 A 
ATOM     22  C   UNL d   1      53.264  34.707  54.548  0.00  0.00     0.019 A 
ATOM     23  C   UNL d   1      52.835  35.415  54.613  0.00  0.00     0.002 A 
ATOM     24  C   UNL d   1      52.235  35.605  54.069  0.00  0.00     0.000 A 
ATOM     25  C   UNL d   1      52.062  35.075  53.447  0.00  0.00     0.002 A 
ATOM     26  C   UNL d   1      52.496  34.367  53.388  0.00  0.00     0.019 A 
ENDBRANCH   4  21
TORSDOF 3
ENDMDL
