MODEL 1
REMARK VINA RESULT:     128.5      0.000      0.000
REMARK  5 active torsions:
REMARK  status: ('A' for Active; 'I' for Inactive)
REMARK    1  A    between atoms: C_3  and  S_1 
REMARK    2  A    between atoms: N_5  and  S_1 
REMARK    3  A    between atoms: C_2  and  C_8 
REMARK       I    between atoms: N_4  and  C_2 
REMARK    4  A    between atoms: C_9  and  N_4 
REMARK    5  A    between atoms: O_17  and  C_16 
ROOT
ATOM      1  C   UNL d   1      61.103  47.841  50.622  0.00  0.00     0.104 A 
ATOM      2  C   UNL d   1      61.596  46.322  50.108  0.00  0.00     0.058 A 
ATOM      3  C   UNL d   1      61.548  47.751  49.970  0.00  0.00     0.013 A 
ATOM      4  C   UNL d   1      60.895  47.174  51.032  0.00  0.00     0.013 A 
ATOM      5  C   UNL d   1      61.121  46.413  50.806  0.00  0.00     0.005 A 
ATOM      6  C   UNL d   1      61.793  47.000  49.713  0.00  0.00     0.005 A 
ENDROOT
BRANCH   2   7
ATOM      7  C   UNL d   1      61.846  45.554  49.845  0.00  0.00     0.279 C 
ATOM      8  N   UNL d   1      61.678  44.899  50.237  0.00  0.00    -0.208 NA
ATOM      9  O   UNL d   1      62.297  45.530  49.123  0.00  0.00    -0.265 OA
BRANCH   8  10
ATOM     10  C   UNL d   1      61.935  44.166  49.958  0.00  0.00     0.087 A 
ATOM     11  C   UNL d   1      62.476  43.747  50.388  0.00  0.00     0.043 A 
ATOM     12  C   UNL d   1      62.732  43.014  50.108  0.00  0.00     0.096 A 
ATOM     13  C   UNL d   1      62.447  42.701  49.400  0.00  0.00     0.024 A 
ATOM     14  C   UNL d   1      61.887  43.144  48.964  0.00  0.00     0.004 A 
ATOM     15  C   UNL d   1      61.634  43.876  49.247  0.00  0.00     0.019 A 
BRANCH  12  16
ATOM     16  O   UNL d   1      63.158  42.686  50.447  0.00  0.00    -0.328 OA
ATOM     17  C   UNL d   1      63.066  42.015  50.905  0.00  0.00     0.181 C 
ENDBRANCH  12  16
ENDBRANCH   8  10
ENDBRANCH   2   7
BRANCH   1  18
ATOM     18  S   UNL d   1      60.807  48.611  50.953  0.00  0.00     0.271 S 
ATOM     19  O   UNL d   1      60.405  48.839  50.248  0.00  0.00    -0.200 OA
ATOM     20  O   UNL d   1      61.193  48.388  51.624  0.00  0.00    -0.200 OA
BRANCH  18  21
ATOM     21  N   UNL d   1      60.548  49.356  51.341  0.00  0.00    -0.226 N 
ATOM     22  C   UNL d   1      59.822  49.708  51.121  0.00  0.00     0.111 C 
ATOM     23  C   UNL d   1      61.019  49.707  51.922  0.00  0.00     0.111 C 
ENDBRANCH  18  21
ENDBRANCH   1  18
TORSDOF 5
ENDMDL
