MODEL 1
REMARK VINA RESULT:      -7.8      0.000      0.000
REMARK  4 active torsions:
REMARK  status: ('A' for Active; 'I' for Inactive)
REMARK    1  A    between atoms: C_6  and  C_1 
REMARK    2  A    between atoms: S_7  and  C_3 
REMARK    3  A    between atoms: C_17  and  S_7 
REMARK    4  A    between atoms: C_18  and  C_17 
ROOT
ATOM      1  C   UNL d   1     -48.355  12.703  23.035  0.00  0.00     0.087 A 
ATOM      2  N   UNL d   1     -48.577  11.966  23.309  0.00  0.00    -0.245 NA
ATOM      3  C   UNL d   1     -49.024  13.181  22.960  0.00  0.00     0.049 A 
ATOM      4  C   UNL d   1     -49.672  12.741  23.188  0.00  0.00     0.025 A 
ATOM      5  C   UNL d   1     -49.398  11.989  23.404  0.00  0.00     0.082 A 
ATOM      6  C   UNL d   1     -50.472  12.933  23.224  0.00  0.00     0.002 A 
ATOM      7  C   UNL d   1     -49.915  11.418  23.660  0.00  0.00     0.019 A 
ATOM      8  C   UNL d   1     -51.002  12.353  23.484  0.00  0.00     0.000 A 
ATOM      9  C   UNL d   1     -50.720  11.607  23.698  0.00  0.00     0.002 A 
ENDROOT
BRANCH   1  10
ATOM     10  C   UNL d   1     -47.604  12.969  22.852  0.00  0.00     0.018 A 
ATOM     11  C   UNL d   1     -47.094  13.220  23.464  0.00  0.00     0.002 A 
ATOM     12  C   UNL d   1     -46.344  13.487  23.293  0.00  0.00     0.011 A 
ATOM     13  C   UNL d   1     -46.098  13.503  22.509  0.00  0.00     0.058 A 
ATOM     14  C   UNL d   1     -46.623  13.247  21.900  0.00  0.00     0.011 A 
ATOM     15 CL   UNL d   1     -45.343  13.771  22.336  0.00  0.00    -0.082 Cl
ATOM     16  C   UNL d   1     -47.363  12.984  22.070  0.00  0.00     0.002 A 
ENDBRANCH   1  10
BRANCH   3  17
ATOM     17  S   UNL d   1     -49.057  13.967  22.701  0.00  0.00    -0.083 SA
BRANCH  17  18
ATOM     18  C   UNL d   1     -49.538  14.533  23.087  0.00  0.00     0.058 C 
BRANCH  18  19
ATOM     19  C   UNL d   1     -49.516  15.332  22.883  0.00  0.00     0.129 C 
ATOM     20  N   UNL d   1     -49.732  15.921  23.422  0.00  0.00    -0.146 N 
ENDBRANCH  18  19
ENDBRANCH  17  18
ENDBRANCH   3  17
TORSDOF 4
ENDMDL
MODEL 2
REMARK VINA RESULT:      -7.3      0.913      2.394
REMARK  4 active torsions:
REMARK  status: ('A' for Active; 'I' for Inactive)
REMARK    1  A    between atoms: C_6  and  C_1 
REMARK    2  A    between atoms: S_7  and  C_3 
REMARK    3  A    between atoms: C_17  and  S_7 
REMARK    4  A    between atoms: C_18  and  C_17 
ROOT
ATOM      1  C   UNL d   1     -48.440  14.333  22.908  0.00  0.00     0.087 A 
ATOM      2  N   UNL d   1     -48.574  15.122  23.076  0.00  0.00    -0.245 NA
ATOM      3  C   UNL d   1     -49.158  13.925  22.914  0.00  0.00     0.049 A 
ATOM      4  C   UNL d   1     -49.748  14.461  23.086  0.00  0.00     0.025 A 
ATOM      5  C   UNL d   1     -49.390  15.202  23.186  0.00  0.00     0.082 A 
ATOM      6  C   UNL d   1     -50.563  14.364  23.162  0.00  0.00     0.002 A 
ATOM      7  C   UNL d   1     -49.835  15.856  23.364  0.00  0.00     0.019 A 
ATOM      8  C   UNL d   1     -51.020  15.029  23.344  0.00  0.00     0.000 A 
ATOM      9  C   UNL d   1     -50.654  15.763  23.442  0.00  0.00     0.002 A 
ENDROOT
BRANCH   1  10
ATOM     10  C   UNL d   1     -47.727  13.964  22.754  0.00  0.00     0.018 A 
ATOM     11  C   UNL d   1     -47.192  13.821  23.378  0.00  0.00     0.002 A 
ATOM     12  C   UNL d   1     -46.479  13.454  23.236  0.00  0.00     0.011 A 
ATOM     13  C   UNL d   1     -46.297  13.228  22.468  0.00  0.00     0.058 A 
ATOM     14  C   UNL d   1     -46.846  13.378  21.845  0.00  0.00     0.011 A 
ATOM     15 CL   UNL d   1     -45.579  12.859  22.323  0.00  0.00    -0.082 Cl
ATOM     16  C   UNL d   1     -47.549  13.740  21.987  0.00  0.00     0.002 A 
ENDBRANCH   1  10
BRANCH   3  17
ATOM     17  S   UNL d   1     -49.281  13.119  22.773  0.00  0.00    -0.083 SA
BRANCH  17  18
ATOM     18  C   UNL d   1     -49.706  12.642  23.314  0.00  0.00     0.058 C 
BRANCH  18  19
ATOM     19  C   UNL d   1     -49.918  11.865  23.133  0.00  0.00     0.129 C 
ATOM     20  N   UNL d   1     -49.871  11.263  23.698  0.00  0.00    -0.146 N 
ENDBRANCH  18  19
ENDBRANCH  17  18
ENDBRANCH   3  17
TORSDOF 4
ENDMDL
MODEL 3
REMARK VINA RESULT:      -7.0      1.617      3.333
REMARK  4 active torsions:
REMARK  status: ('A' for Active; 'I' for Inactive)
REMARK    1  A    between atoms: C_6  and  C_1 
REMARK    2  A    between atoms: S_7  and  C_3 
REMARK    3  A    between atoms: C_17  and  S_7 
REMARK    4  A    between atoms: C_18  and  C_17 
ROOT
ATOM      1  C   UNL d   1     -48.039  12.776  22.739  0.00  0.00     0.087 A 
ATOM      2  N   UNL d   1     -47.363  12.369  22.523  0.00  0.00    -0.245 NA
ATOM      3  C   UNL d   1     -47.854  13.572  22.858  0.00  0.00     0.049 A 
ATOM      4  C   UNL d   1     -47.056  13.667  22.717  0.00  0.00     0.025 A 
ATOM      5  C   UNL d   1     -46.751  12.925  22.510  0.00  0.00     0.082 A 
ATOM      6  C   UNL d   1     -46.575  14.335  22.752  0.00  0.00     0.002 A 
ATOM      7  C   UNL d   1     -45.963  12.835  22.335  0.00  0.00     0.019 A 
ATOM      8  C   UNL d   1     -45.772  14.247  22.574  0.00  0.00     0.000 A 
ATOM      9  C   UNL d   1     -45.476  13.504  22.369  0.00  0.00     0.002 A 
ENDROOT
BRANCH   1  10
ATOM     10  C   UNL d   1     -48.796  12.483  22.833  0.00  0.00     0.018 A 
ATOM     11  C   UNL d   1     -49.062  12.261  23.592  0.00  0.00     0.002 A 
ATOM     12  C   UNL d   1     -49.814  11.968  23.698  0.00  0.00     0.011 A 
ATOM     13  C   UNL d   1     -50.306  11.895  23.043  0.00  0.00     0.058 A 
ATOM     14  C   UNL d   1     -50.026  12.123  22.281  0.00  0.00     0.011 A 
ATOM     15 CL   UNL d   1     -51.064  11.600  23.148  0.00  0.00    -0.082 Cl
ATOM     16  C   UNL d   1     -49.283  12.412  22.179  0.00  0.00     0.002 A 
ENDBRANCH   1  10
BRANCH   3  17
ATOM     17  S   UNL d   1     -48.368  14.182  23.081  0.00  0.00    -0.083 SA
BRANCH  17  18
ATOM     18  C   UNL d   1     -48.425  14.888  22.636  0.00  0.00     0.058 C 
BRANCH  18  19
ATOM     19  C   UNL d   1     -48.856  15.538  22.907  0.00  0.00     0.129 C 
ATOM     20  N   UNL d   1     -49.533  15.801  22.511  0.00  0.00    -0.146 N 
ENDBRANCH  18  19
ENDBRANCH  17  18
ENDBRANCH   3  17
TORSDOF 4
ENDMDL
MODEL 4
REMARK VINA RESULT:      -6.6      1.976      3.284
REMARK  4 active torsions:
REMARK  status: ('A' for Active; 'I' for Inactive)
REMARK    1  A    between atoms: C_6  and  C_1 
REMARK    2  A    between atoms: S_7  and  C_3 
REMARK    3  A    between atoms: C_17  and  S_7 
REMARK    4  A    between atoms: C_18  and  C_17 
ROOT
ATOM      1  C   UNL d   1     -48.335  12.198  22.740  0.00  0.00     0.087 A 
ATOM      2  N   UNL d   1     -48.248  11.444  23.043  0.00  0.00    -0.245 NA
ATOM      3  C   UNL d   1     -47.604  12.582  22.746  0.00  0.00     0.049 A 
ATOM      4  C   UNL d   1     -47.053  12.066  23.055  0.00  0.00     0.025 A 
ATOM      5  C   UNL d   1     -47.449  11.362  23.240  0.00  0.00     0.082 A 
ATOM      6  C   UNL d   1     -46.245  12.153  23.190  0.00  0.00     0.002 A 
ATOM      7  C   UNL d   1     -47.047  10.733  23.560  0.00  0.00     0.019 A 
ATOM      8  C   UNL d   1     -45.833  11.514  23.517  0.00  0.00     0.000 A 
ATOM      9  C   UNL d   1     -46.235  10.816  23.697  0.00  0.00     0.002 A 
ENDROOT
BRANCH   1  10
ATOM     10  C   UNL d   1     -49.016  12.556  22.464  0.00  0.00     0.018 A 
ATOM     11  C   UNL d   1     -49.141  12.626  21.642  0.00  0.00     0.002 A 
ATOM     12  C   UNL d   1     -49.816  12.981  21.355  0.00  0.00     0.011 A 
ATOM     13  C   UNL d   1     -50.370  13.267  21.890  0.00  0.00     0.058 A 
ATOM     14  C   UNL d   1     -50.232  13.189  22.719  0.00  0.00     0.011 A 
ATOM     15 CL   UNL d   1     -51.051  13.624  21.603  0.00  0.00    -0.082 Cl
ATOM     16  C   UNL d   1     -49.566  12.839  22.999  0.00  0.00     0.002 A 
ENDBRANCH   1  10
BRANCH   3  17
ATOM     17  S   UNL d   1     -47.436  13.352  22.490  0.00  0.00    -0.083 SA
BRANCH  17  18
ATOM     18  C   UNL d   1     -46.933  13.856  22.928  0.00  0.00     0.058 C 
BRANCH  18  19
ATOM     19  C   UNL d   1     -46.603  14.536  22.595  0.00  0.00     0.129 C 
ATOM     20  N   UNL d   1     -46.995  15.264  22.624  0.00  0.00    -0.146 N 
ENDBRANCH  18  19
ENDBRANCH  17  18
ENDBRANCH   3  17
TORSDOF 4
ENDMDL
MODEL 5
REMARK VINA RESULT:      -6.0      1.209      2.311
REMARK  4 active torsions:
REMARK  status: ('A' for Active; 'I' for Inactive)
REMARK    1  A    between atoms: C_6  and  C_1 
REMARK    2  A    between atoms: S_7  and  C_3 
REMARK    3  A    between atoms: C_17  and  S_7 
REMARK    4  A    between atoms: C_18  and  C_17 
ROOT
ATOM      1  C   UNL d   1     -48.373  13.504  22.245  0.00  0.00     0.087 A 
ATOM      2  N   UNL d   1     -48.894  13.937  21.787  0.00  0.00    -0.245 NA
ATOM      3  C   UNL d   1     -48.796  12.961  22.702  0.00  0.00     0.049 A 
ATOM      4  C   UNL d   1     -49.588  13.053  22.530  0.00  0.00     0.025 A 
ATOM      5  C   UNL d   1     -49.651  13.655  21.964  0.00  0.00     0.082 A 
ATOM      6  C   UNL d   1     -50.254  12.663  22.818  0.00  0.00     0.002 A 
ATOM      7  C   UNL d   1     -50.377  13.879  21.677  0.00  0.00     0.019 A 
ATOM      8  C   UNL d   1     -50.995  12.889  22.528  0.00  0.00     0.000 A 
ATOM      9  C   UNL d   1     -51.048  13.490  21.964  0.00  0.00     0.002 A 
ENDROOT
BRANCH   1  10
ATOM     10  C   UNL d   1     -47.559  13.565  22.278  0.00  0.00     0.018 A 
ATOM     11  C   UNL d   1     -47.092  13.170  21.710  0.00  0.00     0.002 A 
ATOM     12  C   UNL d   1     -46.280  13.223  21.733  0.00  0.00     0.011 A 
ATOM     13  C   UNL d   1     -45.930  13.673  22.326  0.00  0.00     0.058 A 
ATOM     14  C   UNL d   1     -46.413  14.067  22.894  0.00  0.00     0.011 A 
ATOM     15 CL   UNL d   1     -45.112  13.728  22.350  0.00  0.00    -0.082 Cl
ATOM     16  C   UNL d   1     -47.214  14.013  22.869  0.00  0.00     0.002 A 
ENDBRANCH   1  10
BRANCH   3  17
ATOM     17  S   UNL d   1     -48.493  12.413  23.244  0.00  0.00    -0.083 SA
BRANCH  17  18
ATOM     18  C   UNL d   1     -48.550  11.589  23.109  0.00  0.00     0.058 C 
BRANCH  18  19
ATOM     19  C   UNL d   1     -48.368  11.040  23.697  0.00  0.00     0.129 C 
ATOM     20  N   UNL d   1     -47.647  10.633  23.698  0.00  0.00    -0.146 N 
ENDBRANCH  18  19
ENDBRANCH  17  18
ENDBRANCH   3  17
TORSDOF 4
ENDMDL
MODEL 6
REMARK VINA RESULT:      -5.9      1.949      4.031
REMARK  4 active torsions:
REMARK  status: ('A' for Active; 'I' for Inactive)
REMARK    1  A    between atoms: C_6  and  C_1 
REMARK    2  A    between atoms: S_7  and  C_3 
REMARK    3  A    between atoms: C_17  and  S_7 
REMARK    4  A    between atoms: C_18  and  C_17 
ROOT
ATOM      1  C   UNL d   1     -48.310  13.410  22.861  0.00  0.00     0.087 A 
ATOM      2  N   UNL d   1     -48.223  14.148  22.519  0.00  0.00    -0.245 NA
ATOM      3  C   UNL d   1     -47.576  13.146  23.133  0.00  0.00     0.049 A 
ATOM      4  C   UNL d   1     -47.024  13.721  22.961  0.00  0.00     0.025 A 
ATOM      5  C   UNL d   1     -47.422  14.342  22.581  0.00  0.00     0.082 A 
ATOM      6  C   UNL d   1     -46.213  13.754  23.103  0.00  0.00     0.002 A 
ATOM      7  C   UNL d   1     -47.020  15.003  22.338  0.00  0.00     0.019 A 
ATOM      8  C   UNL d   1     -45.801  14.427  22.856  0.00  0.00     0.000 A 
ATOM      9  C   UNL d   1     -46.205  15.041  22.479  0.00  0.00     0.002 A 
ENDROOT
BRANCH   1  10
ATOM     10  C   UNL d   1     -48.993  12.968  22.942  0.00  0.00     0.018 A 
ATOM     11  C   UNL d   1     -49.229  12.455  22.327  0.00  0.00     0.002 A 
ATOM     12  C   UNL d   1     -49.907  12.010  22.397  0.00  0.00     0.011 A 
ATOM     13  C   UNL d   1     -50.354  12.076  23.084  0.00  0.00     0.058 A 
ATOM     14  C   UNL d   1     -50.105  12.598  23.698  0.00  0.00     0.011 A 
ATOM     15 CL   UNL d   1     -51.038  11.629  23.156  0.00  0.00    -0.082 Cl
ATOM     16  C   UNL d   1     -49.435  13.036  23.627  0.00  0.00     0.002 A 
ENDBRANCH   1  10
BRANCH   3  17
ATOM     17  S   UNL d   1     -47.407  12.430  23.514  0.00  0.00    -0.083 SA
BRANCH  17  18
ATOM     18  C   UNL d   1     -46.779  11.939  23.259  0.00  0.00     0.058 C 
BRANCH  18  19
ATOM     19  C   UNL d   1     -46.558  11.265  23.681  0.00  0.00     0.129 C 
ATOM     20  N   UNL d   1     -46.171  10.633  23.312  0.00  0.00    -0.146 N 
ENDBRANCH  18  19
ENDBRANCH  17  18
ENDBRANCH   3  17
TORSDOF 4
ENDMDL
