MODEL 1
REMARK VINA RESULT:      -4.8      0.000      0.000
REMARK  6 active torsions:
REMARK  status: ('A' for Active; 'I' for Inactive)
REMARK       I    between atoms: C_2  and  N_1 
REMARK    1  A    between atoms: C_3  and  N_1 
REMARK    2  A    between atoms: C_8  and  C_2 
REMARK    3  A    between atoms: C_4  and  C_9 
REMARK    4  A    between atoms: O_10  and  C_4 
REMARK    5  A    between atoms: O_11  and  C_5 
REMARK    6  A    between atoms: C_9  and  C_8 
ROOT
ATOM      1  N   UNL d   1     -41.229-121.696 -52.857  0.00  0.00    -0.320 N 
ATOM      2  C   UNL d   1     -41.283-121.698 -52.017  0.00  0.00     0.258 C 
ATOM      3  O   UNL d   1     -41.126-121.013 -51.592  0.00  0.00    -0.267 OA
ATOM      4  H   UNL d   1     -41.019-121.010 -53.255  0.00  0.00     0.169 HD
ENDROOT
BRANCH   1   5
ATOM      5  C   UNL d   1     -41.393-122.404 -53.282  0.00  0.00     0.082 A 
ATOM      6  C   UNL d   1     -41.841-122.364 -53.988  0.00  0.00     0.110 A 
ATOM      7  C   UNL d   1     -42.006-123.061 -54.411  0.00  0.00     0.026 A 
ATOM      8  C   UNL d   1     -41.731-123.778 -54.138  0.00  0.00     0.002 A 
ATOM      9  C   UNL d   1     -41.289-123.817 -53.442  0.00  0.00     0.002 A 
ATOM     10  C   UNL d   1     -41.123-123.139 -53.020  0.00  0.00     0.019 A 
BRANCH   6  11
ATOM     11  O   UNL d   1     -42.117-121.629 -54.259  0.00  0.00    -0.327 OA
ATOM     12  C   UNL d   1     -42.523-121.584 -54.976  0.00  0.00     0.181 C 
ENDBRANCH   6  11
ENDBRANCH   1   5
BRANCH   2  13
ATOM     13  C   UNL d   1     -41.495-122.390 -51.618  0.00  0.00     0.067 C 
BRANCH  13  14
ATOM     14  C   UNL d   1     -41.466-122.416 -50.794  0.00  0.00     0.072 C 
BRANCH  14  15
ATOM     15  C   UNL d   1     -41.946-122.940 -50.381  0.00  0.00     0.178 C 
ATOM     16  O   UNL d   1     -41.621-123.618 -50.041  0.00  0.00    -0.646 OA
BRANCH  15  17
ATOM     17  O   UNL d   1     -42.752-122.792 -50.303  0.00  0.00    -0.773 OA
ATOM     18  H   UNL d   1     -43.053-122.052 -50.511  0.00  0.00     0.167 HD
ENDBRANCH  15  17
ENDBRANCH  14  15
ENDBRANCH  13  14
ENDBRANCH   2  13
TORSDOF 6
ENDMDL
MODEL 2
REMARK VINA RESULT:      -3.1      1.075      3.195
REMARK  6 active torsions:
REMARK  status: ('A' for Active; 'I' for Inactive)
REMARK       I    between atoms: C_2  and  N_1 
REMARK    1  A    between atoms: C_3  and  N_1 
REMARK    2  A    between atoms: C_8  and  C_2 
REMARK    3  A    between atoms: C_4  and  C_9 
REMARK    4  A    between atoms: O_10  and  C_4 
REMARK    5  A    between atoms: O_11  and  C_5 
REMARK    6  A    between atoms: C_9  and  C_8 
ROOT
ATOM      1  N   UNL d   1     -41.644-121.555 -52.207  0.00  0.00    -0.320 N 
ATOM      2  C   UNL d   1     -41.768-121.484 -53.037  0.00  0.00     0.258 C 
ATOM      3  O   UNL d   1     -41.813-120.741 -53.385  0.00  0.00    -0.267 OA
ATOM      4  H   UNL d   1     -41.569-120.883 -51.742  0.00  0.00     0.169 HD
ENDROOT
BRANCH   1   5
ATOM      5  C   UNL d   1     -41.599-122.322 -51.862  0.00  0.00     0.082 A 
ATOM      6  C   UNL d   1     -42.012-122.475 -51.150  0.00  0.00     0.110 A 
ATOM      7  C   UNL d   1     -41.971-123.230 -50.805  0.00  0.00     0.026 A 
ATOM      8  C   UNL d   1     -41.530-123.817 -51.160  0.00  0.00     0.002 A 
ATOM      9  C   UNL d   1     -41.123-123.666 -51.861  0.00  0.00     0.002 A 
ATOM     10  C   UNL d   1     -41.157-122.927 -52.208  0.00  0.00     0.019 A 
BRANCH   6  11
ATOM     11  O   UNL d   1     -42.460-121.871 -50.795  0.00  0.00    -0.327 OA
ATOM     12  C   UNL d   1     -42.894-122.032 -50.112  0.00  0.00     0.181 C 
ENDBRANCH   6  11
ENDBRANCH   1   5
BRANCH   2  13
ATOM     13  C   UNL d   1     -41.843-122.162 -53.503  0.00  0.00     0.067 C 
BRANCH  13  14
ATOM     14  C   UNL d   1     -42.072-122.096 -54.293  0.00  0.00     0.072 C 
BRANCH  14  15
ATOM     15  C   UNL d   1     -42.065-122.758 -54.781  0.00  0.00     0.178 C 
ATOM     16  O   UNL d   1     -42.703-123.281 -54.777  0.00  0.00    -0.646 OA
BRANCH  15  17
ATOM     17  O   UNL d   1     -41.423-122.902 -55.276  0.00  0.00    -0.773 OA
ATOM     18  H   UNL d   1     -40.672-123.005 -54.950  0.00  0.00     0.167 HD
ENDBRANCH  15  17
ENDBRANCH  14  15
ENDBRANCH  13  14
ENDBRANCH   2  13
TORSDOF 6
ENDMDL
