MODEL 1
REMARK VINA RESULT:       0.4      0.000      0.000
REMARK  7 active torsions:
REMARK  status: ('A' for Active; 'I' for Inactive)
REMARK    1  A    between atoms: C_12  and  N_1 
REMARK    2  A    between atoms: C_2  and  N_6 
REMARK    3  A    between atoms: C_9  and  C_5 
REMARK       I    between atoms: N_6  and  C_9 
REMARK    4  A    between atoms: S_15  and  C_7 
REMARK    5  A    between atoms: C_14  and  C_20 
REMARK       I    between atoms: N_21  and  C_14 
REMARK    6  A    between atoms: C_20  and  S_15 
REMARK    7  A    between atoms: O_22  and  C_18 
ROOT
ATOM      1  N   UNL d   1      55.967  -0.403  32.919  0.00  0.00    -0.271 N 
ATOM      2  C   UNL d   1      56.104  -1.157  32.840  0.00  0.00     0.265 A 
ATOM      3  C   UNL d   1      56.636  -0.566  31.872  0.00  0.00     0.080 A 
ATOM      4  C   UNL d   1      56.296  -0.036  32.320  0.00  0.00     0.088 A 
ATOM      5  C   UNL d   1      56.521  -1.266  32.191  0.00  0.00     0.067 A 
ATOM      6  O   UNL d   1      55.867  -1.719  33.328  0.00  0.00    -0.267 OA
ENDROOT
BRANCH   3   7
ATOM      7  C   UNL d   1      57.027  -0.434  31.217  0.00  0.00     0.283 C 
ATOM      8  N   UNL d   1      57.746  -0.138  31.248  0.00  0.00    -0.181 NA
ATOM      9  O   UNL d   1      56.703  -0.596  30.530  0.00  0.00    -0.265 OA
BRANCH   8  10
ATOM     10  C   UNL d   1      58.141  -0.004  30.595  0.00  0.00     0.219 A 
ATOM     11  S   UNL d   1      58.548  -0.528  30.189  0.00  0.00    -0.019 SA
ATOM     12  C   UNL d   1      58.855  -0.172  29.581  0.00  0.00     0.165 A 
ATOM     13  N   UNL d   1      58.648   0.577  29.595  0.00  0.00    -0.133 NA
ATOM     14  N   UNL d   1      58.199   0.682  30.234  0.00  0.00    -0.120 NA
BRANCH  12  15
ATOM     15  S   UNL d   1      59.803  -1.131  28.527  0.00  0.00    -0.054 SA
BRANCH  15  16
ATOM     16  C   UNL d   1      59.735  -1.961  28.543  0.00  0.00     0.100 C 
BRANCH  16  17
ATOM     17  C   UNL d   1      60.409  -2.431  28.694  0.00  0.00     0.286 C 
ATOM     18  O   UNL d   1      61.133  -2.071  28.921  0.00  0.00    -0.265 OA
ATOM     19  N   UNL d   1      60.360  -3.265  28.618  0.00  0.00    -0.204 NA
ATOM     20  C   UNL d   1      61.039  -3.725  28.772  0.00  0.00     0.123 C 
ENDBRANCH  16  17
ENDBRANCH  15  16
ENDBRANCH  12  15
ENDBRANCH   8  10
ENDBRANCH   3   7
BRANCH   1  21
ATOM     21  C   UNL d   1      55.538  -0.039  33.541  0.00  0.00     0.089 A 
ATOM     22  C   UNL d   1      55.945   0.320  34.179  0.00  0.00     0.110 A 
ATOM     23  C   UNL d   1      55.528   0.678  34.790  0.00  0.00     0.026 A 
ATOM     24  C   UNL d   1      54.689   0.682  34.770  0.00  0.00     0.002 A 
ATOM     25  C   UNL d   1      54.279   0.332  34.147  0.00  0.00     0.002 A 
ATOM     26  C   UNL d   1      54.703  -0.035  33.519  0.00  0.00     0.020 A 
BRANCH  22  27
ATOM     27  O   UNL d   1      56.777   0.310  34.190  0.00  0.00    -0.327 OA
ATOM     28  C   UNL d   1      57.184   0.682  34.816  0.00  0.00     0.181 C 
ENDBRANCH  22  27
ENDBRANCH   1  21
TORSDOF 7
ENDMDL
