MODEL 1
REMARK VINA RESULT:      61.5      0.000      0.000
REMARK  6 active torsions:
REMARK  status: ('A' for Active; 'I' for Inactive)
REMARK    1  A    between atoms: C_7  and  S_1 
REMARK    2  A    between atoms: N_9  and  S_1 
REMARK    3  A    between atoms: C_20  and  N_2 
REMARK    4  A    between atoms: C_10  and  N_9 
REMARK    5  A    between atoms: O_24  and  C_13 
REMARK    6  A    between atoms: O_25  and  C_19 
ROOT
ATOM      1  N   UNL d   1      15.238  17.143  -2.669  0.00  0.00    -0.273 N 
ATOM      2  C   UNL d   1      15.433  17.073  -1.612  0.00  0.00     0.265 A 
ATOM      3  C   UNL d   1      14.880  16.435  -2.833  0.00  0.00     0.067 A 
ATOM      4  C   UNL d   1      14.834  16.008  -2.134  0.00  0.00     0.021 A 
ATOM      5  C   UNL d   1      15.131  16.326  -1.429  0.00  0.00     0.058 A 
ATOM      6  C   UNL d   1      14.189  14.925  -2.839  0.00  0.00     0.105 A 
ATOM      7  C   UNL d   1      14.494  15.256  -2.125  0.00  0.00     0.014 A 
ATOM      8  C   UNL d   1      14.585  16.120  -3.536  0.00  0.00     0.018 A 
ATOM      9  C   UNL d   1      14.234  15.352  -3.537  0.00  0.00     0.014 A 
ATOM     10  O   UNL d   1      15.774  17.539  -1.013  0.00  0.00    -0.267 OA
ATOM     11  C   UNL d   1      15.086  15.901  -0.735  0.00  0.00     0.005 A 
ATOM     12  C   UNL d   1      14.449  14.831  -1.430  0.00  0.00     0.001 A 
ATOM     13  C   UNL d   1      14.743  15.142  -0.720  0.00  0.00     0.000 A 
ENDROOT
BRANCH   6  14
ATOM     14  S   UNL d   1      13.847  14.171  -2.832  0.00  0.00     0.285 S 
ATOM     15  O   UNL d   1      14.589  13.834  -2.683  0.00  0.00    -0.198 OA
ATOM     16  O   UNL d   1      13.100  14.506  -2.981  0.00  0.00    -0.198 OA
BRANCH  14  17
ATOM     17  N   UNL d   1      13.503  13.424  -2.825  0.00  0.00    -0.156 NA
BRANCH  17  18
ATOM     18  C   UNL d   1      13.389  13.022  -3.527  0.00  0.00     0.116 A 
ATOM     19  C   UNL d   1      13.420  12.213  -3.531  0.00  0.00     0.114 A 
ATOM     20  C   UNL d   1      13.306  11.806  -4.231  0.00  0.00     0.050 A 
ATOM     21  C   UNL d   1      13.162  12.191  -4.931  0.00  0.00     0.096 A 
ATOM     22  C   UNL d   1      13.134  13.033  -4.907  0.00  0.00     0.026 A 
ATOM     23  C   UNL d   1      13.246  13.443  -4.211  0.00  0.00     0.024 A 
BRANCH  19  24
ATOM     24  O   UNL d   1      13.567  11.797  -2.820  0.00  0.00    -0.327 OA
ATOM     25  C   UNL d   1      14.338  11.779  -2.500  0.00  0.00     0.181 C 
ENDBRANCH  19  24
BRANCH  21  26
ATOM     26  O   UNL d   1      13.044  11.779  -5.659  0.00  0.00    -0.328 OA
ATOM     27  C   UNL d   1      13.578  11.913  -6.296  0.00  0.00     0.181 C 
ENDBRANCH  21  26
ENDBRANCH  17  18
ENDBRANCH  14  17
ENDBRANCH   6  14
BRANCH   1  28
ATOM     28  C   UNL d   1      15.359  17.695  -3.280  0.00  0.00     0.083 C 
ATOM     29  C   UNL d   1      15.400  17.446  -4.055  0.00  0.00     0.021 C 
ENDBRANCH   1  28
TORSDOF 6
ENDMDL
