MODEL 1
REMARK VINA RESULT:      81.0      0.000      0.000
REMARK  4 active torsions:
REMARK  status: ('A' for Active; 'I' for Inactive)
REMARK    1  A    between atoms: S_2  and  N_1 
REMARK    2  A    between atoms: C_7  and  S_2 
REMARK    3  A    between atoms: C_10  and  C_3 
REMARK    4  A    between atoms: C_14  and  C_10 
ROOT
ATOM      1  N   UNL d   1     -55.326-101.307 -43.788  0.00  0.00    -0.214 N 
ATOM      2  C   UNL d   1     -55.591-100.566 -44.059  0.00  0.00     0.157 A 
ATOM      3  N   UNL d   1     -55.561-100.584 -44.886  0.00  0.00    -0.226 NA
ATOM      4  C   UNL d   1     -55.139-101.770 -44.447  0.00  0.00     0.094 A 
ATOM      5  C   UNL d   1     -55.282-101.331 -45.129  0.00  0.00     0.100 A 
ATOM      6  C   UNL d   1     -54.853-102.547 -44.510  0.00  0.00     0.020 A 
ATOM      7  C   UNL d   1     -55.142-101.657 -45.884  0.00  0.00     0.021 A 
ATOM      8  C   UNL d   1     -54.711-102.880 -45.262  0.00  0.00     0.002 A 
ATOM      9  C   UNL d   1     -54.862-102.419 -45.937  0.00  0.00     0.002 A 
ENDROOT
BRANCH   1  10
ATOM     10  S   UNL d   1     -55.270-101.519 -42.992  0.00  0.00     0.272 S 
ATOM     11  O   UNL d   1     -55.595-102.254 -43.190  0.00  0.00    -0.200 OA
ATOM     12  O   UNL d   1     -54.948-100.787 -42.800  0.00  0.00    -0.200 OA
BRANCH  10  13
ATOM     13  C   UNL d   1     -55.219-101.741 -42.202  0.00  0.00     0.104 A 
ATOM     14  C   UNL d   1     -54.765-101.283 -41.687  0.00  0.00     0.013 A 
ATOM     15  C   UNL d   1     -54.711-101.504 -40.892  0.00  0.00     0.007 A 
ATOM     16  C   UNL d   1     -55.105-102.163 -40.636  0.00  0.00     0.035 A 
ATOM     17  C   UNL d   1     -55.554-102.617 -41.142  0.00  0.00     0.007 A 
ATOM     18 BR   UNL d   1     -55.051-102.390 -39.823  0.00  0.00    -0.049 Br
ATOM     19  C   UNL d   1     -55.608-102.399 -41.931  0.00  0.00     0.013 A 
ENDBRANCH  10  13
ENDBRANCH   1  10
BRANCH   2  20
ATOM     20  C   UNL d   1     -55.839 -99.921 -43.577  0.00  0.00     0.038 C 
BRANCH  20  21
ATOM     21  C   UNL d   1     -56.552 -99.534 -43.730  0.00  0.00     0.003 A 
ATOM     22  C   UNL d   1     -56.724 -99.263 -44.500  0.00  0.00     0.000 A 
ATOM     23  C   UNL d   1     -57.432 -98.878 -44.653  0.00  0.00     0.000 A 
ATOM     24  C   UNL d   1     -57.981 -98.756 -44.052  0.00  0.00     0.000 A 
ATOM     25  C   UNL d   1     -57.810 -99.027 -43.287  0.00  0.00     0.000 A 
ATOM     26  C   UNL d   1     -57.101 -99.413 -43.127  0.00  0.00     0.000 A 
ENDBRANCH  20  21
ENDBRANCH   2  20
TORSDOF 4
ENDMDL
