MODEL 1
REMARK VINA RESULT:      65.4      0.000      0.000
REMARK  5 active torsions:
REMARK  status: ('A' for Active; 'I' for Inactive)
REMARK    1  A    between atoms: C_14  and  C_4 
REMARK    2  A    between atoms: S_11  and  C_5 
REMARK    3  A    between atoms: C_10  and  C_12 
REMARK    4  A    between atoms: C_15  and  S_11 
REMARK    5  A    between atoms: C_12  and  C_15 
ROOT
ATOM      1  N   UNL d   1     -50.245  26.926  33.767  0.00  0.00    -0.206 N 
ATOM      2  C   UNL d   1     -50.495  26.145  33.643  0.00  0.00     0.166 A 
ATOM      3  N   UNL d   1     -51.588  27.324  33.944  0.00  0.00    -0.163 NA
ATOM      4  C   UNL d   1     -51.285  25.953  33.670  0.00  0.00     0.055 A 
ATOM      5  C   UNL d   1     -49.453  27.094  33.736  0.00  0.00     0.116 A 
ATOM      6  C   UNL d   1     -51.834  26.555  33.823  0.00  0.00     0.104 A 
ATOM      7  N   UNL d   1     -49.946  25.553  33.492  0.00  0.00    -0.227 NA
ATOM      8  C   UNL d   1     -48.891  26.517  33.586  0.00  0.00     0.045 A 
ATOM      9  C   UNL d   1     -49.140  25.740  33.463  0.00  0.00     0.085 A 
ATOM     10  C   UNL d   1     -52.621  26.362  33.849  0.00  0.00     0.023 C 
ATOM     11  C   UNL d   1     -48.569  25.123  33.306  0.00  0.00     0.021 C 
ENDROOT
BRANCH   5  12
ATOM     12  S   UNL d   1     -49.195  27.901  33.863  0.00  0.00    -0.064 SA
BRANCH  12  13
ATOM     13  C   UNL d   1     -48.718  28.566  34.084  0.00  0.00     0.079 C 
BRANCH  13  14
ATOM     14  C   UNL d   1     -48.382  28.609  34.855  0.00  0.00     0.208 C 
ATOM     15  O   UNL d   1     -48.553  28.011  35.426  0.00  0.00    -0.285 OA
BRANCH  14  16
ATOM     16  C   UNL d   1     -47.869  29.252  35.063  0.00  0.00     0.069 A 
ATOM     17  S   UNL d   1     -47.018  29.222  35.058  0.00  0.00    -0.083 SA
ATOM     18  C   UNL d   1     -46.737  29.983  35.302  0.00  0.00     0.035 A 
ATOM     19  C   UNL d   1     -47.402  30.478  35.455  0.00  0.00     0.008 A 
ATOM     20  C   UNL d   1     -48.105  30.018  35.305  0.00  0.00     0.010 A 
ENDBRANCH  14  16
ENDBRANCH  13  14
ENDBRANCH  12  13
ENDBRANCH   5  12
BRANCH   4  21
ATOM     21  C   UNL d   1     -51.531  25.184  33.549  0.00  0.00     0.004 A 
ATOM     22  C   UNL d   1     -52.319  25.006  33.545  0.00  0.00     0.000 A 
ATOM     23  C   UNL d   1     -52.574  24.253  33.427  0.00  0.00     0.000 A 
ATOM     24  C   UNL d   1     -52.023  23.646  33.306  0.00  0.00     0.000 A 
ATOM     25  C   UNL d   1     -51.232  23.828  33.310  0.00  0.00     0.000 A 
ATOM     26  C   UNL d   1     -50.986  24.597  33.432  0.00  0.00     0.000 A 
ENDBRANCH   4  21
TORSDOF 5
ENDMDL
