MODEL 1
REMARK VINA RESULT:      51.2      0.000      0.000
REMARK  5 active torsions:
REMARK  status: ('A' for Active; 'I' for Inactive)
REMARK    1  A    between atoms: N_6  and  S_1 
REMARK    2  A    between atoms: C_8  and  S_1 
REMARK    3  A    between atoms: C_12  and  C_3 
REMARK    4  A    between atoms: C_4  and  C_11 
REMARK    5  A    between atoms: C_15  and  N_6 
ROOT
ATOM      1  C   UNL d   1      45.575 -17.673  39.368  0.00  0.00     0.018 A 
ATOM      2  C   UNL d   1      46.283 -18.765  40.376  0.00  0.00     0.094 A 
ATOM      3  C   UNL d   1      45.214 -18.403  39.511  0.00  0.00     0.003 A 
ATOM      4  C   UNL d   1      46.293 -17.493  39.733  0.00  0.00     0.003 A 
ATOM      5  C   UNL d   1      45.568 -18.949  40.015  0.00  0.00     0.020 A 
ATOM      6  C   UNL d   1      46.645 -18.035  40.233  0.00  0.00     0.020 A 
ENDROOT
BRANCH   1   7
ATOM      7  C   UNL d   1      45.221 -17.127  38.864  0.00  0.00     0.088 A 
ATOM      8  N   UNL d   1      43.899 -16.876  38.440  0.00  0.00    -0.239 NA
ATOM      9  C   UNL d   1      44.165 -16.255  37.977  0.00  0.00     0.111 A 
ATOM     10  S   UNL d   1      44.957 -16.069  37.957  0.00  0.00    -0.066 SA
ATOM     11  C   UNL d   1      45.494 -16.507  38.403  0.00  0.00     0.056 A 
BRANCH   9  12
ATOM     12  C   UNL d   1      43.632 -15.817  37.531  0.00  0.00     0.024 A 
ATOM     13  C   UNL d   1      43.430 -16.073  36.776  0.00  0.00     0.002 A 
ATOM     14  C   UNL d   1      42.896 -15.630  36.334  0.00  0.00     0.000 A 
ATOM     15  C   UNL d   1      42.566 -14.942  36.637  0.00  0.00     0.000 A 
ATOM     16  C   UNL d   1      42.774 -14.690  37.398  0.00  0.00     0.000 A 
ATOM     17  C   UNL d   1      43.313 -15.133  37.848  0.00  0.00     0.002 A 
ENDBRANCH   9  12
ENDBRANCH   1   7
BRANCH   2  18
ATOM     18  N   UNL d   1      46.645 -19.311  40.885  0.00  0.00    -0.158 NA
BRANCH  18  19
ATOM     19  S   UNL d   1      46.512 -19.270  41.691  0.00  0.00     0.285 S 
ATOM     20  O   UNL d   1      46.399 -18.534  42.051  0.00  0.00    -0.198 OA
ATOM     21  O   UNL d   1      46.489 -19.960  42.148  0.00  0.00    -0.198 OA
BRANCH  19  22
ATOM     22  C   UNL d   1      46.377 -19.226  42.504  0.00  0.00     0.105 A 
ATOM     23  C   UNL d   1      46.197 -18.501  42.860  0.00  0.00     0.013 A 
ATOM     24  C   UNL d   1      46.062 -18.448  43.668  0.00  0.00     0.001 A 
ATOM     25  C   UNL d   1      46.107 -19.140  44.132  0.00  0.00     0.000 A 
ATOM     26  C   UNL d   1      46.286 -19.868  43.785  0.00  0.00     0.001 A 
ATOM     27  C   UNL d   1      45.971 -19.098  44.954  0.00  0.00     0.000 C 
ATOM     28  C   UNL d   1      46.422 -19.911  42.966  0.00  0.00     0.013 A 
ENDBRANCH  19  22
ENDBRANCH  18  19
ENDBRANCH   2  18
TORSDOF 5
ENDMDL
