MODEL 1
REMARK VINA RESULT:      87.9      0.000      0.000
REMARK  4 active torsions:
REMARK  status: ('A' for Active; 'I' for Inactive)
REMARK    1  A    between atoms: C_10  and  N_2 
REMARK    2  A    between atoms: C_7  and  N_4 
REMARK    3  A    between atoms: C_11  and  C_7 
REMARK    4  A    between atoms: O_22  and  C_18 
ROOT
ATOM      1  S   UNL d   1      59.246  49.399  51.635  0.00  0.00     0.276 S 
ATOM      2  N   UNL d   1      59.204  49.127  50.854  0.00  0.00    -0.184 N 
ATOM      3  C   UNL d   1      59.896  48.871  50.470  0.00  0.00     0.348 A 
ATOM      4  N   UNL d   1      60.618  48.890  50.873  0.00  0.00    -0.258 N 
ATOM      5  C   UNL d   1      59.967  49.418  52.034  0.00  0.00     0.120 A 
ATOM      6  C   UNL d   1      60.659  49.161  51.650  0.00  0.00     0.081 A 
ATOM      7  O   UNL d   1      58.993  49.706  52.372  0.00  0.00    -0.199 OA
ATOM      8  O   UNL d   1      58.463  49.434  51.357  0.00  0.00    -0.199 OA
ATOM      9  O   UNL d   1      59.862  48.594  49.680  0.00  0.00    -0.245 OA
ATOM     10  C   UNL d   1      60.004  49.688  52.808  0.00  0.00     0.014 A 
ATOM     11  C   UNL d   1      61.383  49.177  52.042  0.00  0.00     0.018 A 
ATOM     12  C   UNL d   1      60.727  49.708  53.211  0.00  0.00     0.001 A 
ATOM     13  C   UNL d   1      61.419  49.451  52.827  0.00  0.00     0.002 A 
ENDROOT
BRANCH   2  14
ATOM     14  C   UNL d   1      58.485  49.109  50.458  0.00  0.00     0.079 A 
ATOM     15  C   UNL d   1      58.409  49.456  49.711  0.00  0.00     0.020 A 
ATOM     16  C   UNL d   1      57.688  49.438  49.311  0.00  0.00     0.026 A 
ATOM     17  C   UNL d   1      57.031  49.069  49.661  0.00  0.00     0.094 A 
ATOM     18  C   UNL d   1      57.102  48.720  50.408  0.00  0.00     0.026 A 
ATOM     19  C   UNL d   1      57.828  48.739  50.808  0.00  0.00     0.020 A 
BRANCH  17  20
ATOM     20  O   UNL d   1      56.296  49.048  49.260  0.00  0.00    -0.328 OA
ATOM     21  C   UNL d   1      56.033  49.707  48.852  0.00  0.00     0.181 C 
ENDBRANCH  17  20
ENDBRANCH   2  14
BRANCH   4  22
ATOM     22  C   UNL d   1      61.309  48.634  50.489  0.00  0.00     0.087 C 
BRANCH  22  23
ATOM     23  C   UNL d   1      61.438  47.833  50.367  0.00  0.00     0.045 A 
ATOM     24  C   UNL d   1      62.078  47.596  49.914  0.00  0.00     0.141 A 
ATOM     25  F   UNL d   1      62.586  48.146  49.587  0.00  0.00    -0.204 F 
ATOM     26  C   UNL d   1      62.205  46.791  49.793  0.00  0.00     0.030 A 
ATOM     27  C   UNL d   1      61.695  46.237  50.122  0.00  0.00     0.002 A 
ATOM     28  C   UNL d   1      61.058  46.485  50.572  0.00  0.00     0.000 A 
ATOM     29  C   UNL d   1      60.929  47.284  50.695  0.00  0.00     0.004 A 
ENDBRANCH  22  23
ENDBRANCH   4  22
TORSDOF 4
ENDMDL
