MODEL 1
REMARK VINA RESULT:      -3.0      0.000      0.000
REMARK  5 active torsions:
REMARK  status: ('A' for Active; 'I' for Inactive)
REMARK    1  A    between atoms: N_2  and  S_1 
REMARK    2  A    between atoms: C_5  and  S_1 
REMARK    3  A    between atoms: S_6  and  C_3 
REMARK    4  A    between atoms: C_15  and  S_6 
REMARK    5  A    between atoms: C_14  and  C_15 
ROOT
ATOM      1  N   UNL d   1      59.115   0.016  29.487  0.00  0.00    -0.208 N 
ATOM      2  C   UNL d   1      58.936   0.303  30.246  0.00  0.00     0.189 A 
ATOM      3  N   UNL d   1      59.623   0.629  30.567  0.00  0.00    -0.219 NA
ATOM      4  C   UNL d   1      59.919   0.167  29.341  0.00  0.00     0.114 A 
ATOM      5  C   UNL d   1      60.227   0.544  30.007  0.00  0.00     0.121 A 
ENDROOT
BRANCH   1   6
ATOM      6  S   UNL d   1      58.583  -0.356  28.971  0.00  0.00     0.273 S 
ATOM      7  O   UNL d   1      57.936  -0.502  28.477  0.00  0.00    -0.200 OA
ATOM      8  O   UNL d   1      58.145   0.335  28.984  0.00  0.00    -0.200 OA
BRANCH   6   9
ATOM      9  C   UNL d   1      59.012  -1.061  28.946  0.00  0.00     0.104 A 
ATOM     10  C   UNL d   1      59.684  -1.104  28.477  0.00  0.00     0.013 A 
ATOM     11  C   UNL d   1      60.111  -1.812  28.455  0.00  0.00     0.001 A 
ATOM     12  C   UNL d   1      59.863  -2.465  28.899  0.00  0.00     0.000 A 
ATOM     13  C   UNL d   1      59.185  -2.409  29.368  0.00  0.00     0.001 A 
ATOM     14  C   UNL d   1      60.292  -3.170  28.874  0.00  0.00     0.000 C 
ATOM     15  C   UNL d   1      58.758  -1.702  29.390  0.00  0.00     0.013 A 
ENDBRANCH   6   9
ENDBRANCH   1   6
BRANCH   2  16
ATOM     16  S   UNL d   1      58.192   0.267  30.616  0.00  0.00    -0.049 SA
BRANCH  16  17
ATOM     17  C   UNL d   1      58.064   0.680  31.318  0.00  0.00     0.040 C 
BRANCH  17  18
ATOM     18  C   UNL d   1      57.432   0.476  31.803  0.00  0.00     0.026 A 
ATOM     19  C   UNL d   1      57.568   0.280  32.607  0.00  0.00     0.099 A 
ATOM     20  N   UNL d   1      56.948   0.075  33.104  0.00  0.00    -0.242 NA
ATOM     21  C   UNL d   1      56.184   0.064  32.797  0.00  0.00     0.099 A 
ATOM     22  C   UNL d   1      56.045   0.255  32.008  0.00  0.00     0.021 A 
ATOM     23  C   UNL d   1      56.670   0.461  31.513  0.00  0.00     0.004 A 
ENDBRANCH  17  18
ENDBRANCH  16  17
ENDBRANCH   2  16
TORSDOF 5
ENDMDL
MODEL 2
REMARK VINA RESULT:      -1.5      1.324      4.123
REMARK  5 active torsions:
REMARK  status: ('A' for Active; 'I' for Inactive)
REMARK    1  A    between atoms: N_2  and  S_1 
REMARK    2  A    between atoms: C_5  and  S_1 
REMARK    3  A    between atoms: S_6  and  C_3 
REMARK    4  A    between atoms: C_15  and  S_6 
REMARK    5  A    between atoms: C_14  and  C_15 
ROOT
ATOM      1  N   UNL d   1      58.130   0.172  30.178  0.00  0.00    -0.208 N 
ATOM      2  C   UNL d   1      58.290  -0.393  29.592  0.00  0.00     0.189 A 
ATOM      3  N   UNL d   1      57.805  -0.236  28.942  0.00  0.00    -0.219 NA
ATOM      4  C   UNL d   1      57.541   0.682  29.887  0.00  0.00     0.114 A 
ATOM      5  C   UNL d   1      57.345   0.427  29.128  0.00  0.00     0.121 A 
ENDROOT
BRANCH   1   6
ATOM      6  S   UNL d   1      58.495   0.218  30.921  0.00  0.00     0.273 S 
ATOM      7  O   UNL d   1      59.062   0.309  31.516  0.00  0.00    -0.200 OA
ATOM      8  O   UNL d   1      59.195   0.373  30.527  0.00  0.00    -0.200 OA
BRANCH   6   9
ATOM      9  C   UNL d   1      57.798   0.062  31.335  0.00  0.00     0.104 A 
ATOM     10  C   UNL d   1      57.288   0.682  31.507  0.00  0.00     0.013 A 
ATOM     11  C   UNL d   1      56.591   0.521  31.922  0.00  0.00     0.001 A 
ATOM     12  C   UNL d   1      56.412  -0.250  32.160  0.00  0.00     0.000 A 
ATOM     13  C   UNL d   1      56.934  -0.866  31.981  0.00  0.00     0.001 A 
ATOM     14  C   UNL d   1      55.715  -0.405  32.574  0.00  0.00     0.000 C 
ATOM     15  C   UNL d   1      57.631  -0.707  31.566  0.00  0.00     0.013 A 
ENDBRANCH   6   9
ENDBRANCH   1   6
BRANCH   2  16
ATOM     16  S   UNL d   1      58.845  -1.011  29.650  0.00  0.00    -0.049 SA
BRANCH  16  17
ATOM     17  C   UNL d   1      59.023  -1.464  28.985  0.00  0.00     0.040 C 
BRANCH  17  18
ATOM     18  C   UNL d   1      59.562  -2.083  29.045  0.00  0.00     0.026 A 
ATOM     19  C   UNL d   1      60.318  -1.949  29.383  0.00  0.00     0.099 A 
ATOM     20  N   UNL d   1      60.866  -2.556  29.449  0.00  0.00    -0.242 NA
ATOM     21  C   UNL d   1      60.660  -3.305  29.176  0.00  0.00     0.099 A 
ATOM     22  C   UNL d   1      59.920  -3.442  28.844  0.00  0.00     0.021 A 
ATOM     23  C   UNL d   1      59.372  -2.830  28.779  0.00  0.00     0.004 A 
ENDBRANCH  17  18
ENDBRANCH  16  17
ENDBRANCH   2  16
TORSDOF 5
ENDMDL
MODEL 3
REMARK VINA RESULT:      -0.5      8.996      9.937
REMARK  5 active torsions:
REMARK  status: ('A' for Active; 'I' for Inactive)
REMARK    1  A    between atoms: N_2  and  S_1 
REMARK    2  A    between atoms: C_5  and  S_1 
REMARK    3  A    between atoms: S_6  and  C_3 
REMARK    4  A    between atoms: C_15  and  S_6 
REMARK    5  A    between atoms: C_14  and  C_15 
ROOT
ATOM      1  N   UNL d   1      59.731  -9.159  34.372  0.00  0.00    -0.208 N 
ATOM      2  C   UNL d   1      59.665  -9.286  33.554  0.00  0.00     0.189 A 
ATOM      3  N   UNL d   1      60.425  -9.278  33.230  0.00  0.00    -0.219 NA
ATOM      4  C   UNL d   1      60.538  -9.072  34.552  0.00  0.00     0.114 A 
ATOM      5  C   UNL d   1      60.960  -9.146  33.848  0.00  0.00     0.121 A 
ENDROOT
BRANCH   1   6
ATOM      6  S   UNL d   1      59.102  -9.125  34.910  0.00  0.00     0.273 S 
ATOM      7  O   UNL d   1      58.409  -9.304  35.324  0.00  0.00    -0.200 OA
ATOM      8  O   UNL d   1      58.821  -9.814  34.569  0.00  0.00    -0.200 OA
BRANCH   6   9
ATOM      9  C   UNL d   1      59.369  -8.430  35.266  0.00  0.00     0.104 A 
ATOM     10  C   UNL d   1      59.964  -8.472  35.829  0.00  0.00     0.013 A 
ATOM     11  C   UNL d   1      60.229  -7.773  36.183  0.00  0.00     0.001 A 
ATOM     12  C   UNL d   1      59.899  -7.045  35.972  0.00  0.00     0.000 A 
ATOM     13  C   UNL d   1      59.300  -7.014  35.403  0.00  0.00     0.001 A 
ATOM     14  C   UNL d   1      60.167  -6.350  36.328  0.00  0.00     0.000 C 
ATOM     15  C   UNL d   1      59.035  -7.713  35.049  0.00  0.00     0.013 A 
ENDBRANCH   6   9
ENDBRANCH   1   6
BRANCH   2  16
ATOM     16  S   UNL d   1      58.956  -9.401  33.135  0.00  0.00    -0.049 SA
BRANCH  16  17
ATOM     17  C   UNL d   1      58.965  -9.808  32.419  0.00  0.00     0.040 C 
BRANCH  17  18
ATOM     18  C   UNL d   1      58.412  -9.626  31.838  0.00  0.00     0.026 A 
ATOM     19  C   UNL d   1      57.602  -9.548  32.041  0.00  0.00     0.099 A 
ATOM     20  N   UNL d   1      57.038  -9.367  31.473  0.00  0.00    -0.242 NA
ATOM     21  C   UNL d   1      57.283  -9.263  30.693  0.00  0.00     0.099 A 
ATOM     22  C   UNL d   1      58.077  -9.339  30.488  0.00  0.00     0.021 A 
ATOM     23  C   UNL d   1      58.639  -9.521  31.062  0.00  0.00     0.004 A 
ENDBRANCH  17  18
ENDBRANCH  16  17
ENDBRANCH   2  16
TORSDOF 5
ENDMDL
