MODEL 1
REMARK VINA RESULT:      -5.5      0.000      0.000
REMARK  5 active torsions:
REMARK  status: ('A' for Active; 'I' for Inactive)
REMARK    1  A    between atoms: N_9  and  C_3 
REMARK    2  A    between atoms: C_13  and  C_5 
REMARK    3  A    between atoms: C_12  and  N_10 
REMARK    4  A    between atoms: C_20  and  C_11 
REMARK    5  A    between atoms: C_25  and  C_20 
ROOT
ATOM      1  N   UNL d   1     -47.848  12.613  22.723  0.00  0.00    -0.196 N 
ATOM      2  C   UNL d   1     -48.477  13.135  22.614  0.00  0.00     0.167 A 
ATOM      3  C   UNL d   1     -47.120  12.919  22.885  0.00  0.00     0.152 A 
ATOM      4  N   UNL d   1     -48.709  11.530  22.505  0.00  0.00    -0.163 NA
ATOM      5  C   UNL d   1     -49.207  12.853  22.452  0.00  0.00     0.055 A 
ATOM      6  C   UNL d   1     -49.338  12.052  22.395  0.00  0.00     0.104 A 
ATOM      7  N   UNL d   1     -48.345  13.936  22.671  0.00  0.00    -0.227 NA
ATOM      8  C   UNL d   1     -46.982  13.702  22.943  0.00  0.00     0.057 A 
ATOM      9  C   UNL d   1     -47.611  14.225  22.833  0.00  0.00     0.086 A 
ATOM     10  C   UNL d   1     -50.070  11.761  22.233  0.00  0.00     0.023 C 
ENDROOT
BRANCH   3  11
ATOM     11  N   UNL d   1     -46.471  12.380  22.998  0.00  0.00    -0.286 N 
ATOM     12  C   UNL d   1     -45.768  12.459  22.543  0.00  0.00     0.101 A 
ATOM     13  C   UNL d   1     -45.119  11.921  22.656  0.00  0.00     0.101 A 
ATOM     14  N   UNL d   1     -45.174  11.303  23.224  0.00  0.00    -0.286 N 
ATOM     15  C   UNL d   1     -45.886  11.215  23.692  0.00  0.00     0.101 A 
ATOM     16  C   UNL d   1     -46.535  11.754  23.578  0.00  0.00     0.101 A 
BRANCH  14  17
ATOM     17  C   UNL d   1     -44.528  10.766  23.337  0.00  0.00     0.148 A 
ATOM     18  N   UNL d   1     -43.733  11.036  23.196  0.00  0.00    -0.227 NA
ATOM     19  C   UNL d   1     -43.088  10.501  23.308  0.00  0.00     0.101 A 
ATOM     20  C   UNL d   1     -43.241   9.698  23.562  0.00  0.00     0.021 A 
ATOM     21  C   UNL d   1     -44.029   9.442  23.698  0.00  0.00     0.005 A 
ATOM     22  C   UNL d   1     -44.677   9.981  23.585  0.00  0.00     0.037 A 
ENDBRANCH  14  17
ENDBRANCH   3  11
BRANCH   9  23
ATOM     23  C   UNL d   1     -47.480  15.060  22.892  0.00  0.00     0.019 C 
BRANCH  23  24
ATOM     24  C   UNL d   1     -47.219  15.508  22.214  0.00  0.00     0.002 C 
ATOM     25  C   UNL d   1     -46.433  15.799  22.175  0.00  0.00     0.000 C 
ENDBRANCH  23  24
ENDBRANCH   9  23
BRANCH   5  26
ATOM     26  C   UNL d   1     -49.826  13.367  22.344  0.00  0.00     0.004 A 
ATOM     27  C   UNL d   1     -50.309  13.550  22.974  0.00  0.00     0.000 A 
ATOM     28  C   UNL d   1     -50.938  14.072  22.864  0.00  0.00     0.000 A 
ATOM     29  C   UNL d   1     -51.064  14.396  22.128  0.00  0.00     0.000 A 
ATOM     30  C   UNL d   1     -50.573  14.205  21.504  0.00  0.00     0.000 A 
ATOM     31  C   UNL d   1     -49.954  13.691  21.612  0.00  0.00     0.000 A 
ENDBRANCH   5  26
TORSDOF 5
ENDMDL
MODEL 2
REMARK VINA RESULT:      -5.2      1.620      2.714
REMARK  5 active torsions:
REMARK  status: ('A' for Active; 'I' for Inactive)
REMARK    1  A    between atoms: N_9  and  C_3 
REMARK    2  A    between atoms: C_13  and  C_5 
REMARK    3  A    between atoms: C_12  and  N_10 
REMARK    4  A    between atoms: C_20  and  C_11 
REMARK    5  A    between atoms: C_25  and  C_20 
ROOT
ATOM      1  N   UNL d   1     -47.548  13.856  22.535  0.00  0.00    -0.196 N 
ATOM      2  C   UNL d   1     -48.337  13.940  22.763  0.00  0.00     0.167 A 
ATOM      3  C   UNL d   1     -47.174  13.162  22.701  0.00  0.00     0.152 A 
ATOM      4  N   UNL d   1     -47.564  15.150  22.000  0.00  0.00    -0.163 NA
ATOM      5  C   UNL d   1     -48.726  14.620  22.608  0.00  0.00     0.055 A 
ATOM      6  C   UNL d   1     -48.353  15.235  22.227  0.00  0.00     0.104 A 
ATOM      7  N   UNL d   1     -48.710  13.326  23.143  0.00  0.00    -0.227 NA
ATOM      8  C   UNL d   1     -47.532  12.554  23.074  0.00  0.00     0.057 A 
ATOM      9  C   UNL d   1     -48.321  12.638  23.301  0.00  0.00     0.086 A 
ATOM     10  C   UNL d   1     -48.738  15.922  22.068  0.00  0.00     0.023 C 
ENDROOT
BRANCH   3  11
ATOM     11  N   UNL d   1     -46.361  13.075  22.466  0.00  0.00    -0.286 N 
ATOM     12  C   UNL d   1     -45.744  13.151  23.034  0.00  0.00     0.101 A 
ATOM     13  C   UNL d   1     -44.931  13.064  22.800  0.00  0.00     0.101 A 
ATOM     14  N   UNL d   1     -44.735  12.901  21.998  0.00  0.00    -0.286 N 
ATOM     15  C   UNL d   1     -45.356  12.821  21.415  0.00  0.00     0.101 A 
ATOM     16  C   UNL d   1     -46.169  12.908  21.649  0.00  0.00     0.101 A 
BRANCH  14  17
ATOM     17  C   UNL d   1     -43.925  12.814  21.765  0.00  0.00     0.148 A 
ATOM     18  N   UNL d   1     -43.447  12.212  22.132  0.00  0.00    -0.227 NA
ATOM     19  C   UNL d   1     -42.639  12.126  21.899  0.00  0.00     0.101 A 
ATOM     20  C   UNL d   1     -42.311  12.641  21.300  0.00  0.00     0.021 A 
ATOM     21  C   UNL d   1     -42.791  13.231  20.944  0.00  0.00     0.005 A 
ATOM     22  C   UNL d   1     -43.604  13.318  21.178  0.00  0.00     0.037 A 
ENDBRANCH  14  17
ENDBRANCH   3  11
BRANCH   9  23
ATOM     23  C   UNL d   1     -48.715  12.002  23.698  0.00  0.00     0.019 C 
BRANCH  23  24
ATOM     24  C   UNL d   1     -49.129  11.402  23.254  0.00  0.00     0.002 C 
ATOM     25  C   UNL d   1     -49.799  11.018  23.582  0.00  0.00     0.000 C 
ENDBRANCH  23  24
ENDBRANCH   9  23
BRANCH   5  26
ATOM     26  C   UNL d   1     -49.502  14.703  22.832  0.00  0.00     0.004 A 
ATOM     27  C   UNL d   1     -49.686  15.173  23.471  0.00  0.00     0.000 A 
ATOM     28  C   UNL d   1     -50.475  15.257  23.698  0.00  0.00     0.000 A 
ATOM     29  C   UNL d   1     -51.054  14.870  23.279  0.00  0.00     0.000 A 
ATOM     30  C   UNL d   1     -50.858  14.401  22.639  0.00  0.00     0.000 A 
ATOM     31  C   UNL d   1     -50.082  14.318  22.416  0.00  0.00     0.000 A 
ENDBRANCH   5  26
TORSDOF 5
ENDMDL
MODEL 3
REMARK VINA RESULT:      -5.1      5.656      8.232
REMARK  5 active torsions:
REMARK  status: ('A' for Active; 'I' for Inactive)
REMARK    1  A    between atoms: N_9  and  C_3 
REMARK    2  A    between atoms: C_13  and  C_5 
REMARK    3  A    between atoms: C_12  and  N_10 
REMARK    4  A    between atoms: C_20  and  C_11 
REMARK    5  A    between atoms: C_25  and  C_20 
ROOT
ATOM      1  N   UNL d   1     -40.881  14.179  19.869  0.00  0.00    -0.196 N 
ATOM      2  C   UNL d   1     -40.167  14.477  19.584  0.00  0.00     0.167 A 
ATOM      3  C   UNL d   1     -40.980  14.120  20.667  0.00  0.00     0.152 A 
ATOM      4  N   UNL d   1     -41.341  14.022  18.555  0.00  0.00    -0.163 NA
ATOM      5  C   UNL d   1     -40.049  14.543  18.796  0.00  0.00     0.055 A 
ATOM      6  C   UNL d   1     -40.627  14.320  18.270  0.00  0.00     0.104 A 
ATOM      7  N   UNL d   1     -39.589  14.700  20.110  0.00  0.00    -0.227 NA
ATOM      8  C   UNL d   1     -40.418  14.336  21.191  0.00  0.00     0.057 A 
ATOM      9  C   UNL d   1     -39.704  14.635  20.905  0.00  0.00     0.086 A 
ATOM     10  C   UNL d   1     -40.515  14.384  17.476  0.00  0.00     0.023 C 
ENDROOT
BRANCH   3  11
ATOM     11  N   UNL d   1     -41.717  13.812  20.961  0.00  0.00    -0.286 N 
ATOM     12  C   UNL d   1     -41.801  12.990  21.120  0.00  0.00     0.101 A 
ATOM     13  C   UNL d   1     -42.538  12.683  21.415  0.00  0.00     0.101 A 
ATOM     14  N   UNL d   1     -43.189  13.198  21.550  0.00  0.00    -0.286 N 
ATOM     15  C   UNL d   1     -43.112  14.035  21.391  0.00  0.00     0.101 A 
ATOM     16  C   UNL d   1     -42.375  14.343  21.097  0.00  0.00     0.101 A 
BRANCH  14  17
ATOM     17  C   UNL d   1     -43.923  12.892  21.844  0.00  0.00     0.148 A 
ATOM     18  N   UNL d   1     -43.928  12.149  22.260  0.00  0.00    -0.227 NA
ATOM     19  C   UNL d   1     -44.660  11.843  22.553  0.00  0.00     0.101 A 
ATOM     20  C   UNL d   1     -45.384  12.282  22.428  0.00  0.00     0.021 A 
ATOM     21  C   UNL d   1     -45.368  13.013  22.017  0.00  0.00     0.005 A 
ATOM     22  C   UNL d   1     -44.632  13.320  21.722  0.00  0.00     0.037 A 
ENDBRANCH  14  17
ENDBRANCH   3  11
BRANCH   9  23
ATOM     23  C   UNL d   1     -39.098  14.869  21.449  0.00  0.00     0.019 C 
BRANCH  23  24
ATOM     24  C   UNL d   1     -39.148  15.615  21.860  0.00  0.00     0.002 C 
ATOM     25  C   UNL d   1     -38.572  15.822  22.435  0.00  0.00     0.000 C 
ENDBRANCH  23  24
ENDBRANCH   9  23
BRANCH   5  26
ATOM     26  C   UNL d   1     -39.346  14.837  18.515  0.00  0.00     0.004 A 
ATOM     27  C   UNL d   1     -39.292  15.624  18.316  0.00  0.00     0.000 A 
ATOM     28  C   UNL d   1     -38.578  15.922  18.030  0.00  0.00     0.000 A 
ATOM     29  C   UNL d   1     -37.940  15.423  17.953  0.00  0.00     0.000 A 
ATOM     30  C   UNL d   1     -38.005  14.635  18.156  0.00  0.00     0.000 A 
ATOM     31  C   UNL d   1     -38.708  14.342  18.437  0.00  0.00     0.000 A 
ENDBRANCH   5  26
TORSDOF 5
ENDMDL
MODEL 4
REMARK VINA RESULT:      -4.2      1.564      2.094
REMARK  5 active torsions:
REMARK  status: ('A' for Active; 'I' for Inactive)
REMARK    1  A    between atoms: N_9  and  C_3 
REMARK    2  A    between atoms: C_13  and  C_5 
REMARK    3  A    between atoms: C_12  and  N_10 
REMARK    4  A    between atoms: C_20  and  C_11 
REMARK    5  A    between atoms: C_25  and  C_20 
ROOT
ATOM      1  N   UNL d   1     -47.397  12.675  22.451  0.00  0.00    -0.196 N 
ATOM      2  C   UNL d   1     -48.199  12.783  22.616  0.00  0.00     0.167 A 
ATOM      3  C   UNL d   1     -46.912  13.317  22.477  0.00  0.00     0.152 A 
ATOM      4  N   UNL d   1     -47.623  11.307  22.250  0.00  0.00    -0.163 NA
ATOM      5  C   UNL d   1     -48.697  12.159  22.596  0.00  0.00     0.055 A 
ATOM      6  C   UNL d   1     -48.424  11.415  22.415  0.00  0.00     0.104 A 
ATOM      7  N   UNL d   1     -48.472  13.527  22.797  0.00  0.00    -0.227 NA
ATOM      8  C   UNL d   1     -47.171  14.051  22.654  0.00  0.00     0.057 A 
ATOM      9  C   UNL d   1     -47.972  14.159  22.818  0.00  0.00     0.086 A 
ATOM     10  C   UNL d   1     -48.920  10.783  22.393  0.00  0.00     0.023 C 
ENDROOT
BRANCH   3  11
ATOM     11  N   UNL d   1     -46.085  13.206  22.307  0.00  0.00    -0.286 N 
ATOM     12  C   UNL d   1     -45.660  12.573  22.662  0.00  0.00     0.101 A 
ATOM     13  C   UNL d   1     -44.833  12.462  22.492  0.00  0.00     0.101 A 
ATOM     14  N   UNL d   1     -44.433  12.984  21.968  0.00  0.00    -0.286 N 
ATOM     15  C   UNL d   1     -44.859  13.631  21.603  0.00  0.00     0.101 A 
ATOM     16  C   UNL d   1     -45.685  13.742  21.773  0.00  0.00     0.101 A 
BRANCH  14  17
ATOM     17  C   UNL d   1     -43.610  12.874  21.799  0.00  0.00     0.148 A 
ATOM     18  N   UNL d   1     -43.188  12.240  22.181  0.00  0.00    -0.227 NA
ATOM     19  C   UNL d   1     -42.366  12.129  22.012  0.00  0.00     0.101 A 
ATOM     20  C   UNL d   1     -41.971  12.653  21.462  0.00  0.00     0.021 A 
ATOM     21  C   UNL d   1     -42.397  13.275  21.092  0.00  0.00     0.005 A 
ATOM     22  C   UNL d   1     -43.223  13.385  21.262  0.00  0.00     0.037 A 
ENDBRANCH  14  17
ENDBRANCH   3  11
BRANCH   9  23
ATOM     23  C   UNL d   1     -48.263  14.931  23.008  0.00  0.00     0.019 C 
BRANCH  23  24
ATOM     24  C   UNL d   1     -48.749  15.362  22.454  0.00  0.00     0.002 C 
ATOM     25  C   UNL d   1     -49.343  15.887  22.729  0.00  0.00     0.000 C 
ENDBRANCH  23  24
ENDBRANCH   9  23
BRANCH   5  26
ATOM     26  C   UNL d   1     -49.486  12.265  22.758  0.00  0.00     0.004 A 
ATOM     27  C   UNL d   1     -49.743  12.235  23.530  0.00  0.00     0.000 A 
ATOM     28  C   UNL d   1     -50.545  12.342  23.694  0.00  0.00     0.000 A 
ATOM     29  C   UNL d   1     -51.063  12.477  23.082  0.00  0.00     0.000 A 
ATOM     30  C   UNL d   1     -50.793  12.505  22.312  0.00  0.00     0.000 A 
ATOM     31  C   UNL d   1     -50.005  12.399  22.150  0.00  0.00     0.000 A 
ENDBRANCH   5  26
TORSDOF 5
ENDMDL
MODEL 5
REMARK VINA RESULT:      -3.5      7.387      9.998
REMARK  5 active torsions:
REMARK  status: ('A' for Active; 'I' for Inactive)
REMARK    1  A    between atoms: N_9  and  C_3 
REMARK    2  A    between atoms: C_13  and  C_5 
REMARK    3  A    between atoms: C_12  and  N_10 
REMARK    4  A    between atoms: C_20  and  C_11 
REMARK    5  A    between atoms: C_25  and  C_20 
ROOT
ATOM      1  N   UNL d   1     -38.869  14.078  19.788  0.00  0.00    -0.196 N 
ATOM      2  C   UNL d   1     -39.070  14.203  20.578  0.00  0.00     0.167 A 
ATOM      3  C   UNL d   1     -39.186  14.566  19.231  0.00  0.00     0.152 A 
ATOM      4  N   UNL d   1     -38.058  12.999  20.164  0.00  0.00    -0.163 NA
ATOM      5  C   UNL d   1     -38.767  13.730  21.146  0.00  0.00     0.055 A 
ATOM      6  C   UNL d   1     -38.259  13.124  20.954  0.00  0.00     0.104 A 
ATOM      7  N   UNL d   1     -39.578  14.809  20.770  0.00  0.00    -0.227 NA
ATOM      8  C   UNL d   1     -39.685  15.163  19.410  0.00  0.00     0.057 A 
ATOM      9  C   UNL d   1     -39.886  15.288  20.200  0.00  0.00     0.086 A 
ATOM     10  C   UNL d   1     -37.950  12.645  21.521  0.00  0.00     0.023 C 
ENDROOT
BRANCH   3  11
ATOM     11  N   UNL d   1     -38.979  14.438  18.415  0.00  0.00    -0.286 N 
ATOM     12  C   UNL d   1     -38.935  15.086  17.881  0.00  0.00     0.101 A 
ATOM     13  C   UNL d   1     -38.728  14.957  17.065  0.00  0.00     0.101 A 
ATOM     14  N   UNL d   1     -38.565  14.181  16.785  0.00  0.00    -0.286 N 
ATOM     15  C   UNL d   1     -38.608  13.516  17.323  0.00  0.00     0.101 A 
ATOM     16  C   UNL d   1     -38.815  13.645  18.138  0.00  0.00     0.101 A 
BRANCH  14  17
ATOM     17  C   UNL d   1     -38.359  14.053  15.974  0.00  0.00     0.148 A 
ATOM     18  N   UNL d   1     -38.214  14.724  15.470  0.00  0.00    -0.227 NA
ATOM     19  C   UNL d   1     -38.008  14.597  14.659  0.00  0.00     0.101 A 
ATOM     20  C   UNL d   1     -37.948  13.798  14.357  0.00  0.00     0.021 A 
ATOM     21  C   UNL d   1     -38.093  13.144  14.862  0.00  0.00     0.005 A 
ATOM     22  C   UNL d   1     -38.300  13.273  15.677  0.00  0.00     0.037 A 
ENDBRANCH  14  17
ENDBRANCH   3  11
BRANCH   9  23
ATOM     23  C   UNL d   1     -40.414  15.917  20.406  0.00  0.00     0.019 C 
BRANCH  23  24
ATOM     24  C   UNL d   1     -41.047  15.789  20.964  0.00  0.00     0.002 C 
ATOM     25  C   UNL d   1     -41.847  15.846  20.718  0.00  0.00     0.000 C 
ENDBRANCH  23  24
ENDBRANCH   9  23
BRANCH   5  26
ATOM     26  C   UNL d   1     -38.964  13.853  21.924  0.00  0.00     0.004 A 
ATOM     27  C   UNL d   1     -38.542  14.392  22.364  0.00  0.00     0.000 A 
ATOM     28  C   UNL d   1     -38.742  14.516  23.155  0.00  0.00     0.000 A 
ATOM     29  C   UNL d   1     -39.360  14.098  23.480  0.00  0.00     0.000 A 
ATOM     30  C   UNL d   1     -39.776  13.560  23.029  0.00  0.00     0.000 A 
ATOM     31  C   UNL d   1     -39.579  13.437  22.251  0.00  0.00     0.000 A 
ENDBRANCH   5  26
TORSDOF 5
ENDMDL
