MODEL 1
REMARK VINA RESULT:      35.9      0.000      0.000
REMARK  6 active torsions:
REMARK  status: ('A' for Active; 'I' for Inactive)
REMARK    1  A    between atoms: S_2  and  C_1 
REMARK    2  A    between atoms: N_3  and  C_1 
REMARK    3  A    between atoms: C_4  and  C_1 
REMARK    4  A    between atoms: C_6  and  S_2 
REMARK       I    between atoms: C_5  and  N_3 
REMARK    5  A    between atoms: C_9  and  C_5 
REMARK    6  A    between atoms: O_23  and  C_17 
ROOT
ATOM      1  C   UNL d   1      14.314  13.145  -0.967  0.00  0.00     0.193 C 
ENDROOT
BRANCH   1   2
ATOM      2  S   UNL d   1      14.631  13.897  -0.903  0.00  0.00     0.228 S 
ATOM      3  O   UNL d   1      15.381  13.571  -0.763  0.00  0.00    -0.216 OA
ATOM      4  O   UNL d   1      13.884  14.230  -1.042  0.00  0.00    -0.216 OA
BRANCH   2   5
ATOM      5  C   UNL d   1      14.959  14.662  -0.836  0.00  0.00     0.089 A 
ATOM      6  C   UNL d   1      14.800  15.223  -1.409  0.00  0.00     0.011 A 
ATOM      7  C   UNL d   1      15.125  15.979  -1.342  0.00  0.00     0.001 A 
ATOM      8  C   UNL d   1      15.607  16.166  -0.699  0.00  0.00     0.000 A 
ATOM      9  C   UNL d   1      15.764  15.596  -0.123  0.00  0.00     0.001 A 
ATOM     10  C   UNL d   1      15.938  16.932  -0.629  0.00  0.00     0.000 C 
ATOM     11  C   UNL d   1      15.441  14.848  -0.192  0.00  0.00     0.011 A 
ENDBRANCH   2   5
ENDBRANCH   1   2
BRANCH   1  12
ATOM     12  N   UNL d   1      13.922  12.926  -1.660  0.00  0.00    -0.195 NA
ATOM     13  C   UNL d   1      14.355  12.683  -2.316  0.00  0.00     0.280 C 
ATOM     14  O   UNL d   1      15.179  12.660  -2.283  0.00  0.00    -0.265 OA
BRANCH  13  15
ATOM     15  C   UNL d   1      13.958  12.462  -3.012  0.00  0.00     0.058 A 
ATOM     16  C   UNL d   1      14.251  12.696  -3.747  0.00  0.00     0.007 A 
ATOM     17  C   UNL d   1      13.857  12.476  -4.438  0.00  0.00     0.024 A 
ATOM     18  C   UNL d   1      13.172  12.023  -4.392  0.00  0.00     0.094 A 
ATOM     19  C   UNL d   1      12.879  11.789  -3.657  0.00  0.00     0.024 A 
ATOM     20  C   UNL d   1      13.271  12.008  -2.968  0.00  0.00     0.007 A 
BRANCH  18  21
ATOM     21  O   UNL d   1      12.778  11.803  -5.093  0.00  0.00    -0.328 OA
ATOM     22  C   UNL d   1      13.114  11.976  -5.833  0.00  0.00     0.181 C 
ENDBRANCH  18  21
ENDBRANCH  13  15
ENDBRANCH   1  12
BRANCH   1  23
ATOM     23  C   UNL d   1      14.385  12.608  -0.345  0.00  0.00     0.144 C 
ATOM     24 CL   UNL d   1      15.131  12.421  -0.046  0.00  0.00    -0.068 Cl
ATOM     25 CL   UNL d   1      13.714  12.260  -0.023  0.00  0.00    -0.068 Cl
ENDBRANCH   1  23
TORSDOF 6
ENDMDL
