MODEL 1
REMARK VINA RESULT:      -4.7      0.000      0.000
REMARK  2 active torsions:
REMARK  status: ('A' for Active; 'I' for Inactive)
REMARK       I    between atoms: N_2  and  C_1 
REMARK    1  A    between atoms: C_4  and  N_2 
REMARK    2  A    between atoms: O_8  and  C_7 
ROOT
ATOM      1  C   UNL d   1      56.408  -0.151  32.127  0.00  0.00     0.102 A 
ATOM      2  C   UNL d   1      55.945   0.388  32.549  0.00  0.00     0.044 A 
ATOM      3  C   UNL d   1      55.534   0.143  33.221  0.00  0.00     0.096 A 
ATOM      4  C   UNL d   1      56.049  -1.181  33.049  0.00  0.00     0.004 A 
ATOM      5  C   UNL d   1      56.460  -0.936  32.377  0.00  0.00     0.020 A 
ATOM      6  C   UNL d   1      55.586  -0.642  33.471  0.00  0.00     0.024 A 
ENDROOT
BRANCH   1   7
ATOM      7  N   UNL d   1      56.822   0.091  31.453  0.00  0.00    -0.056 NA
ATOM      8  C   UNL d   1      57.571   0.439  31.523  0.00  0.00     0.787 C 
ATOM      9  N   UNL d   1      57.986   0.682  30.853  0.00  0.00     0.064 N 
ATOM     10  N   UNL d   1      57.900   0.542  32.275  0.00  0.00     0.064 N 
ENDBRANCH   1   7
BRANCH   3  11
ATOM     11  O   UNL d   1      55.071   0.682  33.643  0.00  0.00    -0.328 OA
ATOM     12  C   UNL d   1      55.046   0.650  34.467  0.00  0.00     0.181 C 
ENDBRANCH   3  11
TORSDOF 2
ENDMDL
MODEL 2
REMARK VINA RESULT:      -4.6      1.900      2.846
REMARK  2 active torsions:
REMARK  status: ('A' for Active; 'I' for Inactive)
REMARK       I    between atoms: N_2  and  C_1 
REMARK    1  A    between atoms: C_4  and  N_2 
REMARK    2  A    between atoms: O_8  and  C_7 
ROOT
ATOM      1  C   UNL d   1      56.280  -0.120  33.329  0.00  0.00     0.102 A 
ATOM      2  C   UNL d   1      56.661   0.360  32.775  0.00  0.00     0.044 A 
ATOM      3  C   UNL d   1      56.842   0.064  32.026  0.00  0.00     0.096 A 
ATOM      4  C   UNL d   1      56.259  -1.192  32.386  0.00  0.00     0.004 A 
ATOM      5  C   UNL d   1      56.079  -0.897  33.135  0.00  0.00     0.020 A 
ATOM      6  C   UNL d   1      56.640  -0.713  31.832  0.00  0.00     0.024 A 
ENDROOT
BRANCH   1   7
ATOM      7  N   UNL d   1      56.098   0.173  34.081  0.00  0.00    -0.056 NA
ATOM      8  C   UNL d   1      55.320   0.389  34.270  0.00  0.00     0.787 C 
ATOM      9  N   UNL d   1      55.135   0.682  35.018  0.00  0.00     0.064 N 
ATOM     10  N   UNL d   1      54.728   0.308  33.698  0.00  0.00     0.064 N 
ENDBRANCH   1   7
BRANCH   3  11
ATOM     11  O   UNL d   1      57.223   0.544  31.472  0.00  0.00    -0.328 OA
ATOM     12  C   UNL d   1      57.747   0.212  30.927  0.00  0.00     0.181 C 
ENDBRANCH   3  11
TORSDOF 2
ENDMDL
MODEL 3
REMARK VINA RESULT:      -4.1      1.227      1.655
REMARK  2 active torsions:
REMARK  status: ('A' for Active; 'I' for Inactive)
REMARK       I    between atoms: N_2  and  C_1 
REMARK    1  A    between atoms: C_4  and  N_2 
REMARK    2  A    between atoms: O_8  and  C_7 
ROOT
ATOM      1  C   UNL d   1      56.976   0.026  31.409  0.00  0.00     0.102 A 
ATOM      2  C   UNL d   1      56.863  -0.732  31.715  0.00  0.00     0.044 A 
ATOM      3  C   UNL d   1      56.435  -0.837  32.414  0.00  0.00     0.096 A 
ATOM      4  C   UNL d   1      56.235   0.577  32.498  0.00  0.00     0.004 A 
ATOM      5  C   UNL d   1      56.663   0.682  31.800  0.00  0.00     0.020 A 
ATOM      6  C   UNL d   1      56.122  -0.182  32.805  0.00  0.00     0.024 A 
ENDROOT
BRANCH   1   7
ATOM      7  N   UNL d   1      57.405   0.135  30.710  0.00  0.00    -0.056 NA
ATOM      8  C   UNL d   1      58.165   0.464  30.730  0.00  0.00     0.787 C 
ATOM      9  N   UNL d   1      58.595   0.573  30.035  0.00  0.00     0.064 N 
ATOM     10  N   UNL d   1      58.491   0.682  31.458  0.00  0.00     0.064 N 
ENDBRANCH   1   7
BRANCH   3  11
ATOM     11  O   UNL d   1      56.322  -1.596  32.720  0.00  0.00    -0.328 OA
ATOM     12  C   UNL d   1      55.658  -1.761  33.181  0.00  0.00     0.181 C 
ENDBRANCH   3  11
TORSDOF 2
ENDMDL
MODEL 4
REMARK VINA RESULT:      -3.5      1.796      3.067
REMARK  2 active torsions:
REMARK  status: ('A' for Active; 'I' for Inactive)
REMARK       I    between atoms: N_2  and  C_1 
REMARK    1  A    between atoms: C_4  and  N_2 
REMARK    2  A    between atoms: O_8  and  C_7 
ROOT
ATOM      1  C   UNL d   1      56.698   0.438  32.286  0.00  0.00     0.102 A 
ATOM      2  C   UNL d   1      56.692   0.420  31.460  0.00  0.00     0.044 A 
ATOM      3  C   UNL d   1      57.393   0.532  31.038  0.00  0.00     0.096 A 
ATOM      4  C   UNL d   1      58.105   0.682  32.270  0.00  0.00     0.004 A 
ATOM      5  C   UNL d   1      57.405   0.570  32.692  0.00  0.00     0.020 A 
ATOM      6  C   UNL d   1      58.099   0.663  31.444  0.00  0.00     0.024 A 
ENDROOT
BRANCH   1   7
ATOM      7  N   UNL d   1      55.998   0.326  32.712  0.00  0.00    -0.056 NA
ATOM      8  C   UNL d   1      55.774  -0.433  32.959  0.00  0.00     0.787 C 
ATOM      9  N   UNL d   1      55.077  -0.549  33.384  0.00  0.00     0.064 N 
ATOM     10  N   UNL d   1      56.259  -1.077  32.775  0.00  0.00     0.064 N 
ENDBRANCH   1   7
BRANCH   3  11
ATOM     11  O   UNL d   1      57.386   0.513  30.213  0.00  0.00    -0.328 OA
ATOM     12  C   UNL d   1      58.093   0.429  29.795  0.00  0.00     0.181 C 
ENDBRANCH   3  11
TORSDOF 2
ENDMDL
MODEL 5
REMARK VINA RESULT:      -3.4      8.902      9.528
REMARK  2 active torsions:
REMARK  status: ('A' for Active; 'I' for Inactive)
REMARK       I    between atoms: N_2  and  C_1 
REMARK    1  A    between atoms: C_4  and  N_2 
REMARK    2  A    between atoms: O_8  and  C_7 
ROOT
ATOM      1  C   UNL d   1      60.144  -8.563  35.296  0.00  0.00     0.102 A 
ATOM      2  C   UNL d   1      60.176  -7.737  35.293  0.00  0.00     0.044 A 
ATOM      3  C   UNL d   1      59.700  -7.302  35.808  0.00  0.00     0.096 A 
ATOM      4  C   UNL d   1      59.160  -8.520  36.330  0.00  0.00     0.004 A 
ATOM      5  C   UNL d   1      59.635  -8.955  35.815  0.00  0.00     0.020 A 
ATOM      6  C   UNL d   1      59.192  -7.694  36.327  0.00  0.00     0.024 A 
ENDROOT
BRANCH   1   7
ATOM      7  N   UNL d   1      60.619  -9.002  34.781  0.00  0.00    -0.056 NA
ATOM      8  C   UNL d   1      60.313  -9.283  34.064  0.00  0.00     0.787 C 
ATOM      9  N   UNL d   1      60.784  -9.722  33.548  0.00  0.00     0.064 N 
ATOM     10  N   UNL d   1      59.526  -9.120  33.870  0.00  0.00     0.064 N 
ENDBRANCH   1   7
BRANCH   3  11
ATOM     11  O   UNL d   1      59.733  -6.477  35.804  0.00  0.00    -0.328 OA
ATOM     12  C   UNL d   1      60.292  -6.083  36.265  0.00  0.00     0.181 C 
ENDBRANCH   3  11
TORSDOF 2
ENDMDL
MODEL 6
REMARK VINA RESULT:      -2.4      2.602      4.085
REMARK  2 active torsions:
REMARK  status: ('A' for Active; 'I' for Inactive)
REMARK       I    between atoms: N_2  and  C_1 
REMARK    1  A    between atoms: C_4  and  N_2 
REMARK    2  A    between atoms: O_8  and  C_7 
ROOT
ATOM      1  C   UNL d   1      57.700  -0.019  30.432  0.00  0.00     0.102 A 
ATOM      2  C   UNL d   1      58.104  -0.707  30.219  0.00  0.00     0.044 A 
ATOM      3  C   UNL d   1      58.608  -0.706  29.566  0.00  0.00     0.096 A 
ATOM      4  C   UNL d   1      58.305   0.673  29.339  0.00  0.00     0.004 A 
ATOM      5  C   UNL d   1      57.800   0.673  29.992  0.00  0.00     0.020 A 
ATOM      6  C   UNL d   1      58.709  -0.015  29.126  0.00  0.00     0.024 A 
ENDROOT
BRANCH   1   7
ATOM      7  N   UNL d   1      57.194  -0.016  31.086  0.00  0.00    -0.056 NA
ATOM      8  C   UNL d   1      57.431   0.334  31.798  0.00  0.00     0.787 C 
ATOM      9  N   UNL d   1      56.929   0.338  32.453  0.00  0.00     0.064 N 
ATOM     10  N   UNL d   1      58.180   0.681  31.849  0.00  0.00     0.064 N 
ENDBRANCH   1   7
BRANCH   3  11
ATOM     11  O   UNL d   1      59.012  -1.395  29.353  0.00  0.00    -0.328 OA
ATOM     12  C   UNL d   1      59.171  -1.553  28.559  0.00  0.00     0.181 C 
ENDBRANCH   3  11
TORSDOF 2
ENDMDL
MODEL 7
REMARK VINA RESULT:      -2.1      3.904      5.005
REMARK  2 active torsions:
REMARK  status: ('A' for Active; 'I' for Inactive)
REMARK       I    between atoms: N_2  and  C_1 
REMARK    1  A    between atoms: C_4  and  N_2 
REMARK    2  A    between atoms: O_8  and  C_7 
ROOT
ATOM      1  C   UNL d   1      59.198  -1.758  28.784  0.00  0.00     0.102 A 
ATOM      2  C   UNL d   1      58.543  -1.417  29.156  0.00  0.00     0.044 A 
ATOM      3  C   UNL d   1      58.600  -0.662  29.484  0.00  0.00     0.096 A 
ATOM      4  C   UNL d   1      59.966  -0.588  29.065  0.00  0.00     0.004 A 
ATOM      5  C   UNL d   1      59.910  -1.343  28.738  0.00  0.00     0.020 A 
ATOM      6  C   UNL d   1      59.312  -0.247  29.438  0.00  0.00     0.024 A 
ENDROOT
BRANCH   1   7
ATOM      7  N   UNL d   1      59.144  -2.515  28.455  0.00  0.00    -0.056 NA
ATOM      8  C   UNL d   1      59.511  -3.159  28.824  0.00  0.00     0.787 C 
ATOM      9  N   UNL d   1      59.461  -3.916  28.500  0.00  0.00     0.064 N 
ATOM     10  N   UNL d   1      59.932  -3.037  29.526  0.00  0.00     0.064 N 
ENDBRANCH   1   7
BRANCH   3  11
ATOM     11  O   UNL d   1      57.946  -0.321  29.856  0.00  0.00    -0.328 OA
ATOM     12  C   UNL d   1      58.027   0.022  30.602  0.00  0.00     0.181 C 
ENDBRANCH   3  11
TORSDOF 2
ENDMDL
MODEL 8
REMARK VINA RESULT:      -1.8     10.019     10.504
REMARK  2 active torsions:
REMARK  status: ('A' for Active; 'I' for Inactive)
REMARK       I    between atoms: N_2  and  C_1 
REMARK    1  A    between atoms: C_4  and  N_2 
REMARK    2  A    between atoms: O_8  and  C_7 
ROOT
ATOM      1  C   UNL d   1      59.102  -9.805  34.069  0.00  0.00     0.102 A 
ATOM      2  C   UNL d   1      59.820  -9.807  33.659  0.00  0.00     0.044 A 
ATOM      3  C   UNL d   1      59.825  -9.814  32.834  0.00  0.00     0.096 A 
ATOM      4  C   UNL d   1      58.394  -9.815  32.829  0.00  0.00     0.004 A 
ATOM      5  C   UNL d   1      58.389  -9.809  33.654  0.00  0.00     0.020 A 
ATOM      6  C   UNL d   1      59.111  -9.818  32.419  0.00  0.00     0.024 A 
ENDROOT
BRANCH   1   7
ATOM      7  N   UNL d   1      59.093  -9.798  34.896  0.00  0.00    -0.056 NA
ATOM      8  C   UNL d   1      59.274  -9.104  35.312  0.00  0.00     0.787 C 
ATOM      9  N   UNL d   1      59.266  -9.094  36.137  0.00  0.00     0.064 N 
ATOM     10  N   UNL d   1      59.463  -8.418  34.891  0.00  0.00     0.064 N 
ENDBRANCH   1   7
BRANCH   3  11
ATOM     11  O   UNL d   1      60.542  -9.816  32.424  0.00  0.00    -0.328 OA
ATOM     12  C   UNL d   1      60.599  -9.449  31.687  0.00  0.00     0.181 C 
ENDBRANCH   3  11
TORSDOF 2
ENDMDL
MODEL 9
REMARK VINA RESULT:      -1.8      9.588     10.194
REMARK  2 active torsions:
REMARK  status: ('A' for Active; 'I' for Inactive)
REMARK       I    between atoms: N_2  and  C_1 
REMARK    1  A    between atoms: C_4  and  N_2 
REMARK    2  A    between atoms: O_8  and  C_7 
ROOT
ATOM      1  C   UNL d   1      59.948  -9.598  33.481  0.00  0.00     0.102 A 
ATOM      2  C   UNL d   1      59.472  -9.191  34.020  0.00  0.00     0.044 A 
ATOM      3  C   UNL d   1      59.763  -9.004  34.770  0.00  0.00     0.096 A 
ATOM      4  C   UNL d   1      61.006  -9.631  34.440  0.00  0.00     0.004 A 
ATOM      5  C   UNL d   1      60.715  -9.818  33.690  0.00  0.00     0.020 A 
ATOM      6  C   UNL d   1      60.530  -9.224  34.979  0.00  0.00     0.024 A 
ENDROOT
BRANCH   1   7
ATOM      7  N   UNL d   1      59.660  -9.787  32.729  0.00  0.00    -0.056 NA
ATOM      8  C   UNL d   1      60.115  -9.631  32.054  0.00  0.00     0.787 C 
ATOM      9  N   UNL d   1      59.831  -9.818  31.302  0.00  0.00     0.064 N 
ATOM     10  N   UNL d   1      60.861  -9.284  32.141  0.00  0.00     0.064 N 
ENDBRANCH   1   7
BRANCH   3  11
ATOM     11  O   UNL d   1      59.287  -8.597  35.309  0.00  0.00    -0.328 OA
ATOM     12  C   UNL d   1      59.556  -7.897  35.653  0.00  0.00     0.181 C 
ENDBRANCH   3  11
TORSDOF 2
ENDMDL
