MODEL 1
REMARK VINA RESULT:      43.3      0.000      0.000
REMARK  3 active torsions:
REMARK  status: ('A' for Active; 'I' for Inactive)
REMARK    1  A    between atoms: C_2  and  C_1 
REMARK    2  A    between atoms: C_3  and  C_2 
REMARK    3  A    between atoms: C_8  and  C_2 
ROOT
ATOM      1  C   UNL d   1      45.841 -18.444  43.603  0.00  0.00     0.018 C 
ENDROOT
BRANCH   1   2
ATOM      2  C   UNL d   1      45.600 -17.695  43.870  0.00  0.00     0.078 A 
ATOM      3  C   UNL d   1      46.082 -17.280  44.511  0.00  0.00     0.195 A 
ATOM      4  C   UNL d   1      45.787 -16.563  44.715  0.00  0.00     0.019 A 
ATOM      5  O   UNL d   1      46.646 -17.488  44.835  0.00  0.00    -0.287 OA
ATOM      6  C   UNL d   1      45.115 -16.212  44.393  0.00  0.00     0.043 A 
ATOM      7  C   UNL d   1      44.684 -16.599  43.809  0.00  0.00     0.019 A 
ATOM      8  C   UNL d   1      44.587 -15.570  44.364  0.00  0.00     0.009 C 
ATOM      9  C   UNL d   1      45.399 -15.669  44.953  0.00  0.00     0.009 C 
ATOM     10  C   UNL d   1      44.926 -17.341  43.547  0.00  0.00     0.195 A 
ATOM     11  O   UNL d   1      44.487 -17.729  42.957  0.00  0.00    -0.287 OA
ENDBRANCH   1   2
BRANCH   1  12
ATOM     12  C   UNL d   1      46.016 -18.562  42.800  0.00  0.00     0.078 A 
ATOM     13  C   UNL d   1      45.759 -19.232  42.413  0.00  0.00     0.195 A 
ATOM     14  C   UNL d   1      45.929 -19.351  41.621  0.00  0.00     0.019 A 
ATOM     15  O   UNL d   1      45.316 -19.801  42.836  0.00  0.00    -0.287 OA
ATOM     16  C   UNL d   1      46.363 -18.794  41.205  0.00  0.00     0.043 A 
ATOM     17  C   UNL d   1      46.631 -18.107  41.586  0.00  0.00     0.019 A 
ATOM     18  C   UNL d   1      46.638 -18.717  40.428  0.00  0.00     0.009 C 
ATOM     19  C   UNL d   1      46.238 -19.344  40.599  0.00  0.00     0.009 C 
ATOM     20  C   UNL d   1      46.457 -17.989  42.389  0.00  0.00     0.195 A 
ATOM     21  O   UNL d   1      46.633 -17.565  42.590  0.00  0.00    -0.287 OA
ENDBRANCH   1  12
BRANCH   1  22
ATOM     22  C   UNL d   1      45.908 -19.066  44.127  0.00  0.00     0.030 A 
ATOM     23  S   UNL d   1      45.350 -19.588  44.445  0.00  0.00    -0.086 SA
ATOM     24  C   UNL d   1      45.741 -20.105  44.947  0.00  0.00     0.035 A 
ATOM     25  C   UNL d   1      46.534 -19.916  44.950  0.00  0.00     0.007 A 
ATOM     26  C   UNL d   1      46.636 -19.275  44.444  0.00  0.00     0.007 A 
ENDBRANCH   1  22
TORSDOF 3
ENDMDL
