MODEL 1
REMARK VINA RESULT:      -2.5      0.000      0.000
REMARK  3 active torsions:
REMARK  status: ('A' for Active; 'I' for Inactive)
REMARK    1  A    between atoms: C_11  and  C_3 
REMARK    2  A    between atoms: O_13  and  C_10 
REMARK    3  A    between atoms: C_21  and  O_13 
ROOT
ATOM      1  C   UNL d   1      30.367  17.001 -23.858  0.00  0.00     0.203 A 
ATOM      2  C   UNL d   1      31.040  17.420 -24.083  0.00  0.00     0.101 A 
ATOM      3  C   UNL d   1      29.656  17.128 -24.252  0.00  0.00     0.064 A 
ATOM      4  C   UNL d   1      31.001  17.964 -24.702  0.00  0.00     0.108 A 
ATOM      5  C   UNL d   1      31.752  17.293 -23.689  0.00  0.00     0.203 A 
ATOM      6  C   UNL d   1      29.617  17.672 -24.871  0.00  0.00     0.126 A 
ATOM      7  O   UNL d   1      30.289  18.090 -25.096  0.00  0.00    -0.305 OA
ATOM      8  C   UNL d   1      31.674  18.382 -24.927  0.00  0.00     0.050 A 
ATOM      9  C   UNL d   1      32.429  17.712 -23.914  0.00  0.00     0.067 A 
ATOM     10  C   UNL d   1      32.390  18.256 -24.533  0.00  0.00     0.105 A 
ATOM     11  O   UNL d   1      30.406  16.458 -23.239  0.00  0.00    -0.286 OA
ATOM     12  O   UNL d   1      31.791  16.750 -23.070  0.00  0.00    -0.286 OA
ENDROOT
BRANCH   3  13
ATOM     13  C   UNL d   1      28.982  16.710 -24.027  0.00  0.00     0.005 A 
ATOM     14  C   UNL d   1      28.453  17.034 -23.469  0.00  0.00     0.003 A 
ATOM     15  C   UNL d   1      27.781  16.616 -23.245  0.00  0.00     0.042 A 
ATOM     16  C   UNL d   1      27.626  15.870 -23.571  0.00  0.00     0.196 A 
ATOM     17  C   UNL d   1      28.156  15.547 -24.128  0.00  0.00     0.042 A 
ATOM     18  O   UNL d   1      26.953  15.453 -23.345  0.00  0.00    -0.287 OA
ATOM     19  C   UNL d   1      28.828  15.964 -24.353  0.00  0.00     0.003 A 
ENDBRANCH   3  13
BRANCH  10  20
ATOM     20  O   UNL d   1      33.071  18.676 -24.757  0.00  0.00    -0.307 OA
BRANCH  20  21
ATOM     21  C   UNL d   1      33.182  19.454 -24.517  0.00  0.00     0.100 C 
ATOM     22  C   UNL d   1      33.237  20.059 -25.077  0.00  0.00     0.027 C 
ATOM     23  C   UNL d   1      33.241  19.636 -23.714  0.00  0.00     0.027 C 
ENDBRANCH  20  21
ENDBRANCH  10  20
TORSDOF 3
ENDMDL
MODEL 2
REMARK VINA RESULT:      -2.2      3.111      5.752
REMARK  3 active torsions:
REMARK  status: ('A' for Active; 'I' for Inactive)
REMARK    1  A    between atoms: C_11  and  C_3 
REMARK    2  A    between atoms: O_13  and  C_10 
REMARK    3  A    between atoms: C_21  and  O_13 
ROOT
ATOM      1  C   UNL d   1      32.927  20.866 -22.139  0.00  0.00     0.203 A 
ATOM      2  C   UNL d   1      33.005  20.157 -22.551  0.00  0.00     0.101 A 
ATOM      3  C   UNL d   1      32.880  20.858 -21.317  0.00  0.00     0.064 A 
ATOM      4  C   UNL d   1      33.036  19.441 -22.141  0.00  0.00     0.108 A 
ATOM      5  C   UNL d   1      33.052  20.165 -23.373  0.00  0.00     0.203 A 
ATOM      6  C   UNL d   1      32.911  20.143 -20.907  0.00  0.00     0.126 A 
ATOM      7  O   UNL d   1      32.990  19.434 -21.319  0.00  0.00    -0.305 OA
ATOM      8  C   UNL d   1      33.115  18.733 -22.553  0.00  0.00     0.050 A 
ATOM      9  C   UNL d   1      33.130  19.454 -23.789  0.00  0.00     0.067 A 
ATOM     10  C   UNL d   1      33.162  18.738 -23.379  0.00  0.00     0.105 A 
ATOM     11  O   UNL d   1      32.895  21.580 -22.548  0.00  0.00    -0.286 OA
ATOM     12  O   UNL d   1      33.020  20.879 -23.782  0.00  0.00    -0.286 OA
ENDROOT
BRANCH   3  13
ATOM     13  C   UNL d   1      32.802  21.567 -20.904  0.00  0.00     0.005 A 
ATOM     14  C   UNL d   1      33.240  21.698 -20.207  0.00  0.00     0.003 A 
ATOM     15  C   UNL d   1      33.162  22.407 -19.795  0.00  0.00     0.042 A 
ATOM     16  C   UNL d   1      32.646  22.993 -20.072  0.00  0.00     0.196 A 
ATOM     17  C   UNL d   1      32.208  22.862 -20.769  0.00  0.00     0.042 A 
ATOM     18  O   UNL d   1      32.568  23.702 -19.659  0.00  0.00    -0.287 OA
ATOM     19  C   UNL d   1      32.286  22.154 -21.181  0.00  0.00     0.003 A 
ENDBRANCH   3  13
BRANCH  10  20
ATOM     20  O   UNL d   1      33.241  18.025 -23.799  0.00  0.00    -0.307 OA
BRANCH  20  21
ATOM     21  C   UNL d   1      32.590  17.538 -23.924  0.00  0.00     0.100 C 
ATOM     22  C   UNL d   1      32.493  16.852 -23.474  0.00  0.00     0.027 C 
ATOM     23  C   UNL d   1      32.032  17.731 -24.500  0.00  0.00     0.027 C 
ENDBRANCH  20  21
ENDBRANCH  10  20
TORSDOF 3
ENDMDL
MODEL 3
REMARK VINA RESULT:      -2.0      2.733      4.242
REMARK  3 active torsions:
REMARK  status: ('A' for Active; 'I' for Inactive)
REMARK    1  A    between atoms: C_11  and  C_3 
REMARK    2  A    between atoms: O_13  and  C_10 
REMARK    3  A    between atoms: C_21  and  O_13 
ROOT
ATOM      1  C   UNL d   1      32.929  19.074 -22.757  0.00  0.00     0.203 A 
ATOM      2  C   UNL d   1      33.006  19.818 -22.412  0.00  0.00     0.101 A 
ATOM      3  C   UNL d   1      32.777  19.011 -23.564  0.00  0.00     0.064 A 
ATOM      4  C   UNL d   1      32.932  20.498 -22.873  0.00  0.00     0.108 A 
ATOM      5  C   UNL d   1      33.159  19.880 -21.605  0.00  0.00     0.203 A 
ATOM      6  C   UNL d   1      32.702  19.691 -24.025  0.00  0.00     0.126 A 
ATOM      7  O   UNL d   1      32.779  20.434 -23.680  0.00  0.00    -0.305 OA
ATOM      8  C   UNL d   1      33.009  21.241 -22.528  0.00  0.00     0.050 A 
ATOM      9  C   UNL d   1      33.237  20.626 -21.256  0.00  0.00     0.067 A 
ATOM     10  C   UNL d   1      33.162  21.306 -21.717  0.00  0.00     0.105 A 
ATOM     11  O   UNL d   1      33.004  18.394 -22.297  0.00  0.00    -0.286 OA
ATOM     12  O   UNL d   1      33.233  19.201 -21.145  0.00  0.00    -0.286 OA
ENDROOT
BRANCH   3  13
ATOM     13  C   UNL d   1      32.699  18.267 -23.909  0.00  0.00     0.005 A 
ATOM     14  C   UNL d   1      32.076  17.761 -23.682  0.00  0.00     0.003 A 
ATOM     15  C   UNL d   1      31.999  17.018 -24.027  0.00  0.00     0.042 A 
ATOM     16  C   UNL d   1      32.541  16.769 -24.604  0.00  0.00     0.196 A 
ATOM     17  C   UNL d   1      33.163  17.275 -24.830  0.00  0.00     0.042 A 
ATOM     18  O   UNL d   1      32.463  16.025 -24.949  0.00  0.00    -0.287 OA
ATOM     19  C   UNL d   1      33.241  18.018 -24.486  0.00  0.00     0.003 A 
ENDBRANCH   3  13
BRANCH  10  20
ATOM     20  O   UNL d   1      33.241  22.055 -21.365  0.00  0.00    -0.307 OA
BRANCH  20  21
ATOM     21  C   UNL d   1      32.577  22.507 -21.188  0.00  0.00     0.100 C 
ATOM     22  C   UNL d   1      32.272  22.512 -20.420  0.00  0.00     0.027 C 
ATOM     23  C   UNL d   1      32.214  22.958 -21.775  0.00  0.00     0.027 C 
ENDBRANCH  20  21
ENDBRANCH  10  20
TORSDOF 3
ENDMDL
MODEL 4
REMARK VINA RESULT:      -1.7      3.325      5.833
REMARK  3 active torsions:
REMARK  status: ('A' for Active; 'I' for Inactive)
REMARK    1  A    between atoms: C_11  and  C_3 
REMARK    2  A    between atoms: O_13  and  C_10 
REMARK    3  A    between atoms: C_21  and  O_13 
ROOT
ATOM      1  C   UNL d   1      33.014  20.718 -21.463  0.00  0.00     0.203 A 
ATOM      2  C   UNL d   1      33.071  20.175 -22.080  0.00  0.00     0.101 A 
ATOM      3  C   UNL d   1      32.913  21.518 -21.630  0.00  0.00     0.064 A 
ATOM      4  C   UNL d   1      33.026  20.432 -22.863  0.00  0.00     0.108 A 
ATOM      5  C   UNL d   1      33.171  19.375 -21.913  0.00  0.00     0.203 A 
ATOM      6  C   UNL d   1      32.869  21.775 -22.413  0.00  0.00     0.126 A 
ATOM      7  O   UNL d   1      32.925  21.232 -23.030  0.00  0.00    -0.305 OA
ATOM      8  C   UNL d   1      33.082  19.889 -23.479  0.00  0.00     0.050 A 
ATOM      9  C   UNL d   1      33.228  18.828 -22.531  0.00  0.00     0.067 A 
ATOM     10  C   UNL d   1      33.184  19.085 -23.314  0.00  0.00     0.105 A 
ATOM     11  O   UNL d   1      33.059  20.462 -20.682  0.00  0.00    -0.286 OA
ATOM     12  O   UNL d   1      33.216  19.119 -21.131  0.00  0.00    -0.286 OA
ENDROOT
BRANCH   3  13
ATOM     13  C   UNL d   1      32.857  22.061 -21.014  0.00  0.00     0.005 A 
ATOM     14  C   UNL d   1      33.232  21.909 -20.284  0.00  0.00     0.003 A 
ATOM     15  C   UNL d   1      33.176  22.453 -19.668  0.00  0.00     0.042 A 
ATOM     16  C   UNL d   1      32.745  23.154 -19.770  0.00  0.00     0.196 A 
ATOM     17  C   UNL d   1      32.370  23.305 -20.499  0.00  0.00     0.042 A 
ATOM     18  O   UNL d   1      32.689  23.696 -19.153  0.00  0.00    -0.287 OA
ATOM     19  C   UNL d   1      32.426  22.762 -21.115  0.00  0.00     0.003 A 
ENDBRANCH   3  13
BRANCH  10  20
ATOM     20  O   UNL d   1      33.241  18.534 -23.933  0.00  0.00    -0.307 OA
BRANCH  20  21
ATOM     21  C   UNL d   1      32.594  18.072 -24.145  0.00  0.00     0.100 C 
ATOM     22  C   UNL d   1      32.025  18.368 -24.665  0.00  0.00     0.027 C 
ATOM     23  C   UNL d   1      32.512  17.310 -23.839  0.00  0.00     0.027 C 
ENDBRANCH  20  21
ENDBRANCH  10  20
TORSDOF 3
ENDMDL
MODEL 5
REMARK VINA RESULT:       0.2      4.288      6.544
REMARK  3 active torsions:
REMARK  status: ('A' for Active; 'I' for Inactive)
REMARK    1  A    between atoms: C_11  and  C_3 
REMARK    2  A    between atoms: O_13  and  C_10 
REMARK    3  A    between atoms: C_21  and  O_13 
ROOT
ATOM      1  C   UNL d   1      32.727  21.614 -20.801  0.00  0.00     0.203 A 
ATOM      2  C   UNL d   1      32.856  21.294 -21.550  0.00  0.00     0.101 A 
ATOM      3  C   UNL d   1      32.856  22.416 -20.671  0.00  0.00     0.064 A 
ATOM      4  C   UNL d   1      33.112  21.777 -22.167  0.00  0.00     0.108 A 
ATOM      5  C   UNL d   1      32.728  20.491 -21.679  0.00  0.00     0.203 A 
ATOM      6  C   UNL d   1      33.112  22.900 -21.289  0.00  0.00     0.126 A 
ATOM      7  O   UNL d   1      33.240  22.581 -22.037  0.00  0.00    -0.305 OA
ATOM      8  C   UNL d   1      33.241  21.459 -22.915  0.00  0.00     0.050 A 
ATOM      9  C   UNL d   1      32.856  20.169 -22.430  0.00  0.00     0.067 A 
ATOM     10  C   UNL d   1      33.112  20.652 -23.048  0.00  0.00     0.105 A 
ATOM     11  O   UNL d   1      32.471  21.131 -20.184  0.00  0.00    -0.286 OA
ATOM     12  O   UNL d   1      32.471  20.009 -21.062  0.00  0.00    -0.286 OA
ENDROOT
BRANCH   3  13
ATOM     13  C   UNL d   1      32.727  22.736 -19.923  0.00  0.00     0.005 A 
ATOM     14  C   UNL d   1      32.114  23.288 -19.801  0.00  0.00     0.003 A 
ATOM     15  C   UNL d   1      31.986  23.607 -19.053  0.00  0.00     0.042 A 
ATOM     16  C   UNL d   1      32.466  23.381 -18.417  0.00  0.00     0.196 A 
ATOM     17  C   UNL d   1      33.079  22.829 -18.539  0.00  0.00     0.042 A 
ATOM     18  O   UNL d   1      32.337  23.701 -17.669  0.00  0.00    -0.287 OA
ATOM     19  C   UNL d   1      33.208  22.510 -19.286  0.00  0.00     0.003 A 
ENDBRANCH   3  13
BRANCH  10  20
ATOM     20  O   UNL d   1      33.241  20.326 -23.801  0.00  0.00    -0.307 OA
BRANCH  20  21
ATOM     21  C   UNL d   1      32.856  20.630 -24.461  0.00  0.00     0.100 C 
ATOM     22  C   UNL d   1      33.192  21.253 -24.888  0.00  0.00     0.027 C 
ATOM     23  C   UNL d   1      32.132  20.314 -24.701  0.00  0.00     0.027 C 
ENDBRANCH  20  21
ENDBRANCH  10  20
TORSDOF 3
ENDMDL
