MODEL 1
REMARK VINA RESULT:      -4.2      0.000      0.000
REMARK  4 active torsions:
REMARK  status: ('A' for Active; 'I' for Inactive)
REMARK    1  A    between atoms: C_6  and  C_2 
REMARK    2  A    between atoms: C_8  and  C_6 
REMARK    3  A    between atoms: C_7  and  C_9 
REMARK    4  A    between atoms: C_9  and  C_8 
ROOT
ATOM      1  C   UNL d   1      57.861   0.011  30.595  0.00  0.00     0.006 C 
ENDROOT
BRANCH   1   2
ATOM      2  C   UNL d   1      58.178  -0.365  29.938  0.00  0.00     0.039 A 
ATOM      3  C   UNL d   1      58.350  -0.097  29.178  0.00  0.00     0.103 A 
ATOM      4  N   UNL d   1      58.662  -0.727  28.751  0.00  0.00    -0.165 NA
ATOM      5  C   UNL d   1      58.212   0.682  28.939  0.00  0.00     0.022 C 
ATOM      6  N   UNL d   1      58.683  -1.379  29.243  0.00  0.00    -0.225 N 
ATOM      7  C   UNL d   1      58.385  -1.159  29.976  0.00  0.00     0.102 A 
ATOM      8  C   UNL d   1      58.959  -2.127  29.030  0.00  0.00     0.121 C 
ENDBRANCH   1   2
BRANCH   1   9
ATOM      9  C   UNL d   1      57.390  -0.410  31.125  0.00  0.00     0.043 C 
BRANCH   9  10
ATOM     10  C   UNL d   1      57.131  -0.048  31.828  0.00  0.00     0.202 C 
ATOM     11  O   UNL d   1      57.445   0.677  32.052  0.00  0.00    -0.286 OA
BRANCH  10  12
ATOM     12  C   UNL d   1      56.556  -0.422  32.299  0.00  0.00     0.068 A 
ATOM     13  S   UNL d   1      56.250  -1.132  32.579  0.00  0.00    -0.083 SA
ATOM     14  C   UNL d   1      55.610  -0.958  33.070  0.00  0.00     0.035 A 
ATOM     15  C   UNL d   1      55.520  -0.137  33.092  0.00  0.00     0.008 A 
ATOM     16  C   UNL d   1      56.108   0.196  32.613  0.00  0.00     0.010 A 
ENDBRANCH  10  12
ENDBRANCH   9  10
ENDBRANCH   1   9
TORSDOF 4
ENDMDL
MODEL 2
REMARK VINA RESULT:      -4.1      2.555      4.365
REMARK  4 active torsions:
REMARK  status: ('A' for Active; 'I' for Inactive)
REMARK    1  A    between atoms: C_6  and  C_2 
REMARK    2  A    between atoms: C_8  and  C_6 
REMARK    3  A    between atoms: C_7  and  C_9 
REMARK    4  A    between atoms: C_9  and  C_8 
ROOT
ATOM      1  C   UNL d   1      56.541  -0.399  32.779  0.00  0.00     0.006 C 
ENDROOT
BRANCH   1   2
ATOM      2  C   UNL d   1      56.093  -0.010  33.346  0.00  0.00     0.039 A 
ATOM      3  C   UNL d   1      56.304   0.417  34.018  0.00  0.00     0.103 A 
ATOM      4  N   UNL d   1      55.613   0.682  34.378  0.00  0.00    -0.165 NA
ATOM      5  C   UNL d   1      57.091   0.529  34.245  0.00  0.00     0.022 C 
ATOM      6  N   UNL d   1      54.981   0.420  33.932  0.00  0.00    -0.225 N 
ATOM      7  C   UNL d   1      55.274  -0.007  33.295  0.00  0.00     0.102 A 
ATOM      8  C   UNL d   1      54.187   0.566  34.102  0.00  0.00     0.121 C 
ENDBRANCH   1   2
BRANCH   1   9
ATOM      9  C   UNL d   1      56.683  -0.042  32.049  0.00  0.00     0.043 C 
BRANCH   9  10
ATOM     10  C   UNL d   1      57.076  -0.466  31.449  0.00  0.00     0.202 C 
ATOM     11  O   UNL d   1      56.982  -1.280  31.397  0.00  0.00    -0.286 OA
BRANCH  10  12
ATOM     12  C   UNL d   1      57.560  -0.062  30.907  0.00  0.00     0.068 A 
ATOM     13  S   UNL d   1      57.834   0.664  30.634  0.00  0.00    -0.083 SA
ATOM     14  C   UNL d   1      58.356   0.522  30.011  0.00  0.00     0.035 A 
ATOM     15  C   UNL d   1      58.405  -0.294  29.899  0.00  0.00     0.008 A 
ATOM     16  C   UNL d   1      57.911  -0.658  30.456  0.00  0.00     0.010 A 
ENDBRANCH  10  12
ENDBRANCH   9  10
ENDBRANCH   1   9
TORSDOF 4
ENDMDL
MODEL 3
REMARK VINA RESULT:      -4.0      1.273      1.483
REMARK  4 active torsions:
REMARK  status: ('A' for Active; 'I' for Inactive)
REMARK    1  A    between atoms: C_6  and  C_2 
REMARK    2  A    between atoms: C_8  and  C_6 
REMARK    3  A    between atoms: C_7  and  C_9 
REMARK    4  A    between atoms: C_9  and  C_8 
ROOT
ATOM      1  C   UNL d   1      57.902  -0.349  30.439  0.00  0.00     0.006 C 
ENDROOT
BRANCH   1   2
ATOM      2  C   UNL d   1      58.557   0.030  30.121  0.00  0.00     0.039 A 
ATOM      3  C   UNL d   1      58.684   0.396  29.394  0.00  0.00     0.103 A 
ATOM      4  N   UNL d   1      59.455   0.682  29.385  0.00  0.00    -0.165 NA
ATOM      5  C   UNL d   1      58.100   0.439  28.810  0.00  0.00     0.022 C 
ATOM      6  N   UNL d   1      59.801   0.494  30.101  0.00  0.00    -0.225 N 
ATOM      7  C   UNL d   1      59.250   0.092  30.557  0.00  0.00     0.102 A 
ATOM      8  C   UNL d   1      60.576   0.682  30.318  0.00  0.00     0.121 C 
ENDBRANCH   1   2
BRANCH   1   9
ATOM      9  C   UNL d   1      57.564  -0.074  31.139  0.00  0.00     0.043 C 
BRANCH   9  10
ATOM     10  C   UNL d   1      57.014  -0.546  31.549  0.00  0.00     0.202 C 
ATOM     11  O   UNL d   1      56.910  -1.331  31.331  0.00  0.00    -0.286 OA
BRANCH  10  12
ATOM     12  C   UNL d   1      56.575  -0.220  32.176  0.00  0.00     0.068 A 
ATOM     13  S   UNL d   1      56.335   0.461  32.569  0.00  0.00    -0.083 SA
ATOM     14  C   UNL d   1      55.853   0.236  33.199  0.00  0.00     0.035 A 
ATOM     15  C   UNL d   1      55.794  -0.588  33.195  0.00  0.00     0.008 A 
ATOM     16  C   UNL d   1      56.243  -0.872  32.559  0.00  0.00     0.010 A 
ENDBRANCH  10  12
ENDBRANCH   9  10
ENDBRANCH   1   9
TORSDOF 4
ENDMDL
MODEL 4
REMARK VINA RESULT:      -3.9      2.093      3.871
REMARK  4 active torsions:
REMARK  status: ('A' for Active; 'I' for Inactive)
REMARK    1  A    between atoms: C_6  and  C_2 
REMARK    2  A    between atoms: C_8  and  C_6 
REMARK    3  A    between atoms: C_7  and  C_9 
REMARK    4  A    between atoms: C_9  and  C_8 
ROOT
ATOM      1  C   UNL d   1      57.310   0.142  31.239  0.00  0.00     0.006 C 
ENDROOT
BRANCH   1   2
ATOM      2  C   UNL d   1      57.003  -0.158  31.938  0.00  0.00     0.039 A 
ATOM      3  C   UNL d   1      57.113   0.058  32.726  0.00  0.00     0.103 A 
ATOM      4  N   UNL d   1      56.659  -0.445  33.192  0.00  0.00    -0.165 NA
ATOM      5  C   UNL d   1      57.606   0.682  32.951  0.00  0.00     0.022 C 
ATOM      6  N   UNL d   1      56.272  -0.967  32.697  0.00  0.00    -0.225 N 
ATOM      7  C   UNL d   1      56.483  -0.792  31.923  0.00  0.00     0.102 A 
ATOM      8  C   UNL d   1      55.759  -1.565  32.944  0.00  0.00     0.121 C 
ENDBRANCH   1   2
BRANCH   1   9
ATOM      9  C   UNL d   1      57.757  -0.343  30.742  0.00  0.00     0.043 C 
BRANCH   9  10
ATOM     10  C   UNL d   1      58.007  -0.059  30.001  0.00  0.00     0.202 C 
ATOM     11  O   UNL d   1      57.688   0.635  29.701  0.00  0.00    -0.286 OA
BRANCH  10  12
ATOM     12  C   UNL d   1      58.579  -0.481  29.568  0.00  0.00     0.068 A 
ATOM     13  S   UNL d   1      58.881  -1.217  29.358  0.00  0.00    -0.083 SA
ATOM     14  C   UNL d   1      59.521  -1.095  28.852  0.00  0.00     0.035 A 
ATOM     15  C   UNL d   1      59.615  -0.282  28.749  0.00  0.00     0.008 A 
ATOM     16  C   UNL d   1      59.029   0.100  29.194  0.00  0.00     0.010 A 
ENDBRANCH  10  12
ENDBRANCH   9  10
ENDBRANCH   1   9
TORSDOF 4
ENDMDL
MODEL 5
REMARK VINA RESULT:      -1.9      1.475      2.218
REMARK  4 active torsions:
REMARK  status: ('A' for Active; 'I' for Inactive)
REMARK    1  A    between atoms: C_6  and  C_2 
REMARK    2  A    between atoms: C_8  and  C_6 
REMARK    3  A    between atoms: C_7  and  C_9 
REMARK    4  A    between atoms: C_9  and  C_8 
ROOT
ATOM      1  C   UNL d   1      57.230   0.256  32.322  0.00  0.00     0.006 C 
ENDROOT
BRANCH   1   2
ATOM      2  C   UNL d   1      57.362   0.072  31.533  0.00  0.00     0.039 A 
ATOM      3  C   UNL d   1      57.262  -0.625  31.105  0.00  0.00     0.103 A 
ATOM      4  N   UNL d   1      57.486  -0.479  30.327  0.00  0.00    -0.165 NA
ATOM      5  C   UNL d   1      56.981  -1.321  31.449  0.00  0.00     0.022 C 
ATOM      6  N   UNL d   1      57.723   0.302  30.275  0.00  0.00    -0.225 N 
ATOM      7  C   UNL d   1      57.647   0.644  31.018  0.00  0.00     0.102 A 
ATOM      8  C   UNL d   1      57.990   0.673  29.588  0.00  0.00     0.121 C 
ENDBRANCH   1   2
BRANCH   1   9
ATOM      9  C   UNL d   1      56.468   0.212  32.635  0.00  0.00     0.043 C 
BRANCH   9  10
ATOM     10  C   UNL d   1      56.339   0.380  33.440  0.00  0.00     0.202 C 
ATOM     11  O   UNL d   1      56.974   0.572  33.922  0.00  0.00    -0.286 OA
BRANCH  10  12
ATOM     12  C   UNL d   1      55.568   0.350  33.751  0.00  0.00     0.068 A 
ATOM     13  S   UNL d   1      54.783   0.139  33.628  0.00  0.00    -0.083 SA
ATOM     14  C   UNL d   1      54.357   0.333  34.307  0.00  0.00     0.035 A 
ATOM     15  C   UNL d   1      54.881   0.666  34.852  0.00  0.00     0.008 A 
ATOM     16  C   UNL d   1      55.634   0.677  34.506  0.00  0.00     0.010 A 
ENDBRANCH  10  12
ENDBRANCH   9  10
ENDBRANCH   1   9
TORSDOF 4
ENDMDL
MODEL 6
REMARK VINA RESULT:      -1.9      2.137      4.026
REMARK  4 active torsions:
REMARK  status: ('A' for Active; 'I' for Inactive)
REMARK    1  A    between atoms: C_6  and  C_2 
REMARK    2  A    between atoms: C_8  and  C_6 
REMARK    3  A    between atoms: C_7  and  C_9 
REMARK    4  A    between atoms: C_9  and  C_8 
ROOT
ATOM      1  C   UNL d   1      58.576  -0.142  30.017  0.00  0.00     0.006 C 
ENDROOT
BRANCH   1   2
ATOM      2  C   UNL d   1      58.279   0.110  30.739  0.00  0.00     0.039 A 
ATOM      3  C   UNL d   1      58.634   0.483  31.382  0.00  0.00     0.103 A 
ATOM      4  N   UNL d   1      58.057   0.602  31.957  0.00  0.00    -0.165 NA
ATOM      5  C   UNL d   1      59.436   0.682  31.394  0.00  0.00     0.022 C 
ATOM      6  N   UNL d   1      57.352   0.304  31.672  0.00  0.00    -0.225 N 
ATOM      7  C   UNL d   1      57.485  -0.000  30.921  0.00  0.00     0.102 A 
ATOM      8  C   UNL d   1      56.633   0.312  32.078  0.00  0.00     0.121 C 
ENDBRANCH   1   2
BRANCH   1   9
ATOM      9  C   UNL d   1      58.591  -0.946  29.834  0.00  0.00     0.043 C 
BRANCH   9  10
ATOM     10  C   UNL d   1      58.946  -1.204  29.127  0.00  0.00     0.202 C 
ATOM     11  O   UNL d   1      59.021  -0.685  28.496  0.00  0.00    -0.286 OA
BRANCH  10  12
ATOM     12  C   UNL d   1      59.222  -1.987  29.064  0.00  0.00     0.068 A 
ATOM     13  S   UNL d   1      59.130  -2.771  29.293  0.00  0.00    -0.083 SA
ATOM     14  C   UNL d   1      59.713  -3.217  28.918  0.00  0.00     0.035 A 
ATOM     15  C   UNL d   1      60.168  -2.706  28.455  0.00  0.00     0.008 A 
ATOM     16  C   UNL d   1      59.862  -1.941  28.546  0.00  0.00     0.010 A 
ENDBRANCH  10  12
ENDBRANCH   9  10
ENDBRANCH   1   9
TORSDOF 4
ENDMDL
