MODEL 1
REMARK VINA RESULT:      61.6      0.000      0.000
REMARK  7 active torsions:
REMARK  status: ('A' for Active; 'I' for Inactive)
REMARK    1  A    between atoms: C_9  and  N_1 
REMARK    2  A    between atoms: O_18  and  C_6 
REMARK    3  A    between atoms: C_7  and  C_8 
REMARK    4  A    between atoms: C_8  and  O_12 
REMARK    5  A    between atoms: O_12  and  C_9 
REMARK    6  A    between atoms: O_20  and  C_10 
REMARK    7  A    between atoms: O_19  and  C_11 
ROOT
ATOM      1  C   UNL d   1     -49.310  26.973  33.748  0.00  0.00     0.302 C 
ATOM      2  O   UNL d   1     -48.612  26.770  33.353  0.00  0.00    -0.259 OA
ENDROOT
BRANCH   1   3
ATOM      3  C   UNL d   1     -49.994  26.523  33.638  0.00  0.00     0.068 A 
ATOM      4  C   UNL d   1     -50.746  26.904  33.636  0.00  0.00     0.032 A 
ATOM      5  C   UNL d   1     -51.411  26.443  33.525  0.00  0.00     0.118 A 
ATOM      6  C   UNL d   1     -51.361  25.629  33.417  0.00  0.00     0.138 A 
ATOM      7  C   UNL d   1     -50.619  25.269  33.421  0.00  0.00     0.118 A 
ATOM      8  C   UNL d   1     -49.940  25.717  33.531  0.00  0.00     0.032 A 
BRANCH   5   9
ATOM      9  O   UNL d   1     -52.166  26.812  33.522  0.00  0.00    -0.326 OA
ATOM     10  C   UNL d   1     -52.502  27.059  34.236  0.00  0.00     0.181 C 
ENDBRANCH   5   9
BRANCH   6  11
ATOM     11  O   UNL d   1     -52.053  25.180  33.306  0.00  0.00    -0.324 OA
ATOM     12  C   UNL d   1     -52.189  24.492  33.732  0.00  0.00     0.182 C 
ENDBRANCH   6  11
BRANCH   7  13
ATOM     13  O   UNL d   1     -50.564  24.442  33.311  0.00  0.00    -0.326 OA
ATOM     14  C   UNL d   1     -49.851  24.055  33.406  0.00  0.00     0.181 C 
ENDBRANCH   7  13
ENDBRANCH   1   3
BRANCH   1  15
ATOM     15  O   UNL d   1     -49.324  27.625  34.254  0.00  0.00    -0.251 OA
BRANCH  15  16
ATOM     16  C   UNL d   1     -48.621  27.900  34.590  0.00  0.00     0.233 C 
BRANCH  16  17
ATOM     17  N   UNL d   1     -48.488  28.715  34.663  0.00  0.00    -0.150 N 
ATOM     18  N   UNL d   1     -48.982  29.250  34.271  0.00  0.00    -0.055 NA
ATOM     19  N   UNL d   1     -48.848  30.060  34.344  0.00  0.00    -0.130 NA
ATOM     20  C   UNL d   1     -48.228  30.336  34.803  0.00  0.00     0.109 A 
ATOM     21  C   UNL d   1     -47.734  29.800  35.195  0.00  0.00     0.077 A 
ATOM     22  C   UNL d   1     -48.094  31.144  34.876  0.00  0.00     0.021 A 
ATOM     23  C   UNL d   1     -47.855  28.984  35.131  0.00  0.00     0.285 A 
ATOM     24  C   UNL d   1     -47.109  30.076  35.658  0.00  0.00     0.006 A 
ATOM     25  O   UNL d   1     -47.366  28.453  35.519  0.00  0.00    -0.265 OA
ATOM     26  C   UNL d   1     -46.975  30.885  35.730  0.00  0.00     0.000 A 
ATOM     27  C   UNL d   1     -47.471  31.423  35.337  0.00  0.00     0.002 A 
ENDBRANCH  16  17
ENDBRANCH  15  16
ENDBRANCH   1  15
TORSDOF 7
ENDMDL
MODEL 2
REMARK VINA RESULT:      63.9      1.381      5.557
REMARK  7 active torsions:
REMARK  status: ('A' for Active; 'I' for Inactive)
REMARK    1  A    between atoms: C_9  and  N_1 
REMARK    2  A    between atoms: O_18  and  C_6 
REMARK    3  A    between atoms: C_7  and  C_8 
REMARK    4  A    between atoms: C_8  and  O_12 
REMARK    5  A    between atoms: O_12  and  C_9 
REMARK    6  A    between atoms: O_20  and  C_10 
REMARK    7  A    between atoms: O_19  and  C_11 
ROOT
ATOM      1  C   UNL d   1     -47.768  28.638  34.806  0.00  0.00     0.302 C 
ATOM      2  O   UNL d   1     -47.107  28.168  34.646  0.00  0.00    -0.259 OA
ENDROOT
BRANCH   1   3
ATOM      3  C   UNL d   1     -47.671  29.428  35.026  0.00  0.00     0.068 A 
ATOM      4  C   UNL d   1     -47.304  29.613  35.762  0.00  0.00     0.032 A 
ATOM      5  C   UNL d   1     -47.217  30.400  35.963  0.00  0.00     0.118 A 
ATOM      6  C   UNL d   1     -47.476  31.004  35.468  0.00  0.00     0.138 A 
ATOM      7  C   UNL d   1     -47.833  30.811  34.751  0.00  0.00     0.118 A 
ATOM      8  C   UNL d   1     -47.929  30.024  34.534  0.00  0.00     0.032 A 
BRANCH   5   9
ATOM      9  O   UNL d   1     -46.852  30.596  36.694  0.00  0.00    -0.326 OA
ATOM     10  C   UNL d   1     -46.616  29.991  37.207  0.00  0.00     0.181 C 
ENDBRANCH   5   9
BRANCH   6  11
ATOM     11  O   UNL d   1     -47.376  31.799  35.694  0.00  0.00    -0.324 OA
ATOM     12  C   UNL d   1     -47.270  32.393  35.137  0.00  0.00     0.182 C 
ENDBRANCH   6  11
BRANCH   7  13
ATOM     13  O   UNL d   1     -48.098  31.422  34.246  0.00  0.00    -0.326 OA
ATOM     14  C   UNL d   1     -48.555  31.253  33.591  0.00  0.00     0.181 C 
ENDBRANCH   7  13
ENDBRANCH   1   3
BRANCH   1  15
ATOM     15  O   UNL d   1     -48.527  28.319  34.746  0.00  0.00    -0.251 OA
BRANCH  15  16
ATOM     16  C   UNL d   1     -48.653  27.641  34.291  0.00  0.00     0.233 C 
BRANCH  16  17
ATOM     17  N   UNL d   1     -49.424  27.412  34.093  0.00  0.00    -0.150 N 
ATOM     18  N   UNL d   1     -50.033  27.972  34.090  0.00  0.00    -0.055 NA
ATOM     19  N   UNL d   1     -50.799  27.742  33.893  0.00  0.00    -0.130 NA
ATOM     20  C   UNL d   1     -50.960  26.962  33.701  0.00  0.00     0.109 A 
ATOM     21  C   UNL d   1     -50.351  26.403  33.704  0.00  0.00     0.077 A 
ATOM     22  C   UNL d   1     -51.725  26.733  33.504  0.00  0.00     0.021 A 
ATOM     23  C   UNL d   1     -49.576  26.617  33.900  0.00  0.00     0.285 A 
ATOM     24  C   UNL d   1     -50.511  25.616  33.510  0.00  0.00     0.006 A 
ATOM     25  O   UNL d   1     -48.973  26.063  33.903  0.00  0.00    -0.265 OA
ATOM     26  C   UNL d   1     -51.277  25.388  33.314  0.00  0.00     0.000 A 
ATOM     27  C   UNL d   1     -51.889  25.950  33.311  0.00  0.00     0.002 A 
ENDBRANCH  16  17
ENDBRANCH  15  16
ENDBRANCH   1  15
TORSDOF 7
ENDMDL
MODEL 3
REMARK VINA RESULT:      64.3      1.479      5.572
REMARK  7 active torsions:
REMARK  status: ('A' for Active; 'I' for Inactive)
REMARK    1  A    between atoms: C_9  and  N_1 
REMARK    2  A    between atoms: O_18  and  C_6 
REMARK    3  A    between atoms: C_7  and  C_8 
REMARK    4  A    between atoms: C_8  and  O_12 
REMARK    5  A    between atoms: O_12  and  C_9 
REMARK    6  A    between atoms: O_20  and  C_10 
REMARK    7  A    between atoms: O_19  and  C_11 
ROOT
ATOM      1  C   UNL d   1     -48.207  28.869  34.799  0.00  0.00     0.302 C 
ATOM      2  O   UNL d   1     -47.729  28.310  35.178  0.00  0.00    -0.259 OA
ENDROOT
BRANCH   1   3
ATOM      3  C   UNL d   1     -48.073  29.676  34.916  0.00  0.00     0.068 A 
ATOM      4  C   UNL d   1     -48.405  30.234  34.380  0.00  0.00     0.032 A 
ATOM      5  C   UNL d   1     -48.262  31.028  34.511  0.00  0.00     0.118 A 
ATOM      6  C   UNL d   1     -47.807  31.286  35.146  0.00  0.00     0.138 A 
ATOM      7  C   UNL d   1     -47.488  30.730  35.664  0.00  0.00     0.118 A 
ATOM      8  C   UNL d   1     -47.622  29.928  35.547  0.00  0.00     0.032 A 
BRANCH   5   9
ATOM      9  O   UNL d   1     -48.588  31.594  33.982  0.00  0.00    -0.326 OA
ATOM     10  C   UNL d   1     -48.088  32.133  33.604  0.00  0.00     0.181 C 
ENDBRANCH   5   9
BRANCH   6  11
ATOM     11  O   UNL d   1     -47.674  32.100  35.260  0.00  0.00    -0.324 OA
ATOM     12  C   UNL d   1     -46.926  32.392  35.427  0.00  0.00     0.182 C 
ENDBRANCH   6  11
BRANCH   7  13
ATOM     13  O   UNL d   1     -47.026  30.988  36.311  0.00  0.00    -0.326 OA
ATOM     14  C   UNL d   1     -46.783  30.462  36.886  0.00  0.00     0.181 C 
ENDBRANCH   7  13
ENDBRANCH   1   3
BRANCH   1  15
ATOM     15  O   UNL d   1     -48.820  28.622  34.304  0.00  0.00    -0.251 OA
BRANCH  15  16
ATOM     16  C   UNL d   1     -48.915  27.819  34.138  0.00  0.00     0.233 C 
BRANCH  16  17
ATOM     17  N   UNL d   1     -49.668  27.517  33.969  0.00  0.00    -0.150 N 
ATOM     18  N   UNL d   1     -50.323  28.022  33.960  0.00  0.00    -0.055 NA
ATOM     19  N   UNL d   1     -51.071  27.720  33.792  0.00  0.00    -0.130 NA
ATOM     20  C   UNL d   1     -51.168  26.922  33.633  0.00  0.00     0.109 A 
ATOM     21  C   UNL d   1     -50.513  26.417  33.642  0.00  0.00     0.077 A 
ATOM     22  C   UNL d   1     -51.915  26.621  33.465  0.00  0.00     0.021 A 
ATOM     23  C   UNL d   1     -49.755  26.705  33.809  0.00  0.00     0.285 A 
ATOM     24  C   UNL d   1     -50.609  25.613  33.482  0.00  0.00     0.006 A 
ATOM     25  O   UNL d   1     -49.107  26.205  33.817  0.00  0.00    -0.265 OA
ATOM     26  C   UNL d   1     -51.356  25.312  33.314  0.00  0.00     0.000 A 
ATOM     27  C   UNL d   1     -52.014  25.820  33.306  0.00  0.00     0.002 A 
ENDBRANCH  16  17
ENDBRANCH  15  16
ENDBRANCH   1  15
TORSDOF 7
ENDMDL
MODEL 4
REMARK VINA RESULT:      64.4      0.727      1.773
REMARK  7 active torsions:
REMARK  status: ('A' for Active; 'I' for Inactive)
REMARK    1  A    between atoms: C_9  and  N_1 
REMARK    2  A    between atoms: O_18  and  C_6 
REMARK    3  A    between atoms: C_7  and  C_8 
REMARK    4  A    between atoms: C_8  and  O_12 
REMARK    5  A    between atoms: O_12  and  C_9 
REMARK    6  A    between atoms: O_20  and  C_10 
REMARK    7  A    between atoms: O_19  and  C_11 
ROOT
ATOM      1  C   UNL d   1     -49.081  26.868  33.700  0.00  0.00     0.302 C 
ATOM      2  O   UNL d   1     -48.391  26.412  33.691  0.00  0.00    -0.259 OA
ENDROOT
BRANCH   1   3
ATOM      3  C   UNL d   1     -49.817  26.506  33.603  0.00  0.00     0.068 A 
ATOM      4  C   UNL d   1     -49.871  25.666  33.600  0.00  0.00     0.032 A 
ATOM      5  C   UNL d   1     -50.607  25.326  33.502  0.00  0.00     0.118 A 
ATOM      6  C   UNL d   1     -51.285  25.783  33.408  0.00  0.00     0.138 A 
ATOM      7  C   UNL d   1     -51.220  26.605  33.413  0.00  0.00     0.118 A 
ATOM      8  C   UNL d   1     -50.487  26.962  33.510  0.00  0.00     0.032 A 
BRANCH   5   9
ATOM      9  O   UNL d   1     -50.673  24.488  33.498  0.00  0.00    -0.326 OA
ATOM     10  C   UNL d   1     -49.994  24.027  33.395  0.00  0.00     0.181 C 
ENDBRANCH   5   9
BRANCH   6  11
ATOM     11  O   UNL d   1     -52.026  25.415  33.310  0.00  0.00    -0.324 OA
ATOM     12  C   UNL d   1     -52.120  24.607  33.421  0.00  0.00     0.182 C 
ENDBRANCH   6  11
BRANCH   7  13
ATOM     13  O   UNL d   1     -51.906  27.072  33.318  0.00  0.00    -0.326 OA
ATOM     14  C   UNL d   1     -51.955  27.814  33.655  0.00  0.00     0.181 C 
ENDBRANCH   7  13
ENDBRANCH   1   3
BRANCH   1  15
ATOM     15  O   UNL d   1     -49.035  27.685  33.807  0.00  0.00    -0.251 OA
BRANCH  15  16
ATOM     16  C   UNL d   1     -49.083  28.003  34.568  0.00  0.00     0.233 C 
BRANCH  16  17
ATOM     17  N   UNL d   1     -48.544  28.585  34.808  0.00  0.00    -0.150 N 
ATOM     18  N   UNL d   1     -47.888  28.377  35.266  0.00  0.00    -0.055 NA
ATOM     19  N   UNL d   1     -47.354  28.957  35.503  0.00  0.00    -0.130 NA
ATOM     20  C   UNL d   1     -47.471  29.739  35.287  0.00  0.00     0.109 A 
ATOM     21  C   UNL d   1     -48.127  29.947  34.830  0.00  0.00     0.077 A 
ATOM     22  C   UNL d   1     -46.937  30.319  35.525  0.00  0.00     0.021 A 
ATOM     23  C   UNL d   1     -48.673  29.376  34.583  0.00  0.00     0.285 A 
ATOM     24  C   UNL d   1     -48.247  30.734  34.611  0.00  0.00     0.006 A 
ATOM     25  O   UNL d   1     -49.323  29.582  34.129  0.00  0.00    -0.265 OA
ATOM     26  C   UNL d   1     -47.712  31.314  34.849  0.00  0.00     0.000 A 
ATOM     27  C   UNL d   1     -47.052  31.104  35.309  0.00  0.00     0.002 A 
ENDBRANCH  16  17
ENDBRANCH  15  16
ENDBRANCH   1  15
TORSDOF 7
ENDMDL
