MODEL 1
REMARK VINA RESULT:      -2.5      0.000      0.000
REMARK  3 active torsions:
REMARK  status: ('A' for Active; 'I' for Inactive)
REMARK    1  A    between atoms: N_7  and  C_2 
REMARK    2  A    between atoms: C_10  and  N_7 
REMARK    3  A    between atoms: C_12  and  C_10 
ROOT
ATOM      1  C   UNL d   1      33.238  20.067 -24.036  0.00  0.00     0.184 A 
ATOM      2  C   UNL d   1      33.236  19.624 -23.369  0.00  0.00     0.108 A 
ATOM      3  C   UNL d   1      33.239  20.910 -23.982  0.00  0.00     0.321 A 
ATOM      4  O   UNL d   1      33.239  21.272 -23.264  0.00  0.00    -0.272 OA
ATOM      5  C   UNL d   1      33.237  19.990 -22.627  0.00  0.00     0.042 A 
ATOM      6  C   UNL d   1      33.238  20.820 -22.574  0.00  0.00     0.105 A 
ATOM      7  O   UNL d   1      33.241  21.382 -24.681  0.00  0.00    -0.257 OA
ATOM      8  N   UNL d   1      33.237  19.676 -24.790  0.00  0.00    -0.141 N 
ATOM      9  C   UNL d   1      33.235  19.533 -21.950  0.00  0.00     0.004 A 
ATOM     10  C   UNL d   1      33.238  21.181 -21.845  0.00  0.00     0.025 A 
ATOM     11  C   UNL d   1      33.235  19.886 -21.210  0.00  0.00     0.000 A 
ATOM     12  C   UNL d   1      33.237  20.729 -21.156  0.00  0.00     0.002 A 
ENDROOT
BRANCH   2  13
ATOM     13  N   UNL d   1      33.235  18.799 -23.422  0.00  0.00    -0.242 NA
BRANCH  13  14
ATOM     14  C   UNL d   1      32.654  18.444 -23.867  0.00  0.00     0.099 C 
BRANCH  14  15
ATOM     15  C   UNL d   1      32.585  17.603 -23.834  0.00  0.00     0.019 A 
ATOM     16  C   UNL d   1      33.239  17.149 -23.967  0.00  0.00     0.002 A 
ATOM     17  C   UNL d   1      33.171  16.326 -23.935  0.00  0.00     0.000 A 
ATOM     18  C   UNL d   1      32.451  15.977 -23.770  0.00  0.00     0.000 A 
ATOM     19  C   UNL d   1      31.784  16.452 -23.635  0.00  0.00     0.000 A 
ATOM     20  C   UNL d   1      31.854  17.274 -23.668  0.00  0.00     0.002 A 
ENDBRANCH  14  15
ENDBRANCH  13  14
ENDBRANCH   2  13
TORSDOF 3
ENDMDL
MODEL 2
REMARK VINA RESULT:      -2.4      3.449      4.640
REMARK  3 active torsions:
REMARK  status: ('A' for Active; 'I' for Inactive)
REMARK    1  A    between atoms: N_7  and  C_2 
REMARK    2  A    between atoms: C_10  and  N_7 
REMARK    3  A    between atoms: C_12  and  C_10 
ROOT
ATOM      1  C   UNL d   1      29.508  17.667 -24.627  0.00  0.00     0.184 A 
ATOM      2  C   UNL d   1      29.682  16.961 -24.293  0.00  0.00     0.108 A 
ATOM      3  C   UNL d   1      28.746  18.013 -24.510  0.00  0.00     0.321 A 
ATOM      4  O   UNL d   1      28.193  17.637 -24.064  0.00  0.00    -0.272 OA
ATOM      5  C   UNL d   1      29.117  16.569 -23.832  0.00  0.00     0.042 A 
ATOM      6  C   UNL d   1      28.367  16.910 -23.717  0.00  0.00     0.105 A 
ATOM      7  O   UNL d   1      28.557  18.757 -24.860  0.00  0.00    -0.257 OA
ATOM      8  N   UNL d   1      30.098  18.056 -25.097  0.00  0.00    -0.141 N 
ATOM      9  C   UNL d   1      29.300  15.849 -23.493  0.00  0.00     0.004 A 
ATOM     10  C   UNL d   1      27.810  16.525 -23.264  0.00  0.00     0.025 A 
ATOM     11  C   UNL d   1      28.747  15.453 -23.035  0.00  0.00     0.000 A 
ATOM     12  C   UNL d   1      27.985  15.799 -22.918  0.00  0.00     0.002 A 
ENDROOT
BRANCH   2  13
ATOM     13  N   UNL d   1      30.427  16.622 -24.407  0.00  0.00    -0.242 NA
BRANCH  13  14
ATOM     14  C   UNL d   1      31.083  17.066 -24.221  0.00  0.00     0.099 C 
BRANCH  14  15
ATOM     15  C   UNL d   1      31.819  16.665 -24.116  0.00  0.00     0.019 A 
ATOM     16  C   UNL d   1      32.196  16.715 -23.404  0.00  0.00     0.002 A 
ATOM     17  C   UNL d   1      32.916  16.323 -23.302  0.00  0.00     0.000 A 
ATOM     18  C   UNL d   1      33.241  15.890 -23.913  0.00  0.00     0.000 A 
ATOM     19  C   UNL d   1      32.846  15.844 -24.642  0.00  0.00     0.000 A 
ATOM     20  C   UNL d   1      32.126  16.237 -24.742  0.00  0.00     0.002 A 
ENDBRANCH  14  15
ENDBRANCH  13  14
ENDBRANCH   2  13
TORSDOF 3
ENDMDL
MODEL 3
REMARK VINA RESULT:      -2.4      2.145      4.551
REMARK  3 active torsions:
REMARK  status: ('A' for Active; 'I' for Inactive)
REMARK    1  A    between atoms: N_7  and  C_2 
REMARK    2  A    between atoms: C_10  and  N_7 
REMARK    3  A    between atoms: C_12  and  C_10 
ROOT
ATOM      1  C   UNL d   1      33.229  19.980 -21.906  0.00  0.00     0.184 A 
ATOM      2  C   UNL d   1      33.234  20.712 -22.230  0.00  0.00     0.108 A 
ATOM      3  C   UNL d   1      33.223  19.297 -22.404  0.00  0.00     0.321 A 
ATOM      4  O   UNL d   1      33.221  19.378 -23.205  0.00  0.00    -0.272 OA
ATOM      5  C   UNL d   1      33.233  20.801 -23.053  0.00  0.00     0.042 A 
ATOM      6  C   UNL d   1      33.226  20.130 -23.544  0.00  0.00     0.105 A 
ATOM      7  O   UNL d   1      33.218  18.525 -22.068  0.00  0.00    -0.257 OA
ATOM      8  N   UNL d   1      33.231  19.905 -21.060  0.00  0.00    -0.141 N 
ATOM      9  C   UNL d   1      33.238  21.551 -23.379  0.00  0.00     0.004 A 
ATOM     10  C   UNL d   1      33.225  20.217 -24.353  0.00  0.00     0.025 A 
ATOM     11  C   UNL d   1      33.237  21.650 -24.193  0.00  0.00     0.000 A 
ATOM     12  C   UNL d   1      33.230  20.968 -24.691  0.00  0.00     0.002 A 
ENDROOT
BRANCH   2  13
ATOM     13  N   UNL d   1      33.241  21.379 -21.743  0.00  0.00    -0.242 NA
BRANCH  13  14
ATOM     14  C   UNL d   1      32.570  21.548 -21.315  0.00  0.00     0.099 C 
BRANCH  14  15
ATOM     15  C   UNL d   1      32.562  22.253 -20.849  0.00  0.00     0.019 A 
ATOM     16  C   UNL d   1      33.061  22.313 -20.218  0.00  0.00     0.002 A 
ATOM     17  C   UNL d   1      33.053  23.002 -19.762  0.00  0.00     0.000 A 
ATOM     18  C   UNL d   1      32.546  23.614 -19.949  0.00  0.00     0.000 A 
ATOM     19  C   UNL d   1      32.036  23.544 -20.600  0.00  0.00     0.000 A 
ATOM     20  C   UNL d   1      32.046  22.854 -21.054  0.00  0.00     0.002 A 
ENDBRANCH  14  15
ENDBRANCH  13  14
ENDBRANCH   2  13
TORSDOF 3
ENDMDL
MODEL 4
REMARK VINA RESULT:      -2.4      2.739      4.112
REMARK  3 active torsions:
REMARK  status: ('A' for Active; 'I' for Inactive)
REMARK    1  A    between atoms: N_7  and  C_2 
REMARK    2  A    between atoms: C_10  and  N_7 
REMARK    3  A    between atoms: C_12  and  C_10 
ROOT
ATOM      1  C   UNL d   1      32.004  16.167 -23.344  0.00  0.00     0.184 A 
ATOM      2  C   UNL d   1      31.561  16.574 -23.873  0.00  0.00     0.108 A 
ATOM      3  C   UNL d   1      32.771  16.449 -23.130  0.00  0.00     0.321 A 
ATOM      4  O   UNL d   1      33.061  17.126 -23.454  0.00  0.00    -0.272 OA
ATOM      5  C   UNL d   1      31.854  17.271 -24.210  0.00  0.00     0.042 A 
ATOM      6  C   UNL d   1      32.609  17.549 -23.999  0.00  0.00     0.105 A 
ATOM      7  O   UNL d   1      33.241  16.025 -22.574  0.00  0.00    -0.257 OA
ATOM      8  N   UNL d   1      31.690  15.454 -23.008  0.00  0.00    -0.141 N 
ATOM      9  C   UNL d   1      31.398  17.683 -24.749  0.00  0.00     0.004 A 
ATOM     10  C   UNL d   1      32.898  18.234 -24.330  0.00  0.00     0.025 A 
ATOM     11  C   UNL d   1      31.679  18.374 -25.089  0.00  0.00     0.000 A 
ATOM     12  C   UNL d   1      32.446  18.657 -24.874  0.00  0.00     0.002 A 
ENDROOT
BRANCH   2  13
ATOM     13  N   UNL d   1      30.811  16.298 -24.083  0.00  0.00    -0.242 NA
BRANCH  13  14
ATOM     14  C   UNL d   1      30.255  16.215 -23.496  0.00  0.00     0.099 C 
BRANCH  14  15
ATOM     15  C   UNL d   1      29.457  16.053 -23.722  0.00  0.00     0.019 A 
ATOM     16  C   UNL d   1      29.318  15.611 -24.383  0.00  0.00     0.002 A 
ATOM     17  C   UNL d   1      28.538  15.453 -24.604  0.00  0.00     0.000 A 
ATOM     18  C   UNL d   1      27.916  15.740 -24.159  0.00  0.00     0.000 A 
ATOM     19  C   UNL d   1      28.069  16.193 -23.481  0.00  0.00     0.000 A 
ATOM     20  C   UNL d   1      28.850  16.350 -23.262  0.00  0.00     0.002 A 
ENDBRANCH  14  15
ENDBRANCH  13  14
ENDBRANCH   2  13
TORSDOF 3
ENDMDL
MODEL 5
REMARK VINA RESULT:      -2.1      1.148      2.134
REMARK  3 active torsions:
REMARK  status: ('A' for Active; 'I' for Inactive)
REMARK    1  A    between atoms: N_7  and  C_2 
REMARK    2  A    between atoms: C_10  and  N_7 
REMARK    3  A    between atoms: C_12  and  C_10 
ROOT
ATOM      1  C   UNL d   1      33.237  20.008 -21.811  0.00  0.00     0.184 A 
ATOM      2  C   UNL d   1      33.238  20.103 -22.606  0.00  0.00     0.108 A 
ATOM      3  C   UNL d   1      33.237  20.685 -21.305  0.00  0.00     0.321 A 
ATOM      4  O   UNL d   1      33.237  21.427 -21.618  0.00  0.00    -0.272 OA
ATOM      5  C   UNL d   1      33.239  20.863 -22.934  0.00  0.00     0.042 A 
ATOM      6  C   UNL d   1      33.238  21.530 -22.436  0.00  0.00     0.105 A 
ATOM      7  O   UNL d   1      33.235  20.592 -20.468  0.00  0.00    -0.257 OA
ATOM      8  N   UNL d   1      33.237  19.222 -21.490  0.00  0.00    -0.141 N 
ATOM      9  C   UNL d   1      33.240  20.954 -23.746  0.00  0.00     0.004 A 
ATOM     10  C   UNL d   1      33.239  22.277 -22.757  0.00  0.00     0.025 A 
ATOM     11  C   UNL d   1      33.240  21.703 -24.080  0.00  0.00     0.000 A 
ATOM     12  C   UNL d   1      33.240  22.380 -23.575  0.00  0.00     0.002 A 
ENDROOT
BRANCH   2  13
ATOM     13  N   UNL d   1      33.239  19.441 -23.100  0.00  0.00    -0.242 NA
BRANCH  13  14
ATOM     14  C   UNL d   1      32.573  18.975 -23.119  0.00  0.00     0.099 C 
BRANCH  14  15
ATOM     15  C   UNL d   1      32.535  18.357 -23.694  0.00  0.00     0.019 A 
ATOM     16  C   UNL d   1      31.834  18.208 -24.066  0.00  0.00     0.002 A 
ATOM     17  C   UNL d   1      31.796  17.604 -24.627  0.00  0.00     0.000 A 
ATOM     18  C   UNL d   1      32.461  17.162 -24.803  0.00  0.00     0.000 A 
ATOM     19  C   UNL d   1      33.177  17.322 -24.416  0.00  0.00     0.000 A 
ATOM     20  C   UNL d   1      33.212  17.928 -23.855  0.00  0.00     0.002 A 
ENDBRANCH  14  15
ENDBRANCH  13  14
ENDBRANCH   2  13
TORSDOF 3
ENDMDL
MODEL 6
REMARK VINA RESULT:      -2.1      1.593      2.615
REMARK  3 active torsions:
REMARK  status: ('A' for Active; 'I' for Inactive)
REMARK    1  A    between atoms: N_7  and  C_2 
REMARK    2  A    between atoms: C_10  and  N_7 
REMARK    3  A    between atoms: C_12  and  C_10 
ROOT
ATOM      1  C   UNL d   1      33.100  20.981 -21.248  0.00  0.00     0.184 A 
ATOM      2  C   UNL d   1      33.159  21.004 -22.046  0.00  0.00     0.108 A 
ATOM      3  C   UNL d   1      33.017  21.700 -20.811  0.00  0.00     0.321 A 
ATOM      4  O   UNL d   1      32.996  22.408 -21.191  0.00  0.00    -0.272 OA
ATOM      5  C   UNL d   1      33.138  21.729 -22.444  0.00  0.00     0.042 A 
ATOM      6  C   UNL d   1      33.056  22.437 -22.013  0.00  0.00     0.105 A 
ATOM      7  O   UNL d   1      32.954  21.682 -19.970  0.00  0.00    -0.257 OA
ATOM      8  N   UNL d   1      33.123  20.230 -20.855  0.00  0.00    -0.141 N 
ATOM      9  C   UNL d   1      33.199  21.746 -23.258  0.00  0.00     0.004 A 
ATOM     10  C   UNL d   1      33.036  23.151 -22.404  0.00  0.00     0.025 A 
ATOM     11  C   UNL d   1      33.179  22.460 -23.662  0.00  0.00     0.000 A 
ATOM     12  C   UNL d   1      33.096  23.179 -23.224  0.00  0.00     0.002 A 
ENDROOT
BRANCH   2  13
ATOM     13  N   UNL d   1      33.240  20.302 -22.474  0.00  0.00    -0.242 NA
BRANCH  13  14
ATOM     14  C   UNL d   1      32.734  19.688 -22.304  0.00  0.00     0.099 C 
BRANCH  14  15
ATOM     15  C   UNL d   1      32.782  18.989 -22.777  0.00  0.00     0.019 A 
ATOM     16  C   UNL d   1      32.429  18.981 -23.503  0.00  0.00     0.002 A 
ATOM     17  C   UNL d   1      32.476  18.298 -23.965  0.00  0.00     0.000 A 
ATOM     18  C   UNL d   1      32.874  17.640 -23.690  0.00  0.00     0.000 A 
ATOM     19  C   UNL d   1      33.233  17.658 -22.942  0.00  0.00     0.000 A 
ATOM     20  C   UNL d   1      33.185  18.342 -22.482  0.00  0.00     0.002 A 
ENDBRANCH  14  15
ENDBRANCH  13  14
ENDBRANCH   2  13
TORSDOF 3
ENDMDL
MODEL 7
REMARK VINA RESULT:      -1.2      1.684      2.550
REMARK  3 active torsions:
REMARK  status: ('A' for Active; 'I' for Inactive)
REMARK    1  A    between atoms: N_7  and  C_2 
REMARK    2  A    between atoms: C_10  and  N_7 
REMARK    3  A    between atoms: C_12  and  C_10 
ROOT
ATOM      1  C   UNL d   1      32.877  22.290 -22.562  0.00  0.00     0.184 A 
ATOM      2  C   UNL d   1      33.051  21.755 -21.992  0.00  0.00     0.108 A 
ATOM      3  C   UNL d   1      32.683  23.084 -22.350  0.00  0.00     0.321 A 
ATOM      4  O   UNL d   1      32.672  23.308 -21.577  0.00  0.00    -0.272 OA
ATOM      5  C   UNL d   1      33.042  21.979 -21.196  0.00  0.00     0.042 A 
ATOM      6  C   UNL d   1      32.851  22.761 -20.987  0.00  0.00     0.105 A 
ATOM      7  O   UNL d   1      32.499  23.652 -22.945  0.00  0.00    -0.257 OA
ATOM      8  N   UNL d   1      32.891  22.045 -23.375  0.00  0.00    -0.141 N 
ATOM      9  C   UNL d   1      33.220  21.429 -20.618  0.00  0.00     0.004 A 
ATOM     10  C   UNL d   1      32.841  22.982 -20.203  0.00  0.00     0.025 A 
ATOM     11  C   UNL d   1      33.213  21.641 -19.826  0.00  0.00     0.000 A 
ATOM     12  C   UNL d   1      33.019  22.435 -19.614  0.00  0.00     0.002 A 
ENDROOT
BRANCH   2  13
ATOM     13  N   UNL d   1      33.241  20.978 -22.200  0.00  0.00    -0.242 NA
BRANCH  13  14
ATOM     14  C   UNL d   1      32.728  20.574 -22.684  0.00  0.00     0.099 C 
BRANCH  14  15
ATOM     15  C   UNL d   1      32.901  19.767 -22.865  0.00  0.00     0.019 A 
ATOM     16  C   UNL d   1      32.898  19.527 -23.635  0.00  0.00     0.002 A 
ATOM     17  C   UNL d   1      33.068  18.738 -23.811  0.00  0.00     0.000 A 
ATOM     18  C   UNL d   1      33.237  18.208 -23.213  0.00  0.00     0.000 A 
ATOM     19  C   UNL d   1      33.238  18.464 -22.423  0.00  0.00     0.000 A 
ATOM     20  C   UNL d   1      33.068  19.254 -22.250  0.00  0.00     0.002 A 
ENDBRANCH  14  15
ENDBRANCH  13  14
ENDBRANCH   2  13
TORSDOF 3
ENDMDL
MODEL 8
REMARK VINA RESULT:      -0.6      3.613      5.338
REMARK  3 active torsions:
REMARK  status: ('A' for Active; 'I' for Inactive)
REMARK    1  A    between atoms: N_7  and  C_2 
REMARK    2  A    between atoms: C_10  and  N_7 
REMARK    3  A    between atoms: C_12  and  C_10 
ROOT
ATOM      1  C   UNL d   1      30.190  15.760 -22.661  0.00  0.00     0.184 A 
ATOM      2  C   UNL d   1      30.170  15.857 -23.456  0.00  0.00     0.108 A 
ATOM      3  C   UNL d   1      29.485  15.556 -22.243  0.00  0.00     0.321 A 
ATOM      4  O   UNL d   1      28.791  15.458 -22.638  0.00  0.00    -0.272 OA
ATOM      5  C   UNL d   1      29.460  15.757 -23.868  0.00  0.00     0.042 A 
ATOM      6  C   UNL d   1      28.765  15.556 -23.456  0.00  0.00     0.105 A 
ATOM      7  O   UNL d   1      29.501  15.453 -21.407  0.00  0.00    -0.257 OA
ATOM      8  N   UNL d   1      30.927  15.865 -22.253  0.00  0.00    -0.141 N 
ATOM      9  C   UNL d   1      29.445  15.857 -24.679  0.00  0.00     0.004 A 
ATOM     10  C   UNL d   1      28.066  15.458 -23.861  0.00  0.00     0.025 A 
ATOM     11  C   UNL d   1      28.745  15.761 -25.097  0.00  0.00     0.000 A 
ATOM     12  C   UNL d   1      28.040  15.557 -24.679  0.00  0.00     0.002 A 
ENDROOT
BRANCH   2  13
ATOM     13  N   UNL d   1      30.860  16.056 -23.865  0.00  0.00    -0.242 NA
BRANCH  13  14
ATOM     14  C   UNL d   1      31.275  16.711 -23.620  0.00  0.00     0.099 C 
BRANCH  14  15
ATOM     15  C   UNL d   1      31.902  16.992 -24.113  0.00  0.00     0.019 A 
ATOM     16  C   UNL d   1      32.526  16.506 -24.271  0.00  0.00     0.002 A 
ATOM     17  C   UNL d   1      33.139  16.781 -24.752  0.00  0.00     0.000 A 
ATOM     18  C   UNL d   1      33.112  17.536 -25.063  0.00  0.00     0.000 A 
ATOM     19  C   UNL d   1      32.465  18.029 -24.895  0.00  0.00     0.000 A 
ATOM     20  C   UNL d   1      31.854  17.751 -24.414  0.00  0.00     0.002 A 
ENDBRANCH  14  15
ENDBRANCH  13  14
ENDBRANCH   2  13
TORSDOF 3
ENDMDL
