MODEL 1
REMARK VINA RESULT:      -4.7      0.000      0.000
REMARK  2 active torsions:
REMARK  status: ('A' for Active; 'I' for Inactive)
REMARK    1  A    between atoms: C_7  and  C_1 
REMARK    2  A    between atoms: O_14  and  C_11 
ROOT
ATOM      1  C   UNL d   1      56.394   0.195  32.677  0.00  0.00     0.066 A 
ATOM      2  C   UNL d   1      56.751   0.357  33.435  0.00  0.00     0.200 A 
ATOM      3  C   UNL d   1      56.270   0.435  34.099  0.00  0.00     0.062 A 
ATOM      4  C   UNL d   1      55.574   0.119  32.618  0.00  0.00     0.126 A 
ATOM      5  C   UNL d   1      55.449   0.358  34.041  0.00  0.00     0.106 A 
ATOM      6  O   UNL d   1      55.089   0.202  33.316  0.00  0.00    -0.305 OA
ATOM      7  C   UNL d   1      56.628   0.595  34.846  0.00  0.00     0.009 A 
ATOM      8  C   UNL d   1      54.965   0.439  34.727  0.00  0.00     0.067 A 
ATOM      9  O   UNL d   1      57.587   0.435  33.495  0.00  0.00    -0.286 OA
ATOM     10  C   UNL d   1      55.324   0.600  35.477  0.00  0.00     0.198 A 
ATOM     11  C   UNL d   1      56.144   0.677  35.536  0.00  0.00     0.042 A 
ATOM     12  O   UNL d   1      54.839   0.682  36.166  0.00  0.00    -0.286 OA
ENDROOT
BRANCH   1  13
ATOM     13  C   UNL d   1      56.727   0.139  32.203  0.00  0.00     0.027 A 
ATOM     14  C   UNL d   1      56.768  -0.370  31.937  0.00  0.00     0.094 A 
ATOM     15  C   UNL d   1      57.098  -0.433  31.466  0.00  0.00     0.024 A 
ATOM     16  C   UNL d   1      57.390   0.032  31.265  0.00  0.00     0.002 A 
ATOM     17  C   UNL d   1      57.349   0.541  31.531  0.00  0.00     0.000 A 
ATOM     18  C   UNL d   1      57.015   0.597  32.004  0.00  0.00     0.002 A 
BRANCH  14  19
ATOM     19  O   UNL d   1      56.473  -0.837  32.142  0.00  0.00    -0.328 OA
ATOM     20  C   UNL d   1      56.549  -1.357  31.904  0.00  0.00     0.181 C 
ENDBRANCH  14  19
ENDBRANCH   1  13
TORSDOF 2
ENDMDL
MODEL 2
REMARK VINA RESULT:      -3.8      2.244      3.558
REMARK  2 active torsions:
REMARK  status: ('A' for Active; 'I' for Inactive)
REMARK    1  A    between atoms: C_7  and  C_1 
REMARK    2  A    between atoms: O_14  and  C_11 
ROOT
ATOM      1  C   UNL d   1      58.253  -0.706  29.835  0.00  0.00     0.066 A 
ATOM      2  C   UNL d   1      58.121  -0.061  30.377  0.00  0.00     0.200 A 
ATOM      3  C   UNL d   1      57.629  -0.176  31.029  0.00  0.00     0.062 A 
ATOM      4  C   UNL d   1      57.889  -1.435  29.968  0.00  0.00     0.126 A 
ATOM      5  C   UNL d   1      57.265  -0.906  31.162  0.00  0.00     0.106 A 
ATOM      6  O   UNL d   1      57.383  -1.539  30.647  0.00  0.00    -0.305 OA
ATOM      7  C   UNL d   1      57.502   0.465  31.562  0.00  0.00     0.009 A 
ATOM      8  C   UNL d   1      56.764  -1.013  31.832  0.00  0.00     0.067 A 
ATOM      9  O   UNL d   1      58.491   0.682  30.242  0.00  0.00    -0.286 OA
ATOM     10  C   UNL d   1      56.634  -0.371  32.368  0.00  0.00     0.198 A 
ATOM     11  C   UNL d   1      56.999   0.359  32.234  0.00  0.00     0.042 A 
ATOM     12  O   UNL d   1      56.132  -0.477  33.040  0.00  0.00    -0.286 OA
ENDROOT
BRANCH   1  13
ATOM     13  C   UNL d   1      58.599  -0.632  29.373  0.00  0.00     0.027 A 
ATOM     14  C   UNL d   1      59.024  -1.007  29.266  0.00  0.00     0.094 A 
ATOM     15  C   UNL d   1      59.371  -0.939  28.808  0.00  0.00     0.024 A 
ATOM     16  C   UNL d   1      59.283  -0.483  28.455  0.00  0.00     0.002 A 
ATOM     17  C   UNL d   1      58.858  -0.108  28.561  0.00  0.00     0.000 A 
ATOM     18  C   UNL d   1      58.512  -0.182  29.023  0.00  0.00     0.002 A 
BRANCH  14  19
ATOM     19  O   UNL d   1      59.111  -1.467  29.625  0.00  0.00    -0.328 OA
ATOM     20  C   UNL d   1      59.514  -1.860  29.500  0.00  0.00     0.181 C 
ENDBRANCH  14  19
ENDBRANCH   1  13
TORSDOF 2
ENDMDL
MODEL 3
REMARK VINA RESULT:      -3.5      3.890      5.825
REMARK  2 active torsions:
REMARK  status: ('A' for Active; 'I' for Inactive)
REMARK    1  A    between atoms: C_7  and  C_1 
REMARK    2  A    between atoms: O_14  and  C_11 
ROOT
ATOM      1  C   UNL d   1      58.896  -0.614  29.554  0.00  0.00     0.066 A 
ATOM      2  C   UNL d   1      58.630  -1.424  29.518  0.00  0.00     0.200 A 
ATOM      3  C   UNL d   1      59.150  -2.007  29.254  0.00  0.00     0.062 A 
ATOM      4  C   UNL d   1      59.667  -0.424  29.326  0.00  0.00     0.126 A 
ATOM      5  C   UNL d   1      59.921  -1.818  29.026  0.00  0.00     0.106 A 
ATOM      6  O   UNL d   1      60.193  -1.040  29.056  0.00  0.00    -0.305 OA
ATOM      7  C   UNL d   1      58.882  -2.806  29.220  0.00  0.00     0.009 A 
ATOM      8  C   UNL d   1      60.444  -2.423  28.758  0.00  0.00     0.067 A 
ATOM      9  O   UNL d   1      57.845  -1.617  29.750  0.00  0.00    -0.286 OA
ATOM     10  C   UNL d   1      60.177  -3.225  28.724  0.00  0.00     0.198 A 
ATOM     11  C   UNL d   1      59.406  -3.415  28.952  0.00  0.00     0.042 A 
ATOM     12  O   UNL d   1      60.701  -3.833  28.455  0.00  0.00    -0.286 OA
ENDROOT
BRANCH   1  13
ATOM     13  C   UNL d   1      58.536  -0.196  29.739  0.00  0.00     0.027 A 
ATOM     14  C   UNL d   1      58.376   0.227  29.382  0.00  0.00     0.094 A 
ATOM     15  C   UNL d   1      58.018   0.646  29.560  0.00  0.00     0.024 A 
ATOM     16  C   UNL d   1      57.820   0.630  30.109  0.00  0.00     0.002 A 
ATOM     17  C   UNL d   1      57.979   0.206  30.466  0.00  0.00     0.000 A 
ATOM     18  C   UNL d   1      58.340  -0.211  30.281  0.00  0.00     0.002 A 
BRANCH  14  19
ATOM     19  O   UNL d   1      58.578   0.240  28.828  0.00  0.00    -0.328 OA
ATOM     20  C   UNL d   1      58.444   0.681  28.481  0.00  0.00     0.181 C 
ENDBRANCH  14  19
ENDBRANCH   1  13
TORSDOF 2
ENDMDL
MODEL 4
REMARK VINA RESULT:      -3.2      9.409     10.531
REMARK  2 active torsions:
REMARK  status: ('A' for Active; 'I' for Inactive)
REMARK    1  A    between atoms: C_7  and  C_1 
REMARK    2  A    between atoms: O_14  and  C_11 
ROOT
ATOM      1  C   UNL d   1      60.010  -8.720  34.736  0.00  0.00     0.066 A 
ATOM      2  C   UNL d   1      59.526  -9.093  34.139  0.00  0.00     0.200 A 
ATOM      3  C   UNL d   1      59.855  -9.266  33.403  0.00  0.00     0.062 A 
ATOM      4  C   UNL d   1      60.799  -8.538  34.569  0.00  0.00     0.126 A 
ATOM      5  C   UNL d   1      60.644  -9.084  33.237  0.00  0.00     0.106 A 
ATOM      6  O   UNL d   1      61.124  -8.724  33.802  0.00  0.00    -0.305 OA
ATOM      7  C   UNL d   1      59.373  -9.634  32.818  0.00  0.00     0.009 A 
ATOM      8  C   UNL d   1      60.970  -9.266  32.481  0.00  0.00     0.067 A 
ATOM      9  O   UNL d   1      58.724  -9.278  34.309  0.00  0.00    -0.286 OA
ATOM     10  C   UNL d   1      60.487  -9.635  31.892  0.00  0.00     0.198 A 
ATOM     11  C   UNL d   1      59.699  -9.817  32.058  0.00  0.00     0.042 A 
ATOM     12  O   UNL d   1      60.814  -9.818  31.133  0.00  0.00    -0.286 OA
ENDROOT
BRANCH   1  13
ATOM     13  C   UNL d   1      59.785  -8.595  35.257  0.00  0.00     0.027 A 
ATOM     14  C   UNL d   1      60.002  -8.839  35.732  0.00  0.00     0.094 A 
ATOM     15  C   UNL d   1      59.783  -8.719  36.254  0.00  0.00     0.024 A 
ATOM     16  C   UNL d   1      59.337  -8.343  36.290  0.00  0.00     0.002 A 
ATOM     17  C   UNL d   1      59.120  -8.099  35.816  0.00  0.00     0.000 A 
ATOM     18  C   UNL d   1      59.345  -8.224  35.294  0.00  0.00     0.002 A 
BRANCH  14  19
ATOM     19  O   UNL d   1      60.452  -9.217  35.692  0.00  0.00    -0.328 OA
ATOM     20  C   UNL d   1      60.719  -9.403  36.169  0.00  0.00     0.181 C 
ENDBRANCH  14  19
ENDBRANCH   1  13
TORSDOF 2
ENDMDL
MODEL 5
REMARK VINA RESULT:      -3.1      3.963      6.029
REMARK  2 active torsions:
REMARK  status: ('A' for Active; 'I' for Inactive)
REMARK    1  A    between atoms: C_7  and  C_1 
REMARK    2  A    between atoms: O_14  and  C_11 
ROOT
ATOM      1  C   UNL d   1      58.930  -0.962  29.023  0.00  0.00     0.066 A 
ATOM      2  C   UNL d   1      59.757  -1.127  28.889  0.00  0.00     0.200 A 
ATOM      3  C   UNL d   1      60.026  -1.904  28.936  0.00  0.00     0.062 A 
ATOM      4  C   UNL d   1      58.412  -1.581  29.197  0.00  0.00     0.126 A 
ATOM      5  C   UNL d   1      59.508  -2.523  29.110  0.00  0.00     0.106 A 
ATOM      6  O   UNL d   1      58.707  -2.381  29.242  0.00  0.00    -0.305 OA
ATOM      7  C   UNL d   1      60.844  -2.061  28.803  0.00  0.00     0.009 A 
ATOM      8  C   UNL d   1      59.794  -3.316  29.156  0.00  0.00     0.067 A 
ATOM      9  O   UNL d   1      60.285  -0.496  28.712  0.00  0.00    -0.286 OA
ATOM     10  C   UNL d   1      60.615  -3.475  29.023  0.00  0.00     0.198 A 
ATOM     11  C   UNL d   1      61.133  -2.855  28.849  0.00  0.00     0.042 A 
ATOM     12  O   UNL d   1      60.903  -4.269  29.068  0.00  0.00    -0.286 OA
ENDROOT
BRANCH   1  13
ATOM     13  C   UNL d   1      58.732  -0.416  28.991  0.00  0.00     0.027 A 
ATOM     14  C   UNL d   1      58.494  -0.168  29.453  0.00  0.00     0.094 A 
ATOM     15  C   UNL d   1      58.295   0.375  29.429  0.00  0.00     0.024 A 
ATOM     16  C   UNL d   1      58.342   0.668  28.925  0.00  0.00     0.002 A 
ATOM     17  C   UNL d   1      58.580   0.419  28.463  0.00  0.00     0.000 A 
ATOM     18  C   UNL d   1      58.778  -0.127  28.495  0.00  0.00     0.002 A 
BRANCH  14  19
ATOM     19  O   UNL d   1      58.449  -0.465  29.960  0.00  0.00    -0.328 OA
ATOM     20  C   UNL d   1      58.194  -0.223  30.417  0.00  0.00     0.181 C 
ENDBRANCH  14  19
ENDBRANCH   1  13
TORSDOF 2
ENDMDL
