MODEL 1
REMARK VINA RESULT:      94.8      0.000      0.000
REMARK  4 active torsions:
REMARK  status: ('A' for Active; 'I' for Inactive)
REMARK    1  A    between atoms: C_9  and  C_3 
REMARK    2  A    between atoms: N_10  and  C_9 
REMARK    3  A    between atoms: C_19  and  C_9 
REMARK    4  A    between atoms: C_12  and  N_11 
ROOT
ATOM      1  C   UNL d   1     -50.327  25.774  33.746  0.00  0.00     0.075 C 
ENDROOT
BRANCH   1   2
ATOM      2  C   UNL d   1     -51.148  25.823  33.659  0.00  0.00     0.106 A 
ATOM      3  C   UNL d   1     -51.685  25.187  33.714  0.00  0.00     0.289 A 
ATOM      4  N   UNL d   1     -52.445  25.484  33.591  0.00  0.00    -0.169 N 
ATOM      5  O   UNL d   1     -51.488  24.397  33.864  0.00  0.00    -0.265 OA
ATOM      6  C   UNL d   1     -52.383  26.298  33.462  0.00  0.00     0.200 A 
ATOM      7  N   UNL d   1     -53.241  25.283  33.549  0.00  0.00    -0.141 NA
ATOM      8  S   UNL d   1     -51.587  26.508  33.503  0.00  0.00    -0.042 SA
ATOM      9  N   UNL d   1     -53.142  26.595  33.340  0.00  0.00    -0.200 NA
ATOM     10  C   UNL d   1     -53.676  25.968  33.393  0.00  0.00     0.184 A 
ATOM     11  C   UNL d   1     -54.498  26.009  33.308  0.00  0.00     0.044 C 
ENDBRANCH   1   2
BRANCH   1  12
ATOM     12  N   UNL d   1     -49.905  26.442  33.980  0.00  0.00    -0.301 N 
ATOM     13  C   UNL d   1     -49.268  26.711  33.537  0.00  0.00     0.100 A 
ATOM     14  C   UNL d   1     -48.848  27.382  33.776  0.00  0.00     0.100 A 
ATOM     15  N   UNL d   1     -49.061  27.794  34.463  0.00  0.00    -0.299 N 
ATOM     16  C   UNL d   1     -49.701  27.517  34.901  0.00  0.00     0.100 A 
ATOM     17  C   UNL d   1     -50.126  26.845  34.667  0.00  0.00     0.100 A 
BRANCH  15  18
ATOM     18  C   UNL d   1     -48.642  28.453  34.691  0.00  0.00     0.092 A 
ATOM     19  C   UNL d   1     -48.080  28.417  35.283  0.00  0.00     0.156 A 
ATOM     20  F   UNL d   1     -47.935  27.685  35.661  0.00  0.00    -0.203 F 
ATOM     21  C   UNL d   1     -47.661  29.089  35.507  0.00  0.00     0.031 A 
ATOM     22  C   UNL d   1     -47.810  29.805  35.130  0.00  0.00     0.002 A 
ATOM     23  C   UNL d   1     -48.372  29.842  34.538  0.00  0.00     0.002 A 
ATOM     24  C   UNL d   1     -48.788  29.175  34.315  0.00  0.00     0.020 A 
ENDBRANCH  15  18
ENDBRANCH   1  12
BRANCH   1  25
ATOM     25  C   UNL d   1     -49.939  25.065  33.599  0.00  0.00     0.017 A 
ATOM     26  C   UNL d   1     -49.133  25.058  33.478  0.00  0.00     0.002 A 
ATOM     27  C   UNL d   1     -48.760  24.357  33.335  0.00  0.00     0.000 A 
ATOM     28  C   UNL d   1     -49.189  23.637  33.309  0.00  0.00     0.000 A 
ATOM     29  C   UNL d   1     -49.986  23.651  33.429  0.00  0.00     0.000 A 
ATOM     30  C   UNL d   1     -50.380  24.363  33.577  0.00  0.00     0.002 A 
ENDBRANCH   1  25
TORSDOF 4
ENDMDL
