MODEL 1
REMARK VINA RESULT:      66.4      0.000      0.000
REMARK  6 active torsions:
REMARK  status: ('A' for Active; 'I' for Inactive)
REMARK    1  A    between atoms: N_3  and  C_1 
REMARK       I    between atoms: C_5  and  N_3 
REMARK    2  A    between atoms: C_19  and  N_3 
REMARK    3  A    between atoms: C_8  and  C_5 
REMARK    4  A    between atoms: C_20  and  C_19 
REMARK    5  A    between atoms: C_23  and  C_20 
REMARK    6  A    between atoms: N_21  and  C_23 
ROOT
ATOM      1  N   UNL d   1      14.078  14.121  -2.717  0.00  0.00    -0.253 N 
ATOM      2  C   UNL d   1      14.540  14.807  -2.724  0.00  0.00     0.266 C 
ATOM      3  O   UNL d   1      15.082  14.947  -2.132  0.00  0.00    -0.267 OA
ENDROOT
BRANCH   1   4
ATOM      4  C   UNL d   1      14.172  13.574  -2.097  0.00  0.00     0.182 A 
ATOM      5  N   UNL d   1      14.883  13.223  -1.870  0.00  0.00    -0.222 NA
ATOM      6  C   UNL d   1      14.738  12.719  -1.237  0.00  0.00     0.089 A 
ATOM      7  C   UNL d   1      15.220  12.235  -0.793  0.00  0.00     0.018 A 
ATOM      8  C   UNL d   1      13.927  12.759  -1.069  0.00  0.00     0.050 A 
ATOM      9  C   UNL d   1      14.911  11.784  -0.179  0.00  0.00     0.002 A 
ATOM     10  C   UNL d   1      16.033  12.189  -0.955  0.00  0.00     0.002 C 
ATOM     11  C   UNL d   1      14.110  11.827  -0.017  0.00  0.00     0.001 A 
ATOM     12  C   UNL d   1      13.623  12.317  -0.465  0.00  0.00     0.008 A 
ATOM     13  S   UNL d   1      13.576  13.288  -1.600  0.00  0.00    -0.048 SA
ENDBRANCH   1   4
BRANCH   1  14
ATOM     14  C   UNL d   1      13.530  13.980  -3.316  0.00  0.00     0.086 C 
BRANCH  14  15
ATOM     15  C   UNL d   1      13.441  13.214  -3.621  0.00  0.00     0.038 C 
BRANCH  15  16
ATOM     16  C   UNL d   1      13.027  13.098  -4.323  0.00  0.00     0.082 C 
BRANCH  16  17
ATOM     17  N   UNL d   1      13.240  12.488  -4.832  0.00  0.00    -0.300 N 
ATOM     18  C   UNL d   1      13.167  12.585  -5.646  0.00  0.00     0.100 C 
ATOM     19  C   UNL d   1      13.526  11.781  -4.525  0.00  0.00     0.100 C 
ENDBRANCH  16  17
ENDBRANCH  15  16
ENDBRANCH  14  15
ENDBRANCH   1  14
BRANCH   2  20
ATOM     20  C   UNL d   1      14.444  15.347  -3.341  0.00  0.00     0.057 A 
ATOM     21  C   UNL d   1      15.090  15.763  -3.639  0.00  0.00     0.013 A 
ATOM     22  C   UNL d   1      14.974  16.301  -4.259  0.00  0.00     0.049 A 
ATOM     23  S   UNL d   1      15.510  16.786  -4.661  0.00  0.00    -0.064 SA
ATOM     24  C   UNL d   1      14.223  16.423  -4.578  0.00  0.00     0.088 A 
ATOM     25  C   UNL d   1      15.082  17.209  -5.230  0.00  0.00     0.135 A 
ATOM     26  N   UNL d   1      14.287  16.982  -5.177  0.00  0.00    -0.236 NA
ATOM     27  C   UNL d   1      13.576  16.007  -4.281  0.00  0.00     0.020 A 
ATOM     28  C   UNL d   1      13.681  15.469  -3.664  0.00  0.00     0.006 A 
ENDBRANCH   2  20
TORSDOF 6
ENDMDL
MODEL 2
REMARK VINA RESULT:      68.2      1.341      2.455
REMARK  6 active torsions:
REMARK  status: ('A' for Active; 'I' for Inactive)
REMARK    1  A    between atoms: N_3  and  C_1 
REMARK       I    between atoms: C_5  and  N_3 
REMARK    2  A    between atoms: C_19  and  N_3 
REMARK    3  A    between atoms: C_8  and  C_5 
REMARK    4  A    between atoms: C_20  and  C_19 
REMARK    5  A    between atoms: C_23  and  C_20 
REMARK    6  A    between atoms: N_21  and  C_23 
ROOT
ATOM      1  N   UNL d   1      14.151  14.103  -2.814  0.00  0.00    -0.253 N 
ATOM      2  C   UNL d   1      13.690  13.884  -3.464  0.00  0.00     0.266 C 
ATOM      3  O   UNL d   1      13.321  13.157  -3.484  0.00  0.00    -0.267 OA
ENDROOT
BRANCH   1   4
ATOM      4  C   UNL d   1      14.234  13.572  -2.178  0.00  0.00     0.182 A 
ATOM      5  N   UNL d   1      14.917  13.148  -1.992  0.00  0.00    -0.222 NA
ATOM      6  C   UNL d   1      14.769  12.689  -1.327  0.00  0.00     0.089 A 
ATOM      7  C   UNL d   1      15.228  12.168  -0.901  0.00  0.00     0.018 A 
ATOM      8  C   UNL d   1      13.984  12.829  -1.098  0.00  0.00     0.050 A 
ATOM      9  C   UNL d   1      14.922  11.779  -0.244  0.00  0.00     0.002 A 
ATOM     10  C   UNL d   1      16.014  12.022  -1.124  0.00  0.00     0.002 C 
ATOM     11  C   UNL d   1      14.147  11.921  -0.021  0.00  0.00     0.001 A 
ATOM     12  C   UNL d   1      13.683  12.448  -0.452  0.00  0.00     0.008 A 
ATOM     13  S   UNL d   1      13.652  13.376  -1.623  0.00  0.00    -0.048 SA
ENDBRANCH   1   4
BRANCH   1  14
ATOM     14  C   UNL d   1      14.524  14.838  -2.793  0.00  0.00     0.086 C 
BRANCH  14  15
ATOM     15  C   UNL d   1      14.663  15.209  -2.066  0.00  0.00     0.038 C 
BRANCH  15  16
ATOM     16  C   UNL d   1      14.884  16.002  -2.046  0.00  0.00     0.082 C 
BRANCH  16  17
ATOM     17  N   UNL d   1      15.068  16.362  -1.329  0.00  0.00    -0.300 N 
ATOM     18  C   UNL d   1      15.043  17.181  -1.261  0.00  0.00     0.100 C 
ATOM     19  C   UNL d   1      15.275  15.900  -0.682  0.00  0.00     0.100 C 
ENDBRANCH  16  17
ENDBRANCH  15  16
ENDBRANCH  14  15
ENDBRANCH   1  14
BRANCH   2  20
ATOM     20  C   UNL d   1      13.610  14.413  -4.093  0.00  0.00     0.057 A 
ATOM     21  C   UNL d   1      14.262  14.620  -4.553  0.00  0.00     0.013 A 
ATOM     22  C   UNL d   1      14.162  15.153  -5.180  0.00  0.00     0.049 A 
ATOM     23  S   UNL d   1      14.707  15.455  -5.724  0.00  0.00    -0.064 SA
ATOM     24  C   UNL d   1      13.421  15.476  -5.347  0.00  0.00     0.088 A 
ATOM     25  C   UNL d   1      14.295  15.967  -6.228  0.00  0.00     0.135 A 
ATOM     26  N   UNL d   1      13.501  15.978  -5.992  0.00  0.00    -0.236 NA
ATOM     27  C   UNL d   1      12.769  15.269  -4.887  0.00  0.00     0.020 A 
ATOM     28  C   UNL d   1      12.858  14.740  -4.260  0.00  0.00     0.006 A 
ENDBRANCH   2  20
TORSDOF 6
ENDMDL
MODEL 3
REMARK VINA RESULT:      68.6      1.797      3.680
REMARK  6 active torsions:
REMARK  status: ('A' for Active; 'I' for Inactive)
REMARK    1  A    between atoms: N_3  and  C_1 
REMARK       I    between atoms: C_5  and  N_3 
REMARK    2  A    between atoms: C_19  and  N_3 
REMARK    3  A    between atoms: C_8  and  C_5 
REMARK    4  A    between atoms: C_20  and  C_19 
REMARK    5  A    between atoms: C_23  and  C_20 
REMARK    6  A    between atoms: N_21  and  C_23 
ROOT
ATOM      1  N   UNL d   1      14.272  14.976  -2.986  0.00  0.00    -0.253 N 
ATOM      2  C   UNL d   1      13.966  14.215  -2.889  0.00  0.00     0.266 C 
ATOM      3  O   UNL d   1      13.976  13.855  -2.158  0.00  0.00    -0.267 OA
ENDROOT
BRANCH   1   4
ATOM      4  C   UNL d   1      14.591  15.373  -2.327  0.00  0.00     0.182 A 
ATOM      5  N   UNL d   1      14.947  15.013  -1.676  0.00  0.00    -0.222 NA
ATOM      6  C   UNL d   1      15.186  15.598  -1.151  0.00  0.00     0.089 A 
ATOM      7  C   UNL d   1      15.562  15.573  -0.428  0.00  0.00     0.018 A 
ATOM      8  C   UNL d   1      14.975  16.330  -1.480  0.00  0.00     0.050 A 
ATOM      9  C   UNL d   1      15.734  16.265  -0.020  0.00  0.00     0.002 A 
ATOM     10  C   UNL d   1      15.776  14.845  -0.091  0.00  0.00     0.002 C 
ATOM     11  C   UNL d   1      15.524  16.985  -0.348  0.00  0.00     0.001 A 
ATOM     12  C   UNL d   1      15.144  17.011  -1.079  0.00  0.00     0.008 A 
ATOM     13  S   UNL d   1      14.607  16.192  -2.208  0.00  0.00    -0.048 SA
ENDBRANCH   1   4
BRANCH   1  14
ATOM     14  C   UNL d   1      14.262  15.340  -3.726  0.00  0.00     0.086 C 
BRANCH  14  15
ATOM     15  C   UNL d   1      14.689  16.040  -3.846  0.00  0.00     0.038 C 
BRANCH  15  16
ATOM     16  C   UNL d   1      14.808  16.321  -4.612  0.00  0.00     0.082 C 
BRANCH  16  17
ATOM     17  N   UNL d   1      15.393  16.880  -4.759  0.00  0.00    -0.300 N 
ATOM     18  C   UNL d   1      15.239  17.680  -4.640  0.00  0.00     0.100 C 
ATOM     19  C   UNL d   1      16.132  16.638  -5.026  0.00  0.00     0.100 C 
ENDBRANCH  16  17
ENDBRANCH  15  16
ENDBRANCH  14  15
ENDBRANCH   1  14
BRANCH   2  20
ATOM     20  C   UNL d   1      13.651  13.824  -3.545  0.00  0.00     0.057 A 
ATOM     21  C   UNL d   1      13.805  13.025  -3.671  0.00  0.00     0.013 A 
ATOM     22  C   UNL d   1      13.480  12.650  -4.335  0.00  0.00     0.049 A 
ATOM     23  S   UNL d   1      13.540  11.867  -4.597  0.00  0.00    -0.064 SA
ATOM     24  C   UNL d   1      13.007  13.067  -4.867  0.00  0.00     0.088 A 
ATOM     25  C   UNL d   1      13.099  11.807  -5.296  0.00  0.00     0.135 A 
ATOM     26  N   UNL d   1      12.771  12.549  -5.461  0.00  0.00    -0.236 NA
ATOM     27  C   UNL d   1      12.853  13.867  -4.742  0.00  0.00     0.020 A 
ATOM     28  C   UNL d   1      13.172  14.249  -4.084  0.00  0.00     0.006 A 
ENDBRANCH   2  20
TORSDOF 6
ENDMDL
