MODEL 1
REMARK VINA RESULT:      10.3      0.000      0.000
REMARK  6 active torsions:
REMARK  status: ('A' for Active; 'I' for Inactive)
REMARK       I    between atoms: N_2  and  C_1 
REMARK       I    between atoms: N_4  and  C_1 
REMARK    1  A    between atoms: C_8  and  N_2 
REMARK    2  A    between atoms: C_3  and  C_5 
REMARK    3  A    between atoms: O_11  and  C_3 
REMARK    4  A    between atoms: C_14  and  N_4 
REMARK    5  A    between atoms: C_15  and  N_4 
REMARK    6  A    between atoms: C_16  and  O_11 
ROOT
ATOM      1  C   UNL d   1      45.606 -14.449  44.436  0.00  0.00     0.064 A 
ATOM      2  C   UNL d   1      45.851 -16.066  44.623  0.00  0.00     0.086 A 
ATOM      3  C   UNL d   1      45.050 -14.910  44.842  0.00  0.00     0.007 A 
ATOM      4  C   UNL d   1      46.274 -14.789  44.129  0.00  0.00     0.007 A 
ATOM      5  C   UNL d   1      45.183 -15.725  44.931  0.00  0.00     0.019 A 
ATOM      6  C   UNL d   1      46.406 -15.600  44.218  0.00  0.00     0.019 A 
ENDROOT
BRANCH   2   7
ATOM      7  N   UNL d   1      45.985 -16.874  44.711  0.00  0.00    -0.192 NA
ATOM      8  C   UNL d   1      46.147 -17.336  44.040  0.00  0.00     0.354 C 
ATOM      9  N   UNL d   1      46.279 -18.135  44.127  0.00  0.00    -0.256 N 
ATOM     10  O   UNL d   1      46.173 -16.982  43.296  0.00  0.00    -0.244 OA
BRANCH   9  11
ATOM     11  C   UNL d   1      46.251 -18.480  44.876  0.00  0.00     0.085 C 
ATOM     12  C   UNL d   1      46.176 -19.302  44.952  0.00  0.00     0.021 C 
ENDBRANCH   9  11
BRANCH   9  13
ATOM     13  C   UNL d   1      46.442 -18.596  43.450  0.00  0.00     0.085 C 
ATOM     14  C   UNL d   1      46.343 -19.412  43.488  0.00  0.00     0.021 C 
ENDBRANCH   9  13
ENDBRANCH   2   7
BRANCH   1  15
ATOM     15  C   UNL d   1      45.480 -13.645  44.345  0.00  0.00     0.300 C 
ATOM     16  O   UNL d   1      45.654 -13.122  44.955  0.00  0.00    -0.259 OA
BRANCH  15  17
ATOM     17  O   UNL d   1      45.175 -13.359  43.634  0.00  0.00    -0.271 OA
BRANCH  17  18
ATOM     18  C   UNL d   1      45.278 -12.576  43.431  0.00  0.00     0.126 C 
ATOM     19  C   UNL d   1      44.756 -12.208  42.912  0.00  0.00     0.029 C 
ENDBRANCH  17  18
ENDBRANCH  15  17
ENDBRANCH   1  15
TORSDOF 6
ENDMDL
MODEL 2
REMARK VINA RESULT:      13.3      1.415      4.596
REMARK  6 active torsions:
REMARK  status: ('A' for Active; 'I' for Inactive)
REMARK       I    between atoms: N_2  and  C_1 
REMARK       I    between atoms: N_4  and  C_1 
REMARK    1  A    between atoms: C_8  and  N_2 
REMARK    2  A    between atoms: C_3  and  C_5 
REMARK    3  A    between atoms: O_11  and  C_3 
REMARK    4  A    between atoms: C_14  and  N_4 
REMARK    5  A    between atoms: C_15  and  N_4 
REMARK    6  A    between atoms: C_16  and  O_11 
ROOT
ATOM      1  C   UNL d   1      46.311 -18.016  43.942  0.00  0.00     0.064 A 
ATOM      2  C   UNL d   1      46.145 -16.429  44.350  0.00  0.00     0.086 A 
ATOM      3  C   UNL d   1      46.209 -17.798  44.736  0.00  0.00     0.007 A 
ATOM      4  C   UNL d   1      46.330 -17.451  43.362  0.00  0.00     0.007 A 
ATOM      5  C   UNL d   1      46.126 -16.994  44.931  0.00  0.00     0.019 A 
ATOM      6  C   UNL d   1      46.247 -16.651  43.557  0.00  0.00     0.019 A 
ENDROOT
BRANCH   2   7
ATOM      7  N   UNL d   1      46.063 -15.633  44.543  0.00  0.00    -0.192 NA
ATOM      8  C   UNL d   1      45.352 -15.241  44.365  0.00  0.00     0.354 C 
ATOM      9  N   UNL d   1      45.271 -14.453  44.555  0.00  0.00    -0.256 N 
ATOM     10  O   UNL d   1      44.738 -15.652  43.999  0.00  0.00    -0.244 OA
BRANCH   9  11
ATOM     11  C   UNL d   1      45.890 -14.049  44.921  0.00  0.00     0.085 C 
ATOM     12  C   UNL d   1      45.905 -13.221  44.919  0.00  0.00     0.021 C 
ENDBRANCH   9  11
BRANCH   9  13
ATOM     13  C   UNL d   1      44.554 -14.063  44.375  0.00  0.00     0.085 C 
ATOM     14  C   UNL d   1      44.515 -13.587  43.706  0.00  0.00     0.021 C 
ENDBRANCH   9  13
ENDBRANCH   2   7
BRANCH   1  15
ATOM     15  C   UNL d   1      46.393 -18.805  43.744  0.00  0.00     0.300 C 
ATOM     16  O   UNL d   1      46.507 -19.374  44.327  0.00  0.00    -0.259 OA
BRANCH  15  17
ATOM     17  O   UNL d   1      46.362 -19.032  42.952  0.00  0.00    -0.271 OA
BRANCH  17  18
ATOM     18  C   UNL d   1      46.616 -19.774  42.728  0.00  0.00     0.126 C 
ATOM     19  C   UNL d   1      46.625 -19.988  41.935  0.00  0.00     0.029 C 
ENDBRANCH  17  18
ENDBRANCH  15  17
ENDBRANCH   1  15
TORSDOF 6
ENDMDL
