MODEL 1
REMARK VINA RESULT:      26.5      0.000      0.000
REMARK  7 active torsions:
REMARK  status: ('A' for Active; 'I' for Inactive)
REMARK    1  A    between atoms: C_2  and  S_1 
REMARK    2  A    between atoms: N_3  and  S_1 
REMARK    3  A    between atoms: C_18  and  N_3 
REMARK    4  A    between atoms: C_6  and  C_21 
REMARK       I    between atoms: N_7  and  C_6 
REMARK    5  A    between atoms: C_12  and  N_7 
REMARK    6  A    between atoms: C_22  and  C_18 
REMARK    7  A    between atoms: C_21  and  C_22 
ROOT
ATOM      1  N   UNL d   1      46.305 -18.751  40.707  0.00  0.00    -0.228 N 
ATOM      2  C   UNL d   1      46.647 -19.210  40.127  0.00  0.00     0.111 C 
ENDROOT
BRANCH   1   3
ATOM      3  S   UNL d   1      46.370 -18.966  41.499  0.00  0.00     0.271 S 
ATOM      4  O   UNL d   1      46.463 -18.189  41.685  0.00  0.00    -0.200 OA
ATOM      5  O   UNL d   1      46.273 -19.770  41.308  0.00  0.00    -0.200 OA
BRANCH   3   6
ATOM      6  C   UNL d   1      46.434 -19.171  42.285  0.00  0.00     0.104 A 
ATOM      7  C   UNL d   1      46.578 -18.596  42.851  0.00  0.00     0.013 A 
ATOM      8  C   UNL d   1      46.646 -18.796  43.655  0.00  0.00     0.001 A 
ATOM      9  C   UNL d   1      46.567 -19.581  43.884  0.00  0.00     0.000 A 
ATOM     10  C   UNL d   1      46.422 -20.166  43.325  0.00  0.00     0.001 A 
ATOM     11  C   UNL d   1      46.632 -19.784  44.672  0.00  0.00     0.000 C 
ATOM     12  C   UNL d   1      46.355 -19.966  42.524  0.00  0.00     0.013 A 
ENDBRANCH   3   6
ENDBRANCH   1   3
BRANCH   1  13
ATOM     13  C   UNL d   1      45.890 -18.065  40.504  0.00  0.00     0.092 C 
BRANCH  13  14
ATOM     14  C   UNL d   1      45.679 -17.934  39.716  0.00  0.00     0.025 C 
BRANCH  14  15
ATOM     15  C   UNL d   1      45.091 -17.385  39.535  0.00  0.00     0.064 C 
BRANCH  15  16
ATOM     16  C   UNL d   1      45.019 -17.095  38.766  0.00  0.00     0.279 C 
ATOM     17  N   UNL d   1      44.764 -16.318  38.637  0.00  0.00    -0.208 NA
ATOM     18  O   UNL d   1      45.201 -17.580  38.123  0.00  0.00    -0.265 OA
BRANCH  17  19
ATOM     19  C   UNL d   1      44.692 -16.028  37.869  0.00  0.00     0.088 A 
ATOM     20  C   UNL d   1      45.276 -15.543  37.556  0.00  0.00     0.040 A 
ATOM     21  C   UNL d   1      45.209 -15.250  36.788  0.00  0.00     0.101 A 
ATOM     22  N   UNL d   1      44.548 -15.448  36.330  0.00  0.00    -0.242 NA
ATOM     23  C   UNL d   1      43.961 -15.936  36.644  0.00  0.00     0.101 A 
ATOM     24  C   UNL d   1      44.033 -16.226  37.413  0.00  0.00     0.040 A 
ENDBRANCH  17  19
ENDBRANCH  15  16
ENDBRANCH  14  15
ENDBRANCH  13  14
ENDBRANCH   1  13
TORSDOF 7
ENDMDL
