MODEL 1
REMARK VINA RESULT:      -9.5      0.000      0.000
REMARK  3 active torsions:
REMARK  status: ('A' for Active; 'I' for Inactive)
REMARK    1  A    between atoms: C_7  and  C_4 
REMARK    2  A    between atoms: C_8  and  C_7 
REMARK    3  A    between atoms: C_11  and  C_8 
ROOT
ATOM      1  N   UNL d   1      53.534  32.339  53.710  0.00  0.00    -0.269 N 
ATOM      2  C   UNL d   1      52.852  32.497  53.275  0.00  0.00     0.282 A 
ATOM      3  N   UNL d   1      52.776  33.790  53.868  0.00  0.00    -0.239 NA
ATOM      4  C   UNL d   1      52.474  33.221  53.354  0.00  0.00     0.138 A 
ATOM      5  C   UNL d   1      53.836  32.908  54.224  0.00  0.00     0.085 A 
ATOM      6  C   UNL d   1      53.458  33.632  54.303  0.00  0.00     0.098 A 
ATOM      7  O   UNL d   1      52.549  31.928  52.760  0.00  0.00    -0.265 OA
ATOM      8  C   UNL d   1      53.507  31.467  53.251  0.00  0.00     0.102 C 
ATOM      9  C   UNL d   1      54.519  32.750  54.660  0.00  0.00     0.019 A 
ATOM     10  C   UNL d   1      53.761  34.201  54.818  0.00  0.00     0.021 A 
ATOM     11  C   UNL d   1      54.783  33.303  55.137  0.00  0.00     0.002 A 
ATOM     12  C   UNL d   1      54.405  34.027  55.216  0.00  0.00     0.002 A 
ENDROOT
BRANCH   4  13
ATOM     13  C   UNL d   1      51.791  33.378  52.918  0.00  0.00     0.024 C 
BRANCH  13  14
ATOM     14  C   UNL d   1      51.512  34.151  52.853  0.00  0.00     0.002 C 
BRANCH  14  15
ATOM     15  C   UNL d   1      50.778  34.298  52.504  0.00  0.00     0.000 A 
ATOM     16  C   UNL d   1      50.140  34.536  52.971  0.00  0.00     0.000 A 
ATOM     17  C   UNL d   1      49.407  34.682  52.623  0.00  0.00     0.000 A 
ATOM     18  C   UNL d   1      49.311  34.592  51.809  0.00  0.00     0.000 A 
ATOM     19  C   UNL d   1      49.949  34.355  51.342  0.00  0.00     0.000 A 
ATOM     20  C   UNL d   1      50.683  34.208  51.691  0.00  0.00     0.000 A 
ENDBRANCH  14  15
ENDBRANCH  13  14
ENDBRANCH   4  13
TORSDOF 3
ENDMDL
MODEL 2
REMARK VINA RESULT:      -9.2      1.845      3.766
REMARK  3 active torsions:
REMARK  status: ('A' for Active; 'I' for Inactive)
REMARK    1  A    between atoms: C_7  and  C_4 
REMARK    2  A    between atoms: C_8  and  C_7 
REMARK    3  A    between atoms: C_11  and  C_8 
ROOT
ATOM      1  N   UNL d   1      54.055  33.972  54.858  0.00  0.00    -0.269 N 
ATOM      2  C   UNL d   1      54.132  33.154  54.787  0.00  0.00     0.282 A 
ATOM      3  N   UNL d   1      53.048  33.135  53.864  0.00  0.00    -0.239 NA
ATOM      4  C   UNL d   1      53.630  32.736  54.291  0.00  0.00     0.138 A 
ATOM      5  C   UNL d   1      53.473  34.370  54.431  0.00  0.00     0.085 A 
ATOM      6  C   UNL d   1      52.970  33.952  53.935  0.00  0.00     0.098 A 
ATOM      7  O   UNL d   1      54.715  32.755  55.214  0.00  0.00    -0.265 OA
ATOM      8  C   UNL d   1      54.811  33.890  55.485  0.00  0.00     0.102 C 
ATOM      9  C   UNL d   1      53.395  35.188  54.502  0.00  0.00     0.019 A 
ATOM     10  C   UNL d   1      52.388  34.351  53.508  0.00  0.00     0.021 A 
ATOM     11  C   UNL d   1      52.839  35.538  54.089  0.00  0.00     0.002 A 
ATOM     12  C   UNL d   1      52.336  35.121  53.593  0.00  0.00     0.002 A 
ENDROOT
BRANCH   4  13
ATOM     13  C   UNL d   1      53.708  31.918  54.220  0.00  0.00     0.024 C 
BRANCH  13  14
ATOM     14  C   UNL d   1      53.508  31.544  53.513  0.00  0.00     0.002 C 
BRANCH  14  15
ATOM     15  C   UNL d   1      53.299  30.746  53.512  0.00  0.00     0.000 A 
ATOM     16  C   UNL d   1      52.767  30.459  52.950  0.00  0.00     0.000 A 
ATOM     17  C   UNL d   1      52.558  29.661  52.949  0.00  0.00     0.000 A 
ATOM     18  C   UNL d   1      52.880  29.149  53.510  0.00  0.00     0.000 A 
ATOM     19  C   UNL d   1      53.413  29.436  54.072  0.00  0.00     0.000 A 
ATOM     20  C   UNL d   1      53.621  30.234  54.073  0.00  0.00     0.000 A 
ENDBRANCH  14  15
ENDBRANCH  13  14
ENDBRANCH   4  13
TORSDOF 3
ENDMDL
MODEL 3
REMARK VINA RESULT:      -8.8      1.128      1.746
REMARK  3 active torsions:
REMARK  status: ('A' for Active; 'I' for Inactive)
REMARK    1  A    between atoms: C_7  and  C_4 
REMARK    2  A    between atoms: C_8  and  C_7 
REMARK    3  A    between atoms: C_11  and  C_8 
ROOT
ATOM      1  N   UNL d   1      53.321  34.675  54.526  0.00  0.00    -0.269 N 
ATOM      2  C   UNL d   1      52.687  34.891  54.045  0.00  0.00     0.282 A 
ATOM      3  N   UNL d   1      52.573  33.546  53.594  0.00  0.00    -0.239 NA
ATOM      4  C   UNL d   1      52.314  34.328  53.580  0.00  0.00     0.138 A 
ATOM      5  C   UNL d   1      53.580  33.892  54.539  0.00  0.00     0.085 A 
ATOM      6  C   UNL d   1      53.207  33.329  54.074  0.00  0.00     0.098 A 
ATOM      7  O   UNL d   1      52.427  35.674  54.032  0.00  0.00    -0.265 OA
ATOM      8  C   UNL d   1      53.325  35.627  54.781  0.00  0.00     0.102 C 
ATOM      9  C   UNL d   1      54.214  33.675  55.020  0.00  0.00     0.019 A 
ATOM     10  C   UNL d   1      53.466  32.546  54.088  0.00  0.00     0.021 A 
ATOM     11  C   UNL d   1      54.438  32.932  55.014  0.00  0.00     0.002 A 
ATOM     12  C   UNL d   1      54.065  32.368  54.549  0.00  0.00     0.002 A 
ENDROOT
BRANCH   4  13
ATOM     13  C   UNL d   1      51.679  34.545  53.100  0.00  0.00     0.024 C 
BRANCH  13  14
ATOM     14  C   UNL d   1      51.085  34.000  52.929  0.00  0.00     0.002 C 
BRANCH  14  15
ATOM     15  C   UNL d   1      50.432  34.228  52.479  0.00  0.00     0.000 A 
ATOM     16  C   UNL d   1      49.776  34.569  52.846  0.00  0.00     0.000 A 
ATOM     17  C   UNL d   1      49.123  34.796  52.397  0.00  0.00     0.000 A 
ATOM     18  C   UNL d   1      49.125  34.684  51.579  0.00  0.00     0.000 A 
ATOM     19  C   UNL d   1      49.781  34.344  51.211  0.00  0.00     0.000 A 
ATOM     20  C   UNL d   1      50.434  34.116  51.662  0.00  0.00     0.000 A 
ENDBRANCH  14  15
ENDBRANCH  13  14
ENDBRANCH   4  13
TORSDOF 3
ENDMDL
MODEL 4
REMARK VINA RESULT:      -8.4      1.045      2.167
REMARK  3 active torsions:
REMARK  status: ('A' for Active; 'I' for Inactive)
REMARK    1  A    between atoms: C_7  and  C_4 
REMARK    2  A    between atoms: C_8  and  C_7 
REMARK    3  A    between atoms: C_11  and  C_8 
ROOT
ATOM      1  N   UNL d   1      53.770  32.223  53.580  0.00  0.00    -0.269 N 
ATOM      2  C   UNL d   1      53.253  32.845  53.424  0.00  0.00     0.282 A 
ATOM      3  N   UNL d   1      52.255  31.912  53.021  0.00  0.00    -0.239 NA
ATOM      4  C   UNL d   1      52.497  32.691  53.145  0.00  0.00     0.138 A 
ATOM      5  C   UNL d   1      53.528  31.445  53.456  0.00  0.00     0.085 A 
ATOM      6  C   UNL d   1      52.772  31.290  53.178  0.00  0.00     0.098 A 
ATOM      7  O   UNL d   1      53.495  33.625  53.547  0.00  0.00    -0.265 OA
ATOM      8  C   UNL d   1      54.397  32.938  53.839  0.00  0.00     0.102 C 
ATOM      9  C   UNL d   1      54.045  30.821  53.612  0.00  0.00     0.019 A 
ATOM     10  C   UNL d   1      52.531  30.511  53.054  0.00  0.00     0.021 A 
ATOM     11  C   UNL d   1      53.793  30.098  53.487  0.00  0.00     0.002 A 
ATOM     12  C   UNL d   1      53.037  29.943  53.209  0.00  0.00     0.002 A 
ENDROOT
BRANCH   4  13
ATOM     13  C   UNL d   1      51.980  33.314  52.989  0.00  0.00     0.024 C 
BRANCH  13  14
ATOM     14  C   UNL d   1      51.167  33.210  53.081  0.00  0.00     0.002 C 
BRANCH  14  15
ATOM     15  C   UNL d   1      50.645  33.803  52.845  0.00  0.00     0.000 A 
ATOM     16  C   UNL d   1      50.432  33.873  52.050  0.00  0.00     0.000 A 
ATOM     17  C   UNL d   1      49.910  34.466  51.814  0.00  0.00     0.000 A 
ATOM     18  C   UNL d   1      49.600  34.990  52.372  0.00  0.00     0.000 A 
ATOM     19  C   UNL d   1      49.813  34.920  53.166  0.00  0.00     0.000 A 
ATOM     20  C   UNL d   1      50.336  34.326  53.402  0.00  0.00     0.000 A 
ENDBRANCH  14  15
ENDBRANCH  13  14
ENDBRANCH   4  13
TORSDOF 3
ENDMDL
MODEL 5
REMARK VINA RESULT:      -7.4      2.370      5.228
REMARK  3 active torsions:
REMARK  status: ('A' for Active; 'I' for Inactive)
REMARK    1  A    between atoms: C_7  and  C_4 
REMARK    2  A    between atoms: C_8  and  C_7 
REMARK    3  A    between atoms: C_11  and  C_8 
ROOT
ATOM      1  N   UNL d   1      48.064  35.248  51.571  0.00  0.00    -0.269 N 
ATOM      2  C   UNL d   1      48.775  34.833  51.610  0.00  0.00     0.282 A 
ATOM      3  N   UNL d   1      48.996  35.341  52.922  0.00  0.00    -0.239 NA
ATOM      4  C   UNL d   1      49.240  34.879  52.284  0.00  0.00     0.138 A 
ATOM      5  C   UNL d   1      47.820  35.710  52.209  0.00  0.00     0.085 A 
ATOM      6  C   UNL d   1      48.285  35.756  52.883  0.00  0.00     0.098 A 
ATOM      7  O   UNL d   1      49.020  34.371  50.972  0.00  0.00    -0.265 OA
ATOM      8  C   UNL d   1      47.995  34.850  50.672  0.00  0.00     0.102 C 
ATOM      9  C   UNL d   1      47.108  36.126  52.170  0.00  0.00     0.019 A 
ATOM     10  C   UNL d   1      48.040  36.219  53.521  0.00  0.00     0.021 A 
ATOM     11  C   UNL d   1      46.902  36.553  52.784  0.00  0.00     0.002 A 
ATOM     12  C   UNL d   1      47.367  36.600  53.458  0.00  0.00     0.002 A 
ENDROOT
BRANCH   4  13
ATOM     13  C   UNL d   1      49.952  34.464  52.323  0.00  0.00     0.024 C 
BRANCH  13  14
ATOM     14  C   UNL d   1      50.397  34.471  53.017  0.00  0.00     0.002 C 
BRANCH  14  15
ATOM     15  C   UNL d   1      51.122  34.079  53.047  0.00  0.00     0.000 A 
ATOM     16  C   UNL d   1      51.819  34.485  52.867  0.00  0.00     0.000 A 
ATOM     17  C   UNL d   1      52.544  34.093  52.897  0.00  0.00     0.000 A 
ATOM     18  C   UNL d   1      52.574  33.296  53.106  0.00  0.00     0.000 A 
ATOM     19  C   UNL d   1      51.878  32.890  53.286  0.00  0.00     0.000 A 
ATOM     20  C   UNL d   1      51.152  33.282  53.256  0.00  0.00     0.000 A 
ENDBRANCH  14  15
ENDBRANCH  13  14
ENDBRANCH   4  13
TORSDOF 3
ENDMDL
MODEL 6
REMARK VINA RESULT:      -6.8      1.855      3.317
REMARK  3 active torsions:
REMARK  status: ('A' for Active; 'I' for Inactive)
REMARK    1  A    between atoms: C_7  and  C_4 
REMARK    2  A    between atoms: C_8  and  C_7 
REMARK    3  A    between atoms: C_11  and  C_8 
ROOT
ATOM      1  N   UNL d   1      53.087  30.069  53.090  0.00  0.00    -0.269 N 
ATOM      2  C   UNL d   1      53.083  30.887  52.991  0.00  0.00     0.282 A 
ATOM      3  N   UNL d   1      53.310  31.054  54.387  0.00  0.00    -0.239 NA
ATOM      4  C   UNL d   1      53.194  31.379  53.638  0.00  0.00     0.138 A 
ATOM      5  C   UNL d   1      53.202  29.744  53.839  0.00  0.00     0.085 A 
ATOM      6  C   UNL d   1      53.314  30.236  54.486  0.00  0.00     0.098 A 
ATOM      7  O   UNL d   1      52.967  31.212  52.242  0.00  0.00    -0.265 OA
ATOM      8  C   UNL d   1      52.930  30.049  52.117  0.00  0.00     0.102 C 
ATOM      9  C   UNL d   1      53.206  28.925  53.938  0.00  0.00     0.019 A 
ATOM     10  C   UNL d   1      53.429  29.910  55.235  0.00  0.00     0.021 A 
ATOM     11  C   UNL d   1      53.317  28.645  54.654  0.00  0.00     0.002 A 
ATOM     12  C   UNL d   1      53.428  29.137  55.301  0.00  0.00     0.002 A 
ENDROOT
BRANCH   4  13
ATOM     13  C   UNL d   1      53.191  32.198  53.539  0.00  0.00     0.024 C 
BRANCH  13  14
ATOM     14  C   UNL d   1      53.062  32.692  54.186  0.00  0.00     0.002 C 
BRANCH  14  15
ATOM     15  C   UNL d   1      53.007  33.508  54.078  0.00  0.00     0.000 A 
ATOM     16  C   UNL d   1      52.383  33.826  53.641  0.00  0.00     0.000 A 
ATOM     17  C   UNL d   1      52.328  34.641  53.533  0.00  0.00     0.000 A 
ATOM     18  C   UNL d   1      52.897  35.141  53.862  0.00  0.00     0.000 A 
ATOM     19  C   UNL d   1      53.521  34.823  54.300  0.00  0.00     0.000 A 
ATOM     20  C   UNL d   1      53.576  34.007  54.407  0.00  0.00     0.000 A 
ENDBRANCH  14  15
ENDBRANCH  13  14
ENDBRANCH   4  13
TORSDOF 3
ENDMDL
MODEL 7
REMARK VINA RESULT:      -6.6      2.896      5.896
REMARK  3 active torsions:
REMARK  status: ('A' for Active; 'I' for Inactive)
REMARK    1  A    between atoms: C_7  and  C_4 
REMARK    2  A    between atoms: C_8  and  C_7 
REMARK    3  A    between atoms: C_11  and  C_8 
ROOT
ATOM      1  N   UNL d   1      47.564  36.274  53.180  0.00  0.00    -0.269 N 
ATOM      2  C   UNL d   1      48.336  35.998  53.265  0.00  0.00     0.282 A 
ATOM      3  N   UNL d   1      48.239  35.344  52.004  0.00  0.00    -0.239 NA
ATOM      4  C   UNL d   1      48.673  35.535  52.678  0.00  0.00     0.138 A 
ATOM      5  C   UNL d   1      47.130  36.083  52.506  0.00  0.00     0.085 A 
ATOM      6  C   UNL d   1      47.466  35.619  51.919  0.00  0.00     0.098 A 
ATOM      7  O   UNL d   1      48.771  36.189  53.939  0.00  0.00    -0.265 OA
ATOM      8  C   UNL d   1      47.721  36.692  54.059  0.00  0.00     0.102 C 
ATOM      9  C   UNL d   1      46.356  36.358  52.420  0.00  0.00     0.019 A 
ATOM     10  C   UNL d   1      47.031  35.429  51.244  0.00  0.00     0.021 A 
ATOM     11  C   UNL d   1      45.969  36.164  51.776  0.00  0.00     0.002 A 
ATOM     12  C   UNL d   1      46.306  35.701  51.189  0.00  0.00     0.002 A 
ENDROOT
BRANCH   4  13
ATOM     13  C   UNL d   1      49.446  35.259  52.763  0.00  0.00     0.024 C 
BRANCH  13  14
ATOM     14  C   UNL d   1      49.659  34.524  52.457  0.00  0.00     0.002 C 
BRANCH  14  15
ATOM     15  C   UNL d   1      50.416  34.224  52.591  0.00  0.00     0.000 A 
ATOM     16  C   UNL d   1      50.989  34.271  51.998  0.00  0.00     0.000 A 
ATOM     17  C   UNL d   1      51.745  33.971  52.131  0.00  0.00     0.000 A 
ATOM     18  C   UNL d   1      51.930  33.624  52.856  0.00  0.00     0.000 A 
ATOM     19  C   UNL d   1      51.357  33.577  53.449  0.00  0.00     0.000 A 
ATOM     20  C   UNL d   1      50.600  33.877  53.316  0.00  0.00     0.000 A 
ENDBRANCH  14  15
ENDBRANCH  13  14
ENDBRANCH   4  13
TORSDOF 3
ENDMDL
