MODEL 1
REMARK VINA RESULT:      -9.3      0.000      0.000
REMARK  5 active torsions:
REMARK  status: ('A' for Active; 'I' for Inactive)
REMARK    1  A    between atoms: C_6  and  N_1 
REMARK    2  A    between atoms: C_7  and  C_6 
REMARK    3  A    between atoms: C_8  and  C_7 
REMARK       I    between atoms: N_11  and  C_8 
REMARK    4  A    between atoms: C_13  and  N_11 
REMARK    5  A    between atoms: C_16  and  C_13 
ROOT
ATOM      1  C   UNL d   1      51.705  34.137  52.778  0.00  0.00     0.091 C 
ENDROOT
BRANCH   1   2
ATOM      2  N   UNL d   1      52.333  33.900  53.311  0.00  0.00    -0.240 N 
ATOM      3  C   UNL d   1      52.762  34.379  53.794  0.00  0.00     0.267 A 
ATOM      4  C   UNL d   1      53.287  33.914  54.189  0.00  0.00     0.061 A 
ATOM      5  O   UNL d   1      52.627  35.229  53.828  0.00  0.00    -0.267 OA
ATOM      6  C   UNL d   1      53.880  34.116  54.771  0.00  0.00     0.005 A 
ATOM      7  C   UNL d   1      53.193  33.149  53.960  0.00  0.00     0.061 A 
ATOM      8  C   UNL d   1      54.360  33.509  55.099  0.00  0.00     0.000 A 
ATOM      9  C   UNL d   1      54.266  32.744  54.869  0.00  0.00     0.000 A 
ATOM     10  C   UNL d   1      53.686  32.536  54.298  0.00  0.00     0.005 A 
ATOM     11  C   UNL d   1      52.605  33.104  53.412  0.00  0.00     0.267 A 
ATOM     12  O   UNL d   1      52.282  32.427  52.988  0.00  0.00    -0.267 OA
ENDBRANCH   1   2
BRANCH   1  13
ATOM     13  C   UNL d   1      50.964  34.156  53.056  0.00  0.00     0.082 C 
BRANCH  13  14
ATOM     14  C   UNL d   1      50.338  34.410  52.529  0.00  0.00     0.281 C 
ATOM     15  N   UNL d   1      49.672  34.829  52.882  0.00  0.00    -0.206 NA
ATOM     16  O   UNL d   1      50.395  34.250  51.746  0.00  0.00    -0.265 OA
BRANCH  15  17
ATOM     17  C   UNL d   1      49.046  35.083  52.354  0.00  0.00     0.102 C 
BRANCH  17  18
ATOM     18  C   UNL d   1      48.453  35.566  52.667  0.00  0.00     0.019 A 
ATOM     19  C   UNL d   1      48.448  35.812  53.414  0.00  0.00     0.002 A 
ATOM     20  C   UNL d   1      47.858  36.291  53.721  0.00  0.00     0.000 A 
ATOM     21  C   UNL d   1      47.222  36.530  53.197  0.00  0.00     0.000 A 
ATOM     22  C   UNL d   1      47.236  36.267  52.417  0.00  0.00     0.000 A 
ATOM     23  C   UNL d   1      47.817  35.805  52.144  0.00  0.00     0.002 A 
ENDBRANCH  17  18
ENDBRANCH  15  17
ENDBRANCH  13  14
ENDBRANCH   1  13
TORSDOF 5
ENDMDL
MODEL 2
REMARK VINA RESULT:      -7.5      0.860      5.377
REMARK  5 active torsions:
REMARK  status: ('A' for Active; 'I' for Inactive)
REMARK    1  A    between atoms: C_6  and  N_1 
REMARK    2  A    between atoms: C_7  and  C_6 
REMARK    3  A    between atoms: C_8  and  C_7 
REMARK       I    between atoms: N_11  and  C_8 
REMARK    4  A    between atoms: C_13  and  N_11 
REMARK    5  A    between atoms: C_16  and  C_13 
ROOT
ATOM      1  C   UNL d   1      50.148  34.211  52.438  0.00  0.00     0.091 C 
ENDROOT
BRANCH   1   2
ATOM      2  N   UNL d   1      49.455  34.716  52.417  0.00  0.00    -0.240 N 
ATOM      3  C   UNL d   1      49.195  35.202  53.002  0.00  0.00     0.267 A 
ATOM      4  C   UNL d   1      48.528  35.565  52.735  0.00  0.00     0.061 A 
ATOM      5  O   UNL d   1      49.609  35.270  53.755  0.00  0.00    -0.267 OA
ATOM      6  C   UNL d   1      48.015  36.135  53.114  0.00  0.00     0.005 A 
ATOM      7  C   UNL d   1      48.366  35.312  51.989  0.00  0.00     0.061 A 
ATOM      8  C   UNL d   1      47.345  36.427  52.699  0.00  0.00     0.000 A 
ATOM      9  C   UNL d   1      47.184  36.174  51.953  0.00  0.00     0.000 A 
ATOM     10  C   UNL d   1      47.682  35.613  51.573  0.00  0.00     0.005 A 
ATOM     11  C   UNL d   1      48.926  34.781  51.759  0.00  0.00     0.267 A 
ATOM     12  O   UNL d   1      49.017  34.344  51.021  0.00  0.00    -0.267 OA
ENDBRANCH   1   2
BRANCH   1  13
ATOM     13  C   UNL d   1      50.843  34.535  52.634  0.00  0.00     0.082 C 
BRANCH  13  14
ATOM     14  C   UNL d   1      51.552  34.060  52.549  0.00  0.00     0.281 C 
ATOM     15  N   UNL d   1      52.053  33.976  53.246  0.00  0.00    -0.206 NA
ATOM     16  O   UNL d   1      51.716  33.722  51.843  0.00  0.00    -0.265 OA
BRANCH  15  17
ATOM     17  C   UNL d   1      52.762  33.501  53.161  0.00  0.00     0.102 C 
BRANCH  17  18
ATOM     18  C   UNL d   1      53.250  33.418  53.823  0.00  0.00     0.019 A 
ATOM     19  C   UNL d   1      53.451  34.020  54.288  0.00  0.00     0.002 A 
ATOM     20  C   UNL d   1      53.935  33.934  54.943  0.00  0.00     0.000 A 
ATOM     21  C   UNL d   1      54.231  33.151  55.124  0.00  0.00     0.000 A 
ATOM     22  C   UNL d   1      54.016  32.526  54.631  0.00  0.00     0.000 A 
ATOM     23  C   UNL d   1      53.546  32.634  54.003  0.00  0.00     0.002 A 
ENDBRANCH  17  18
ENDBRANCH  15  17
ENDBRANCH  13  14
ENDBRANCH   1  13
TORSDOF 5
ENDMDL
MODEL 3
REMARK VINA RESULT:      -7.3      1.301      5.523
REMARK  5 active torsions:
REMARK  status: ('A' for Active; 'I' for Inactive)
REMARK    1  A    between atoms: C_6  and  N_1 
REMARK    2  A    between atoms: C_7  and  C_6 
REMARK    3  A    between atoms: C_8  and  C_7 
REMARK       I    between atoms: N_11  and  C_8 
REMARK    4  A    between atoms: C_13  and  N_11 
REMARK    5  A    between atoms: C_16  and  C_13 
ROOT
ATOM      1  C   UNL d   1      50.713  34.571  52.456  0.00  0.00     0.091 C 
ENDROOT
BRANCH   1   2
ATOM      2  N   UNL d   1      49.899  34.772  52.280  0.00  0.00    -0.240 N 
ATOM      3  C   UNL d   1      49.379  35.146  52.765  0.00  0.00     0.267 A 
ATOM      4  C   UNL d   1      48.684  35.215  52.365  0.00  0.00     0.061 A 
ATOM      5  O   UNL d   1      49.598  35.399  53.559  0.00  0.00    -0.267 OA
ATOM      6  C   UNL d   1      47.938  35.562  52.601  0.00  0.00     0.005 A 
ATOM      7  C   UNL d   1      48.762  34.888  51.634  0.00  0.00     0.061 A 
ATOM      8  C   UNL d   1      47.293  35.558  52.063  0.00  0.00     0.000 A 
ATOM      9  C   UNL d   1      47.371  35.231  51.332  0.00  0.00     0.000 A 
ATOM     10  C   UNL d   1      48.099  34.888  51.091  0.00  0.00     0.005 A 
ATOM     11  C   UNL d   1      49.509  34.602  51.547  0.00  0.00     0.267 A 
ATOM     12  O   UNL d   1      49.884  34.202  50.882  0.00  0.00    -0.267 OA
ENDBRANCH   1   2
BRANCH   1  13
ATOM     13  C   UNL d   1      50.859  33.896  52.844  0.00  0.00     0.082 C 
BRANCH  13  14
ATOM     14  C   UNL d   1      51.673  33.694  53.019  0.00  0.00     0.281 C 
ATOM     15  N   UNL d   1      51.884  32.858  52.999  0.00  0.00    -0.206 NA
ATOM     16  O   UNL d   1      52.194  34.277  53.190  0.00  0.00    -0.265 OA
BRANCH  15  17
ATOM     17  C   UNL d   1      52.698  32.656  53.174  0.00  0.00     0.102 C 
BRANCH  17  18
ATOM     18  C   UNL d   1      52.893  31.855  53.226  0.00  0.00     0.019 A 
ATOM     19  C   UNL d   1      52.499  31.291  52.842  0.00  0.00     0.002 A 
ATOM     20  C   UNL d   1      52.695  30.497  52.895  0.00  0.00     0.000 A 
ATOM     21  C   UNL d   1      53.358  30.279  53.392  0.00  0.00     0.000 A 
ATOM     22  C   UNL d   1      53.764  30.876  53.790  0.00  0.00     0.000 A 
ATOM     23  C   UNL d   1      53.556  31.637  53.723  0.00  0.00     0.002 A 
ENDBRANCH  17  18
ENDBRANCH  15  17
ENDBRANCH  13  14
ENDBRANCH   1  13
TORSDOF 5
ENDMDL
MODEL 4
REMARK VINA RESULT:      -7.2      1.578      2.536
REMARK  5 active torsions:
REMARK  status: ('A' for Active; 'I' for Inactive)
REMARK    1  A    between atoms: C_6  and  N_1 
REMARK    2  A    between atoms: C_7  and  C_6 
REMARK    3  A    between atoms: C_8  and  C_7 
REMARK       I    between atoms: N_11  and  C_8 
REMARK    4  A    between atoms: C_13  and  N_11 
REMARK    5  A    between atoms: C_16  and  C_13 
ROOT
ATOM      1  C   UNL d   1      52.662  33.021  53.204  0.00  0.00     0.091 C 
ENDROOT
BRANCH   1   2
ATOM      2  N   UNL d   1      52.866  32.198  53.333  0.00  0.00    -0.240 N 
ATOM      3  C   UNL d   1      52.690  31.577  52.854  0.00  0.00     0.267 A 
ATOM      4  C   UNL d   1      52.991  30.915  53.199  0.00  0.00     0.061 A 
ATOM      5  O   UNL d   1      52.254  31.680  52.118  0.00  0.00    -0.267 OA
ATOM      6  C   UNL d   1      52.974  30.098  52.944  0.00  0.00     0.005 A 
ATOM      7  C   UNL d   1      53.353  31.113  53.889  0.00  0.00     0.061 A 
ATOM      8  C   UNL d   1      53.338  29.510  53.420  0.00  0.00     0.000 A 
ATOM      9  C   UNL d   1      53.700  29.708  54.110  0.00  0.00     0.000 A 
ATOM     10  C   UNL d   1      53.722  30.508  54.369  0.00  0.00     0.005 A 
ATOM     11  C   UNL d   1      53.294  31.907  54.004  0.00  0.00     0.267 A 
ATOM     12  O   UNL d   1      53.581  32.406  54.646  0.00  0.00    -0.267 OA
ENDBRANCH   1   2
BRANCH   1  13
ATOM     13  C   UNL d   1      51.981  33.291  53.504  0.00  0.00     0.082 C 
BRANCH  13  14
ATOM     14  C   UNL d   1      51.684  34.044  53.223  0.00  0.00     0.281 C 
ATOM     15  N   UNL d   1      50.856  34.074  52.981  0.00  0.00    -0.206 NA
ATOM     16  O   UNL d   1      52.174  34.676  53.197  0.00  0.00    -0.265 OA
BRANCH  15  17
ATOM     17  C   UNL d   1      50.559  34.827  52.700  0.00  0.00     0.102 C 
BRANCH  17  18
ATOM     18  C   UNL d   1      49.793  34.846  52.389  0.00  0.00     0.019 A 
ATOM     19  C   UNL d   1      49.602  34.523  51.697  0.00  0.00     0.002 A 
ATOM     20  C   UNL d   1      48.841  34.543  51.392  0.00  0.00     0.000 A 
ATOM     21  C   UNL d   1      48.234  34.935  51.853  0.00  0.00     0.000 A 
ATOM     22  C   UNL d   1      48.444  35.270  52.576  0.00  0.00     0.000 A 
ATOM     23  C   UNL d   1      49.186  35.238  52.850  0.00  0.00     0.002 A 
ENDBRANCH  17  18
ENDBRANCH  15  17
ENDBRANCH  13  14
ENDBRANCH   1  13
TORSDOF 5
ENDMDL
MODEL 5
REMARK VINA RESULT:      -6.8      2.893      5.472
REMARK  5 active torsions:
REMARK  status: ('A' for Active; 'I' for Inactive)
REMARK    1  A    between atoms: C_6  and  N_1 
REMARK    2  A    between atoms: C_7  and  C_6 
REMARK    3  A    between atoms: C_8  and  C_7 
REMARK       I    between atoms: N_11  and  C_8 
REMARK    4  A    between atoms: C_13  and  N_11 
REMARK    5  A    between atoms: C_16  and  C_13 
ROOT
ATOM      1  C   UNL d   1      53.237  32.458  52.938  0.00  0.00     0.091 C 
ENDROOT
BRANCH   1   2
ATOM      2  N   UNL d   1      53.166  33.217  53.330  0.00  0.00    -0.240 N 
ATOM      3  C   UNL d   1      52.639  33.799  53.161  0.00  0.00     0.267 A 
ATOM      4  C   UNL d   1      52.779  34.406  53.671  0.00  0.00     0.061 A 
ATOM      5  O   UNL d   1      52.058  33.717  52.530  0.00  0.00    -0.267 OA
ATOM      6  C   UNL d   1      52.394  35.166  53.750  0.00  0.00     0.005 A 
ATOM      7  C   UNL d   1      53.387  34.211  54.159  0.00  0.00     0.061 A 
ATOM      8  C   UNL d   1      52.657  35.702  54.341  0.00  0.00     0.000 A 
ATOM      9  C   UNL d   1      53.265  35.507  54.829  0.00  0.00     0.000 A 
ATOM     10  C   UNL d   1      53.650  34.763  54.759  0.00  0.00     0.005 A 
ATOM     11  C   UNL d   1      53.653  33.474  53.974  0.00  0.00     0.267 A 
ATOM     12  O   UNL d   1      54.287  33.002  54.319  0.00  0.00    -0.267 OA
ENDBRANCH   1   2
BRANCH   1  13
ATOM     13  C   UNL d   1      52.643  31.939  53.012  0.00  0.00     0.082 C 
BRANCH  13  14
ATOM     14  C   UNL d   1      52.813  31.108  52.893  0.00  0.00     0.281 C 
ATOM     15  N   UNL d   1      52.878  30.615  53.598  0.00  0.00    -0.206 NA
ATOM     16  O   UNL d   1      52.901  30.827  52.149  0.00  0.00    -0.265 OA
BRANCH  15  17
ATOM     17  C   UNL d   1      53.048  29.784  53.479  0.00  0.00     0.102 C 
BRANCH  17  18
ATOM     18  C   UNL d   1      53.196  29.322  54.149  0.00  0.00     0.019 A 
ATOM     19  C   UNL d   1      52.979  29.536  54.875  0.00  0.00     0.002 A 
ATOM     20  C   UNL d   1      53.127  29.076  55.536  0.00  0.00     0.000 A 
ATOM     21  C   UNL d   1      53.537  28.331  55.424  0.00  0.00     0.000 A 
ATOM     22  C   UNL d   1      53.760  28.117  54.661  0.00  0.00     0.000 A 
ATOM     23  C   UNL d   1      53.606  28.578  54.037  0.00  0.00     0.002 A 
ENDBRANCH  17  18
ENDBRANCH  15  17
ENDBRANCH  13  14
ENDBRANCH   1  13
TORSDOF 5
ENDMDL
