MODEL 1
REMARK VINA RESULT:     -11.0      0.000      0.000
REMARK  5 active torsions:
REMARK  status: ('A' for Active; 'I' for Inactive)
REMARK    1  A    between atoms: N_5  and  C_1 
REMARK    2  A    between atoms: C_8  and  C_3 
REMARK       I    between atoms: C_7  and  N_5 
REMARK    3  A    between atoms: C_11  and  C_7 
REMARK    4  A    between atoms: C_21  and  C_20 
REMARK    5  A    between atoms: C_24  and  C_21 
ROOT
ATOM      1  N   UNL d   1      50.295  33.989  52.706  0.00  0.00    -0.165 NA
ATOM      2  C   UNL d   1      51.075  34.022  52.472  0.00  0.00     0.282 C 
ATOM      3  O   UNL d   1      51.290  34.416  51.778  0.00  0.00    -0.265 OA
ENDROOT
BRANCH   1   4
ATOM      4  C   UNL d   1      49.710  34.350  52.251  0.00  0.00     0.297 A 
ATOM      5  O   UNL d   1      49.050  34.742  52.549  0.00  0.00    -0.253 OA
ATOM      6  C   UNL d   1      48.609  35.021  51.906  0.00  0.00     0.206 A 
ATOM      7  N   UNL d   1      49.001  34.798  51.221  0.00  0.00    -0.119 NA
ATOM      8  N   UNL d   1      49.680  34.385  51.434  0.00  0.00    -0.101 NA
BRANCH   6   9
ATOM      9  C   UNL d   1      47.901  35.446  51.954  0.00  0.00     0.045 A 
ATOM     10  C   UNL d   1      47.236  35.202  51.517  0.00  0.00     0.030 A 
ATOM     11  C   UNL d   1      46.552  35.621  51.570  0.00  0.00     0.123 A 
ATOM     12  O   UNL d   1      45.894  35.370  51.130  0.00  0.00    -0.301 OA
ATOM     13  C   UNL d   1      46.498  36.285  52.048  0.00  0.00     0.123 A 
ATOM     14  C   UNL d   1      45.191  35.784  51.172  0.00  0.00     0.149 A 
ATOM     15  C   UNL d   1      45.136  36.452  51.653  0.00  0.00     0.149 A 
ATOM     16  O   UNL d   1      45.782  36.709  52.093  0.00  0.00    -0.301 OA
ATOM     17  C   UNL d   1      47.136  36.534  52.479  0.00  0.00     0.027 A 
ATOM     18  C   UNL d   1      47.854  36.116  52.439  0.00  0.00     0.006 A 
ENDBRANCH   6   9
ENDBRANCH   1   4
BRANCH   2  19
ATOM     19  C   UNL d   1      51.660  33.660  52.927  0.00  0.00     0.058 A 
ATOM     20  C   UNL d   1      52.008  32.969  52.644  0.00  0.00     0.005 A 
ATOM     21  C   UNL d   1      52.596  32.606  53.099  0.00  0.00     0.000 A 
ATOM     22  C   UNL d   1      52.829  32.929  53.821  0.00  0.00     0.000 A 
ATOM     23  C   UNL d   1      52.470  33.622  54.090  0.00  0.00     0.000 A 
ATOM     24  C   UNL d   1      51.886  33.985  53.639  0.00  0.00     0.005 A 
BRANCH  22  25
ATOM     25  C   UNL d   1      53.412  32.564  54.269  0.00  0.00     0.000 C 
BRANCH  25  26
ATOM     26  C   UNL d   1      54.112  32.963  54.445  0.00  0.00     0.000 A 
ATOM     27  C   UNL d   1      54.222  33.300  55.194  0.00  0.00     0.000 A 
ATOM     28  C   UNL d   1      54.922  33.698  55.366  0.00  0.00     0.000 A 
ATOM     29  C   UNL d   1      55.522  33.763  54.787  0.00  0.00     0.000 A 
ATOM     30  C   UNL d   1      55.409  33.427  54.041  0.00  0.00     0.000 A 
ATOM     31  C   UNL d   1      54.704  33.025  53.865  0.00  0.00     0.000 A 
ENDBRANCH  25  26
ENDBRANCH  22  25
ENDBRANCH   2  19
TORSDOF 5
ENDMDL
MODEL 2
REMARK VINA RESULT:     -10.5      1.766      6.903
REMARK  5 active torsions:
REMARK  status: ('A' for Active; 'I' for Inactive)
REMARK    1  A    between atoms: N_5  and  C_1 
REMARK    2  A    between atoms: C_8  and  C_3 
REMARK       I    between atoms: C_7  and  N_5 
REMARK    3  A    between atoms: C_11  and  C_7 
REMARK    4  A    between atoms: C_21  and  C_20 
REMARK    5  A    between atoms: C_24  and  C_21 
ROOT
ATOM      1  N   UNL d   1      50.181  34.694  52.875  0.00  0.00    -0.165 NA
ATOM      2  C   UNL d   1      49.583  34.758  52.325  0.00  0.00     0.282 C 
ATOM      3  O   UNL d   1      49.654  34.402  51.582  0.00  0.00    -0.265 OA
ENDROOT
BRANCH   1   4
ATOM      4  C   UNL d   1      50.865  34.271  52.696  0.00  0.00     0.297 A 
ATOM      5  O   UNL d   1      51.179  33.659  53.148  0.00  0.00    -0.253 OA
ATOM      6  C   UNL d   1      51.865  33.390  52.771  0.00  0.00     0.206 A 
ATOM      7  N   UNL d   1      51.967  33.838  52.092  0.00  0.00    -0.119 NA
ATOM      8  N   UNL d   1      51.350  34.381  52.046  0.00  0.00    -0.101 NA
BRANCH   6   9
ATOM      9  C   UNL d   1      52.354  32.779  53.038  0.00  0.00     0.045 A 
ATOM     10  C   UNL d   1      52.165  31.986  52.864  0.00  0.00     0.030 A 
ATOM     11  C   UNL d   1      52.646  31.398  53.127  0.00  0.00     0.123 A 
ATOM     12  O   UNL d   1      52.450  30.611  52.949  0.00  0.00    -0.301 OA
ATOM     13  C   UNL d   1      53.319  31.565  53.564  0.00  0.00     0.123 A 
ATOM     14  C   UNL d   1      52.927  30.002  53.209  0.00  0.00     0.149 A 
ATOM     15  C   UNL d   1      53.605  30.168  53.648  0.00  0.00     0.149 A 
ATOM     16  O   UNL d   1      53.808  30.945  53.830  0.00  0.00    -0.301 OA
ATOM     17  C   UNL d   1      53.516  32.330  53.741  0.00  0.00     0.027 A 
ATOM     18  C   UNL d   1      53.032  32.954  53.479  0.00  0.00     0.006 A 
ENDBRANCH   6   9
ENDBRANCH   1   4
BRANCH   2  19
ATOM     19  C   UNL d   1      48.898  35.181  52.503  0.00  0.00     0.058 A 
ATOM     20  C   UNL d   1      48.309  35.236  51.931  0.00  0.00     0.005 A 
ATOM     21  C   UNL d   1      47.621  35.660  52.109  0.00  0.00     0.000 A 
ATOM     22  C   UNL d   1      47.527  36.020  52.845  0.00  0.00     0.000 A 
ATOM     23  C   UNL d   1      48.127  35.956  53.408  0.00  0.00     0.000 A 
ATOM     24  C   UNL d   1      48.812  35.535  53.233  0.00  0.00     0.005 A 
BRANCH  22  25
ATOM     25  C   UNL d   1      46.842  36.440  53.016  0.00  0.00     0.000 C 
BRANCH  25  26
ATOM     26  C   UNL d   1      46.188  36.054  53.339  0.00  0.00     0.000 A 
ATOM     27  C   UNL d   1      46.121  35.967  54.160  0.00  0.00     0.000 A 
ATOM     28  C   UNL d   1      45.466  35.581  54.479  0.00  0.00     0.000 A 
ATOM     29  C   UNL d   1      44.871  35.279  53.976  0.00  0.00     0.000 A 
ATOM     30  C   UNL d   1      44.941  35.368  53.158  0.00  0.00     0.000 A 
ATOM     31  C   UNL d   1      45.600  35.756  52.834  0.00  0.00     0.000 A 
ENDBRANCH  25  26
ENDBRANCH  22  25
ENDBRANCH   2  19
TORSDOF 5
ENDMDL
MODEL 3
REMARK VINA RESULT:     -10.0      1.313      2.042
REMARK  5 active torsions:
REMARK  status: ('A' for Active; 'I' for Inactive)
REMARK    1  A    between atoms: N_5  and  C_1 
REMARK    2  A    between atoms: C_8  and  C_3 
REMARK       I    between atoms: C_7  and  N_5 
REMARK    3  A    between atoms: C_11  and  C_7 
REMARK    4  A    between atoms: C_21  and  C_20 
REMARK    5  A    between atoms: C_24  and  C_21 
ROOT
ATOM      1  N   UNL d   1      50.604  33.946  53.211  0.00  0.00    -0.165 NA
ATOM      2  C   UNL d   1      51.387  34.119  53.070  0.00  0.00     0.282 C 
ATOM      3  O   UNL d   1      51.617  34.881  52.848  0.00  0.00    -0.265 OA
ENDROOT
BRANCH   1   4
ATOM      4  C   UNL d   1      50.029  34.531  53.134  0.00  0.00     0.297 A 
ATOM      5  O   UNL d   1      49.374  34.493  52.637  0.00  0.00    -0.253 OA
ATOM      6  C   UNL d   1      48.943  35.193  52.730  0.00  0.00     0.206 A 
ATOM      7  N   UNL d   1      49.337  35.655  53.280  0.00  0.00    -0.119 NA
ATOM      8  N   UNL d   1      50.006  35.247  53.530  0.00  0.00    -0.101 NA
BRANCH   6   9
ATOM      9  C   UNL d   1      48.242  35.385  52.333  0.00  0.00     0.045 A 
ATOM     10  C   UNL d   1      47.640  35.804  52.728  0.00  0.00     0.030 A 
ATOM     11  C   UNL d   1      46.963  35.986  52.336  0.00  0.00     0.123 A 
ATOM     12  O   UNL d   1      46.368  36.404  52.736  0.00  0.00    -0.301 OA
ATOM     13  C   UNL d   1      46.854  35.766  51.553  0.00  0.00     0.123 A 
ATOM     14  C   UNL d   1      45.673  36.597  52.353  0.00  0.00     0.149 A 
ATOM     15  C   UNL d   1      45.563  36.376  51.566  0.00  0.00     0.149 A 
ATOM     16  O   UNL d   1      46.146  35.961  51.159  0.00  0.00    -0.301 OA
ATOM     17  C   UNL d   1      47.430  35.358  51.157  0.00  0.00     0.027 A 
ATOM     18  C   UNL d   1      48.139  35.159  51.544  0.00  0.00     0.006 A 
ENDBRANCH   6   9
ENDBRANCH   1   4
BRANCH   2  19
ATOM     19  C   UNL d   1      51.963  33.533  53.148  0.00  0.00     0.058 A 
ATOM     20  C   UNL d   1      52.078  33.009  52.523  0.00  0.00     0.005 A 
ATOM     21  C   UNL d   1      52.655  32.421  52.600  0.00  0.00     0.000 A 
ATOM     22  C   UNL d   1      53.106  32.361  53.289  0.00  0.00     0.000 A 
ATOM     23  C   UNL d   1      52.978  32.894  53.905  0.00  0.00     0.000 A 
ATOM     24  C   UNL d   1      52.405  33.479  53.831  0.00  0.00     0.005 A 
BRANCH  22  25
ATOM     25  C   UNL d   1      53.677  31.775  53.359  0.00  0.00     0.000 C 
BRANCH  25  26
ATOM     26  C   UNL d   1      53.457  30.997  53.518  0.00  0.00     0.000 A 
ATOM     27  C   UNL d   1      53.204  30.503  52.903  0.00  0.00     0.000 A 
ATOM     28  C   UNL d   1      52.984  29.725  53.065  0.00  0.00     0.000 A 
ATOM     29  C   UNL d   1      53.016  29.435  53.848  0.00  0.00     0.000 A 
ATOM     30  C   UNL d   1      53.269  29.930  54.459  0.00  0.00     0.000 A 
ATOM     31  C   UNL d   1      53.490  30.713  54.298  0.00  0.00     0.000 A 
ENDBRANCH  25  26
ENDBRANCH  22  25
ENDBRANCH   2  19
TORSDOF 5
ENDMDL
