MODEL 1
REMARK VINA RESULT:      -2.8      0.000      0.000
REMARK  2 active torsions:
REMARK  status: ('A' for Active; 'I' for Inactive)
REMARK    1  A    between atoms: C_2  and  C_1 
REMARK       I    between atoms: N_3  and  C_2 
REMARK    2  A    between atoms: C_6  and  N_3 
ROOT
ATOM      1  C   UNL d   1      31.180  16.428 -23.995  0.00  0.00     0.303 C 
ATOM      2  N   UNL d   1      30.524  16.536 -24.493  0.00  0.00    -0.206 NA
ATOM      3  O   UNL d   1      31.068  16.334 -23.185  0.00  0.00    -0.263 OA
ENDROOT
BRANCH   2   4
ATOM      4  C   UNL d   1      29.763  16.547 -24.171  0.00  0.00     0.086 A 
ATOM      5  C   UNL d   1      29.550  15.990 -23.593  0.00  0.00     0.031 A 
ATOM      6  C   UNL d   1      28.791  16.012 -23.281  0.00  0.00     0.059 A 
ATOM      7 CL   UNL d   1      28.585  15.457 -22.708  0.00  0.00    -0.082 Cl
ATOM      8  C   UNL d   1      28.256  16.574 -23.537  0.00  0.00     0.011 A 
ATOM      9  C   UNL d   1      28.457  17.124 -24.104  0.00  0.00     0.002 A 
ATOM     10  C   UNL d   1      29.218  17.114 -24.427  0.00  0.00     0.018 A 
ATOM     11  C   UNL d   1      29.427  17.658 -24.992  0.00  0.00     0.002 C 
ENDBRANCH   2   4
BRANCH   1  12
ATOM     12  C   UNL d   1      31.941  16.417 -24.316  0.00  0.00     0.176 A 
ATOM     13  C   UNL d   1      32.588  16.857 -24.045  0.00  0.00     0.110 A 
ATOM     14  N   UNL d   1      33.237  16.680 -24.521  0.00  0.00    -0.233 NA
ATOM     15  C   UNL d   1      32.581  17.377 -23.411  0.00  0.00     0.023 C 
ATOM     16  C   UNL d   1      32.989  16.125 -25.093  0.00  0.00     0.259 A 
ATOM     17  O   UNL d   1      32.187  15.968 -24.959  0.00  0.00    -0.296 OA
ENDBRANCH   1  12
TORSDOF 2
ENDMDL
MODEL 2
REMARK VINA RESULT:      -2.8      1.740      3.666
REMARK  2 active torsions:
REMARK  status: ('A' for Active; 'I' for Inactive)
REMARK    1  A    between atoms: C_2  and  C_1 
REMARK       I    between atoms: N_3  and  C_2 
REMARK    2  A    between atoms: C_6  and  N_3 
ROOT
ATOM      1  C   UNL d   1      30.407  16.582 -23.901  0.00  0.00     0.303 C 
ATOM      2  N   UNL d   1      31.104  16.280 -23.563  0.00  0.00    -0.206 NA
ATOM      3  O   UNL d   1      30.435  17.273 -24.346  0.00  0.00    -0.263 OA
ENDROOT
BRANCH   2   4
ATOM      4  C   UNL d   1      31.820  16.677 -23.677  0.00  0.00     0.086 A 
ATOM      5  C   UNL d   1      31.862  17.498 -23.553  0.00  0.00     0.031 A 
ATOM      6  C   UNL d   1      32.579  17.879 -23.670  0.00  0.00     0.059 A 
ATOM      7 CL   UNL d   1      32.615  18.694 -23.545  0.00  0.00    -0.082 Cl
ATOM      8  C   UNL d   1      33.238  17.458 -23.904  0.00  0.00     0.011 A 
ATOM      9  C   UNL d   1      33.205  16.653 -24.028  0.00  0.00     0.002 A 
ATOM     10  C   UNL d   1      32.490  16.255 -23.914  0.00  0.00     0.018 A 
ATOM     11  C   UNL d   1      32.448  15.453 -24.036  0.00  0.00     0.002 C 
ENDBRANCH   2   4
BRANCH   1  12
ATOM     12  C   UNL d   1      29.692  16.185 -23.787  0.00  0.00     0.176 A 
ATOM     13  C   UNL d   1      29.079  16.124 -24.340  0.00  0.00     0.110 A 
ATOM     14  N   UNL d   1      28.470  15.683 -24.002  0.00  0.00    -0.233 NA
ATOM     15  C   UNL d   1      29.080  16.448 -25.093  0.00  0.00     0.023 C 
ATOM     16  C   UNL d   1      28.709  15.469 -23.231  0.00  0.00     0.259 A 
ATOM     17  O   UNL d   1      29.465  15.783 -23.107  0.00  0.00    -0.296 OA
ENDBRANCH   1  12
TORSDOF 2
ENDMDL
MODEL 3
REMARK VINA RESULT:      -2.5      1.437      1.892
REMARK  2 active torsions:
REMARK  status: ('A' for Active; 'I' for Inactive)
REMARK    1  A    between atoms: C_2  and  C_1 
REMARK       I    between atoms: N_3  and  C_2 
REMARK    2  A    between atoms: C_6  and  N_3 
ROOT
ATOM      1  C   UNL d   1      31.380  17.611 -24.143  0.00  0.00     0.303 C 
ATOM      2  N   UNL d   1      31.215  16.813 -23.984  0.00  0.00    -0.206 NA
ATOM      3  O   UNL d   1      30.822  18.076 -24.530  0.00  0.00    -0.263 OA
ENDROOT
BRANCH   2   4
ATOM      4  C   UNL d   1      30.489  16.492 -24.214  0.00  0.00     0.086 A 
ATOM      5  C   UNL d   1      29.781  16.856 -23.976  0.00  0.00     0.031 A 
ATOM      6  C   UNL d   1      29.067  16.526 -24.212  0.00  0.00     0.059 A 
ATOM      7 CL   UNL d   1      28.367  16.891 -23.973  0.00  0.00    -0.082 Cl
ATOM      8  C   UNL d   1      29.056  15.852 -24.673  0.00  0.00     0.011 A 
ATOM      9  C   UNL d   1      29.747  15.488 -24.911  0.00  0.00     0.002 A 
ATOM     10  C   UNL d   1      30.472  15.809 -24.681  0.00  0.00     0.018 A 
ATOM     11  C   UNL d   1      31.165  15.454 -24.913  0.00  0.00     0.002 C 
ENDBRANCH   2   4
BRANCH   1  12
ATOM     12  C   UNL d   1      32.105  17.933 -23.913  0.00  0.00     0.176 A 
ATOM     13  C   UNL d   1      32.562  18.463 -24.356  0.00  0.00     0.110 A 
ATOM     14  N   UNL d   1      33.240  18.643 -23.922  0.00  0.00    -0.233 NA
ATOM     15  C   UNL d   1      32.371  18.758 -25.096  0.00  0.00     0.023 C 
ATOM     16  C   UNL d   1      33.202  18.219 -23.204  0.00  0.00     0.259 A 
ATOM     17  O   UNL d   1      32.498  17.783 -23.207  0.00  0.00    -0.296 OA
ENDBRANCH   1  12
TORSDOF 2
ENDMDL
MODEL 4
REMARK VINA RESULT:      -2.1      2.480      3.957
REMARK  2 active torsions:
REMARK  status: ('A' for Active; 'I' for Inactive)
REMARK    1  A    between atoms: C_2  and  C_1 
REMARK       I    between atoms: N_3  and  C_2 
REMARK    2  A    between atoms: C_6  and  N_3 
ROOT
ATOM      1  C   UNL d   1      32.603  17.731 -23.454  0.00  0.00     0.303 C 
ATOM      2  N   UNL d   1      33.189  18.273 -23.683  0.00  0.00    -0.206 NA
ATOM      3  O   UNL d   1      32.044  17.946 -22.891  0.00  0.00    -0.263 OA
ENDROOT
BRANCH   2   4
ATOM      4  C   UNL d   1      33.205  19.027 -23.343  0.00  0.00     0.086 A 
ATOM      5  C   UNL d   1      33.202  19.107 -22.516  0.00  0.00     0.031 A 
ATOM      6  C   UNL d   1      33.219  19.860 -22.191  0.00  0.00     0.059 A 
ATOM      7 CL   UNL d   1      33.215  19.934 -21.370  0.00  0.00    -0.082 Cl
ATOM      8  C   UNL d   1      33.238  20.518 -22.674  0.00  0.00     0.011 A 
ATOM      9  C   UNL d   1      33.241  20.448 -23.487  0.00  0.00     0.002 A 
ATOM     10  C   UNL d   1      33.225  19.695 -23.828  0.00  0.00     0.018 A 
ATOM     11  C   UNL d   1      33.228  19.616 -24.637  0.00  0.00     0.002 C 
ENDBRANCH   2   4
BRANCH   1  12
ATOM     12  C   UNL d   1      32.587  16.979 -23.794  0.00  0.00     0.176 A 
ATOM     13  C   UNL d   1      31.908  16.523 -23.928  0.00  0.00     0.110 A 
ATOM     14  N   UNL d   1      32.141  15.812 -24.276  0.00  0.00    -0.233 NA
ATOM     15  C   UNL d   1      31.140  16.743 -23.746  0.00  0.00     0.023 C 
ATOM     16  C   UNL d   1      32.971  15.829 -24.357  0.00  0.00     0.259 A 
ATOM     17  O   UNL d   1      33.238  16.552 -24.057  0.00  0.00    -0.296 OA
ENDBRANCH   1  12
TORSDOF 2
ENDMDL
MODEL 5
REMARK VINA RESULT:      -2.1      5.273      6.509
REMARK  2 active torsions:
REMARK  status: ('A' for Active; 'I' for Inactive)
REMARK    1  A    between atoms: C_2  and  C_1 
REMARK       I    between atoms: N_3  and  C_2 
REMARK    2  A    between atoms: C_6  and  N_3 
ROOT
ATOM      1  C   UNL d   1      32.417  21.737 -21.241  0.00  0.00     0.303 C 
ATOM      2  N   UNL d   1      32.985  21.712 -21.847  0.00  0.00    -0.206 NA
ATOM      3  O   UNL d   1      31.944  21.080 -21.096  0.00  0.00    -0.263 OA
ENDROOT
BRANCH   2   4
ATOM      4  C   UNL d   1      33.071  21.026 -22.300  0.00  0.00     0.086 A 
ATOM      5  C   UNL d   1      33.102  20.285 -21.925  0.00  0.00     0.031 A 
ATOM      6  C   UNL d   1      33.187  19.612 -22.387  0.00  0.00     0.059 A 
ATOM      7 CL   UNL d   1      33.217  18.878 -22.011  0.00  0.00    -0.082 Cl
ATOM      8  C   UNL d   1      33.241  19.672 -23.199  0.00  0.00     0.011 A 
ATOM      9  C   UNL d   1      33.212  20.396 -23.574  0.00  0.00     0.002 A 
ATOM     10  C   UNL d   1      33.126  21.082 -23.122  0.00  0.00     0.018 A 
ATOM     11  C   UNL d   1      33.096  21.807 -23.487  0.00  0.00     0.002 C 
ENDBRANCH   2   4
BRANCH   1  12
ATOM     12  C   UNL d   1      32.331  22.423 -20.789  0.00  0.00     0.176 A 
ATOM     13  C   UNL d   1      32.667  22.556 -20.043  0.00  0.00     0.110 A 
ATOM     14  N   UNL d   1      32.442  23.308 -19.791  0.00  0.00    -0.233 NA
ATOM     15  C   UNL d   1      33.140  22.029 -19.630  0.00  0.00     0.023 C 
ATOM     16  C   UNL d   1      31.962  23.643 -20.386  0.00  0.00     0.259 A 
ATOM     17  O   UNL d   1      31.899  23.090 -20.998  0.00  0.00    -0.296 OA
ENDBRANCH   1  12
TORSDOF 2
ENDMDL
MODEL 6
REMARK VINA RESULT:      -1.9      5.296      6.396
REMARK  2 active torsions:
REMARK  status: ('A' for Active; 'I' for Inactive)
REMARK    1  A    between atoms: C_2  and  C_1 
REMARK       I    between atoms: N_3  and  C_2 
REMARK    2  A    between atoms: C_6  and  N_3 
ROOT
ATOM      1  C   UNL d   1      32.886  20.985 -21.933  0.00  0.00     0.303 C 
ATOM      2  N   UNL d   1      33.125  21.778 -21.995  0.00  0.00    -0.206 NA
ATOM      3  O   UNL d   1      32.519  20.720 -21.246  0.00  0.00    -0.263 OA
ENDROOT
BRANCH   2   4
ATOM      4  C   UNL d   1      32.992  22.296 -21.364  0.00  0.00     0.086 A 
ATOM      5  C   UNL d   1      33.185  22.063 -20.590  0.00  0.00     0.031 A 
ATOM      6  C   UNL d   1      33.048  22.587 -19.974  0.00  0.00     0.059 A 
ATOM      7 CL   UNL d   1      33.241  22.351 -19.207  0.00  0.00    -0.082 Cl
ATOM      8  C   UNL d   1      32.728  23.324 -20.120  0.00  0.00     0.011 A 
ATOM      9  C   UNL d   1      32.536  23.560 -20.877  0.00  0.00     0.002 A 
ATOM     10  C   UNL d   1      32.669  23.043 -21.508  0.00  0.00     0.018 A 
ATOM     11  C   UNL d   1      32.481  23.270 -22.265  0.00  0.00     0.002 C 
ENDBRANCH   2   4
BRANCH   1  12
ATOM     12  C   UNL d   1      33.018  20.468 -22.563  0.00  0.00     0.176 A 
ATOM     13  C   UNL d   1      33.126  19.649 -22.502  0.00  0.00     0.110 A 
ATOM     14  N   UNL d   1      33.241  19.347 -23.261  0.00  0.00    -0.233 NA
ATOM     15  C   UNL d   1      33.119  19.215 -21.806  0.00  0.00     0.023 C 
ATOM     16  C   UNL d   1      33.204  19.987 -23.796  0.00  0.00     0.259 A 
ATOM     17  O   UNL d   1      33.066  20.674 -23.357  0.00  0.00    -0.296 OA
ENDBRANCH   1  12
TORSDOF 2
ENDMDL
MODEL 7
REMARK VINA RESULT:      -1.7      2.827      3.831
REMARK  2 active torsions:
REMARK  status: ('A' for Active; 'I' for Inactive)
REMARK    1  A    between atoms: C_2  and  C_1 
REMARK       I    between atoms: N_3  and  C_2 
REMARK    2  A    between atoms: C_6  and  N_3 
ROOT
ATOM      1  C   UNL d   1      32.915  19.100 -23.055  0.00  0.00     0.303 C 
ATOM      2  N   UNL d   1      32.588  18.813 -23.762  0.00  0.00    -0.206 NA
ATOM      3  O   UNL d   1      33.116  18.576 -22.454  0.00  0.00    -0.263 OA
ENDROOT
BRANCH   2   4
ATOM      4  C   UNL d   1      32.465  18.001 -23.857  0.00  0.00     0.086 A 
ATOM      5  C   UNL d   1      32.914  17.461 -23.413  0.00  0.00     0.031 A 
ATOM      6  C   UNL d   1      32.783  16.658 -23.517  0.00  0.00     0.059 A 
ATOM      7 CL   UNL d   1      33.231  16.125 -23.074  0.00  0.00    -0.082 Cl
ATOM      8  C   UNL d   1      32.220  16.396 -24.047  0.00  0.00     0.011 A 
ATOM      9  C   UNL d   1      31.775  16.920 -24.487  0.00  0.00     0.002 A 
ATOM     10  C   UNL d   1      31.897  17.732 -24.393  0.00  0.00     0.018 A 
ATOM     11  C   UNL d   1      31.458  18.261 -24.826  0.00  0.00     0.002 C 
ENDBRANCH   2   4
BRANCH   1  12
ATOM     12  C   UNL d   1      33.038  19.912 -22.960  0.00  0.00     0.176 A 
ATOM     13  C   UNL d   1      33.086  20.313 -22.237  0.00  0.00     0.110 A 
ATOM     14  N   UNL d   1      33.211  21.113 -22.395  0.00  0.00    -0.233 NA
ATOM     15  C   UNL d   1      33.020  19.971 -21.495  0.00  0.00     0.023 C 
ATOM     16  C   UNL d   1      33.241  21.207 -23.224  0.00  0.00     0.259 A 
ATOM     17  O   UNL d   1      33.133  20.460 -23.565  0.00  0.00    -0.296 OA
ENDBRANCH   1  12
TORSDOF 2
ENDMDL
MODEL 8
REMARK VINA RESULT:      -1.7      4.688      5.889
REMARK  2 active torsions:
REMARK  status: ('A' for Active; 'I' for Inactive)
REMARK    1  A    between atoms: C_2  and  C_1 
REMARK       I    between atoms: N_3  and  C_2 
REMARK    2  A    between atoms: C_6  and  N_3 
ROOT
ATOM      1  C   UNL d   1      33.084  20.393 -22.534  0.00  0.00     0.303 C 
ATOM      2  N   UNL d   1      32.876  20.677 -21.782  0.00  0.00    -0.206 NA
ATOM      3  O   UNL d   1      33.234  20.923 -23.145  0.00  0.00    -0.263 OA
ENDROOT
BRANCH   2   4
ATOM      4  C   UNL d   1      32.821  21.492 -21.653  0.00  0.00     0.086 A 
ATOM      5  C   UNL d   1      33.061  22.022 -22.247  0.00  0.00     0.031 A 
ATOM      6  C   UNL d   1      33.001  22.828 -22.105  0.00  0.00     0.059 A 
ATOM      7 CL   UNL d   1      33.240  23.350 -22.698  0.00  0.00    -0.082 Cl
ATOM      8  C   UNL d   1      32.712  23.103 -21.393  0.00  0.00     0.011 A 
ATOM      9  C   UNL d   1      32.475  22.589 -20.805  0.00  0.00     0.002 A 
ATOM     10  C   UNL d   1      32.529  21.775 -20.933  0.00  0.00     0.018 A 
ATOM     11  C   UNL d   1      32.296  21.256 -20.353  0.00  0.00     0.002 C 
ENDBRANCH   2   4
BRANCH   1  12
ATOM     12  C   UNL d   1      33.138  19.579 -22.664  0.00  0.00     0.176 A 
ATOM     13  C   UNL d   1      33.146  19.206 -23.403  0.00  0.00     0.110 A 
ATOM     14  N   UNL d   1      33.207  18.393 -23.280  0.00  0.00    -0.233 NA
ATOM     15  C   UNL d   1      33.102  19.583 -24.130  0.00  0.00     0.023 C 
ATOM     16  C   UNL d   1      33.237  18.262 -22.456  0.00  0.00     0.259 A 
ATOM     17  O   UNL d   1      33.194  19.000 -22.084  0.00  0.00    -0.296 OA
ENDBRANCH   1  12
TORSDOF 2
ENDMDL
MODEL 9
REMARK VINA RESULT:      -1.4      3.681      4.987
REMARK  2 active torsions:
REMARK  status: ('A' for Active; 'I' for Inactive)
REMARK    1  A    between atoms: C_2  and  C_1 
REMARK       I    between atoms: N_3  and  C_2 
REMARK    2  A    between atoms: C_6  and  N_3 
ROOT
ATOM      1  C   UNL d   1      32.832  19.467 -23.161  0.00  0.00     0.303 C 
ATOM      2  N   UNL d   1      33.240  20.191 -23.161  0.00  0.00    -0.206 NA
ATOM      3  O   UNL d   1      32.428  19.225 -22.486  0.00  0.00    -0.263 OA
ENDROOT
BRANCH   2   4
ATOM      4  C   UNL d   1      33.237  20.663 -22.482  0.00  0.00     0.086 A 
ATOM      5  C   UNL d   1      33.237  20.307 -21.732  0.00  0.00     0.031 A 
ATOM      6  C   UNL d   1      33.234  20.787 -21.066  0.00  0.00     0.059 A 
ATOM      7 CL   UNL d   1      33.235  20.429 -20.323  0.00  0.00    -0.082 Cl
ATOM      8  C   UNL d   1      33.232  21.600 -21.143  0.00  0.00     0.011 A 
ATOM      9  C   UNL d   1      33.231  21.957 -21.876  0.00  0.00     0.002 A 
ATOM     10  C   UNL d   1      33.234  21.486 -22.555  0.00  0.00     0.018 A 
ATOM     11  C   UNL d   1      33.234  21.833 -23.290  0.00  0.00     0.002 C 
ENDBRANCH   2   4
BRANCH   1  12
ATOM     12  C   UNL d   1      32.835  18.996 -23.839  0.00  0.00     0.176 A 
ATOM     13  C   UNL d   1      32.553  18.219 -23.889  0.00  0.00     0.110 A 
ATOM     14  N   UNL d   1      32.661  17.956 -24.664  0.00  0.00    -0.233 NA
ATOM     15  C   UNL d   1      32.224  17.788 -23.274  0.00  0.00     0.023 C 
ATOM     16  C   UNL d   1      33.013  18.577 -25.096  0.00  0.00     0.259 A 
ATOM     17  O   UNL d   1      33.117  19.215 -24.579  0.00  0.00    -0.296 OA
ENDBRANCH   1  12
TORSDOF 2
ENDMDL
