MODEL 1
REMARK VINA RESULT:      47.1      0.000      0.000
REMARK  4 active torsions:
REMARK  status: ('A' for Active; 'I' for Inactive)
REMARK    1  A    between atoms: S_2  and  C_1 
REMARK    2  A    between atoms: C_10  and  S_2 
REMARK    3  A    between atoms: N_7  and  C_4 
REMARK    4  A    between atoms: C_8  and  N_7 
ROOT
ATOM      1  C   UNL d   1     -54.738-101.009 -41.683  0.00  0.00     0.187 A 
ATOM      2  N   UNL d   1     -54.747-101.821 -41.529  0.00  0.00    -0.208 NA
ATOM      3  C   UNL d   1     -54.738-101.924 -40.718  0.00  0.00     0.198 A 
ATOM      4  C   UNL d   1     -54.725-100.616 -40.961  0.00  0.00     0.118 A 
ATOM      5  S   UNL d   1     -54.725-101.183 -40.365  0.00  0.00    -0.035 SA
ATOM      6 CL   UNL d   1     -54.713 -99.782 -40.848  0.00  0.00    -0.073 Cl
ENDROOT
BRANCH   1   7
ATOM      7  S   UNL d   1     -54.741-100.580 -42.388  0.00  0.00     0.228 S 
ATOM      8  O   UNL d   1     -54.738-101.285 -42.817  0.00  0.00    -0.216 OA
ATOM      9  O   UNL d   1     -54.745 -99.876 -41.958  0.00  0.00    -0.216 OA
BRANCH   7  10
ATOM     10  C   UNL d   1     -54.744-100.151 -43.092  0.00  0.00     0.089 A 
ATOM     11  C   UNL d   1     -54.765-100.551 -43.819  0.00  0.00     0.011 A 
ATOM     12  C   UNL d   1     -54.768-100.118 -44.531  0.00  0.00     0.001 A 
ATOM     13  C   UNL d   1     -54.750 -99.288 -44.509  0.00  0.00     0.000 A 
ATOM     14  C   UNL d   1     -54.729 -98.894 -43.786  0.00  0.00     0.001 A 
ATOM     15  C   UNL d   1     -54.753 -98.860 -45.213  0.00  0.00     0.000 C 
ATOM     16  C   UNL d   1     -54.726 -99.328 -43.074  0.00  0.00     0.011 A 
ENDBRANCH   7  10
ENDBRANCH   1   7
BRANCH   3  17
ATOM     17  N   UNL d   1     -54.743-102.657 -40.331  0.00  0.00    -0.196 NA
BRANCH  17  18
ATOM     18  C   UNL d   1     -55.143-102.740 -39.616  0.00  0.00     0.196 A 
ATOM     19  N   UNL d   1     -55.948-102.778 -39.434  0.00  0.00    -0.219 NA
ATOM     20  C   UNL d   1     -56.018-102.862 -38.619  0.00  0.00     0.108 A 
ATOM     21  C   UNL d   1     -55.263-102.877 -38.295  0.00  0.00     0.059 A 
ATOM     22  S   UNL d   1     -54.724-102.802 -38.909  0.00  0.00    -0.046 SA
ENDBRANCH  17  18
ENDBRANCH   3  17
TORSDOF 4
ENDMDL
MODEL 2
REMARK VINA RESULT:      48.3      1.708      4.709
REMARK  4 active torsions:
REMARK  status: ('A' for Active; 'I' for Inactive)
REMARK    1  A    between atoms: S_2  and  C_1 
REMARK    2  A    between atoms: C_10  and  S_2 
REMARK    3  A    between atoms: N_7  and  C_4 
REMARK    4  A    between atoms: C_8  and  N_7 
ROOT
ATOM      1  C   UNL d   1     -54.819-101.435 -42.066  0.00  0.00     0.187 A 
ATOM      2  N   UNL d   1     -54.714-100.708 -42.445  0.00  0.00    -0.208 NA
ATOM      3  C   UNL d   1     -54.782-100.831 -43.250  0.00  0.00     0.198 A 
ATOM      4  C   UNL d   1     -54.951-102.004 -42.645  0.00  0.00     0.118 A 
ATOM      5  S   UNL d   1     -54.928-101.628 -43.376  0.00  0.00    -0.035 SA
ATOM      6 CL   UNL d   1     -55.086-102.824 -42.515  0.00  0.00    -0.073 Cl
ENDROOT
BRANCH   1   7
ATOM      7  S   UNL d   1     -54.810-101.649 -41.269  0.00  0.00     0.228 S 
ATOM      8  O   UNL d   1     -54.712-100.858 -41.057  0.00  0.00    -0.216 OA
ATOM      9  O   UNL d   1     -54.908-102.441 -41.482  0.00  0.00    -0.216 OA
BRANCH   7  10
ATOM     10  C   UNL d   1     -54.801-101.864 -40.473  0.00  0.00     0.089 A 
ATOM     11  C   UNL d   1     -54.802-101.277 -39.887  0.00  0.00     0.011 A 
ATOM     12  C   UNL d   1     -54.793-101.494 -39.082  0.00  0.00     0.001 A 
ATOM     13  C   UNL d   1     -54.783-102.296 -38.871  0.00  0.00     0.000 A 
ATOM     14  C   UNL d   1     -54.783-102.877 -39.456  0.00  0.00     0.001 A 
ATOM     15  C   UNL d   1     -54.775-102.511 -38.076  0.00  0.00     0.000 C 
ATOM     16  C   UNL d   1     -54.792-102.660 -40.260  0.00  0.00     0.011 A 
ENDBRANCH   7  10
ENDBRANCH   1   7
BRANCH   3  17
ATOM     17  N   UNL d   1     -54.713-100.242 -43.829  0.00  0.00    -0.196 NA
BRANCH  17  18
ATOM     18  C   UNL d   1     -55.373 -99.797 -44.040  0.00  0.00     0.196 A 
ATOM     19  N   UNL d   1     -56.112 -99.700 -43.684  0.00  0.00    -0.219 NA
ATOM     20  C   UNL d   1     -56.551 -99.184 -44.151  0.00  0.00     0.108 A 
ATOM     21  C   UNL d   1     -56.089 -98.961 -44.793  0.00  0.00     0.059 A 
ATOM     22  S   UNL d   1     -55.364 -99.339 -44.726  0.00  0.00    -0.046 SA
ENDBRANCH  17  18
ENDBRANCH   3  17
TORSDOF 4
ENDMDL
