MODEL 1
REMARK VINA RESULT:      27.4      0.000      0.000
REMARK  4 active torsions:
REMARK  status: ('A' for Active; 'I' for Inactive)
REMARK    1  A    between atoms: N_3  and  C_1 
REMARK    2  A    between atoms: C_2  and  S_10 
REMARK    3  A    between atoms: N_5  and  C_9 
REMARK    4  A    between atoms: S_10  and  C_8 
ROOT
ATOM      1  C   UNL d   1      13.318  13.393  -4.114  0.00  0.00     0.134 A 
ATOM      2  C   UNL d   1      13.467  13.156  -4.895  0.00  0.00     0.048 A 
ATOM      3  C   UNL d   1      13.125  12.830  -3.529  0.00  0.00     0.055 A 
ATOM      4  C   UNL d   1      13.428  12.351  -5.114  0.00  0.00     0.128 A 
ATOM      5  C   UNL d   1      13.085  12.043  -3.736  0.00  0.00     0.010 A 
ATOM      6  C   UNL d   1      13.232  11.800  -4.511  0.00  0.00     0.024 A 
ENDROOT
BRANCH   3   7
ATOM      7  S   UNL d   1      12.977  13.045  -2.766  0.00  0.00    -0.041 SA
BRANCH   7   8
ATOM      8  C   UNL d   1      13.581  12.765  -2.103  0.00  0.00     0.215 A 
ATOM      9  N   UNL d   1      13.387  12.316  -1.473  0.00  0.00    -0.214 NA
ATOM     10  C   UNL d   1      14.085  12.200  -1.031  0.00  0.00     0.107 A 
ATOM     11  C   UNL d   1      14.250  11.787  -0.323  0.00  0.00     0.021 A 
ATOM     12  C   UNL d   1      14.697  12.589  -1.412  0.00  0.00     0.120 A 
ATOM     13  C   UNL d   1      15.014  11.782  -0.030  0.00  0.00     0.002 A 
ATOM     14  C   UNL d   1      15.617  12.168  -0.410  0.00  0.00     0.002 A 
ATOM     15  C   UNL d   1      15.463  12.579  -1.111  0.00  0.00     0.026 A 
ATOM     16  O   UNL d   1      14.368  12.953  -2.105  0.00  0.00    -0.283 OA
ENDBRANCH   7   8
ENDBRANCH   3   7
BRANCH   1  17
ATOM     17  N   UNL d   1      13.365  14.193  -3.933  0.00  0.00    -0.113 N 
ATOM     18  O   UNL d   1      13.896  14.507  -3.421  0.00  0.00    -0.532 OA
ATOM     19  O   UNL d   1      12.860  14.760  -4.268  0.00  0.00    -0.532 OA
ENDBRANCH   1  17
BRANCH   4  20
ATOM     20  N   UNL d   1      13.572  12.093  -5.879  0.00  0.00    -0.114 N 
ATOM     21  O   UNL d   1      14.336  12.100  -6.249  0.00  0.00    -0.532 OA
ATOM     22  O   UNL d   1      13.020  11.801  -6.388  0.00  0.00    -0.532 OA
ENDBRANCH   4  20
TORSDOF 4
ENDMDL
