MODEL 1
REMARK VINA RESULT:      48.1      0.000      0.000
REMARK  4 active torsions:
REMARK  status: ('A' for Active; 'I' for Inactive)
REMARK    1  A    between atoms: C_5  and  C_2 
REMARK    2  A    between atoms: C_7  and  C_5 
REMARK       I    between atoms: N_9  and  C_7 
REMARK    3  A    between atoms: C_8  and  C_10 
REMARK    4  A    between atoms: C_17  and  N_9 
ROOT
ATOM      1  C   UNL d   1     -50.611  26.807  33.687  0.00  0.00     0.280 C 
ATOM      2  N   UNL d   1     -50.333  26.118  33.336  0.00  0.00    -0.208 NA
ATOM      3  O   UNL d   1     -51.377  26.836  33.985  0.00  0.00    -0.265 OA
ENDROOT
BRANCH   1   4
ATOM      4  C   UNL d   1     -50.123  27.473  33.741  0.00  0.00     0.074 C 
BRANCH   4   5
ATOM      5  C   UNL d   1     -49.653  27.760  34.347  0.00  0.00     0.097 A 
ATOM      6  C   UNL d   1     -49.144  28.408  34.301  0.00  0.00     0.288 A 
ATOM      7  N   UNL d   1     -48.780  28.504  35.032  0.00  0.00    -0.163 NA
ATOM      8  O   UNL d   1     -49.027  28.872  33.631  0.00  0.00    -0.265 OA
ATOM      9  C   UNL d   1     -49.063  27.915  35.537  0.00  0.00     0.313 A 
ATOM     10  S   UNL d   1     -49.600  27.456  35.115  0.00  0.00    -0.021 SA
ATOM     11  O   UNL d   1     -48.849  27.802  36.319  0.00  0.00    -0.258 OA
ENDBRANCH   4   5
ENDBRANCH   1   4
BRANCH   2  12
ATOM     12  C   UNL d   1     -50.961  25.583  33.382  0.00  0.00     0.085 A 
ATOM     13  C   UNL d   1     -50.814  24.789  33.500  0.00  0.00     0.019 A 
ATOM     14  C   UNL d   1     -51.438  24.250  33.547  0.00  0.00     0.008 A 
ATOM     15  C   UNL d   1     -52.222  24.519  33.472  0.00  0.00     0.065 A 
ATOM     16  C   UNL d   1     -52.367  25.330  33.352  0.00  0.00     0.008 A 
ATOM     17  C   UNL d   1     -51.739  25.857  33.307  0.00  0.00     0.019 A 
BRANCH  15  18
ATOM     18  C   UNL d   1     -52.845  23.988  33.517  0.00  0.00     0.211 C 
ATOM     19  O   UNL d   1     -53.598  24.254  33.729  0.00  0.00    -0.644 OA
ATOM     20  O   UNL d   1     -52.725  23.188  33.353  0.00  0.00    -0.644 OA
ENDBRANCH  15  18
ENDBRANCH   2  12
TORSDOF 4
ENDMDL
MODEL 2
REMARK VINA RESULT:      50.6      4.360      5.923
REMARK  4 active torsions:
REMARK  status: ('A' for Active; 'I' for Inactive)
REMARK    1  A    between atoms: C_5  and  C_2 
REMARK    2  A    between atoms: C_7  and  C_5 
REMARK       I    between atoms: N_9  and  C_7 
REMARK    3  A    between atoms: C_8  and  C_10 
REMARK    4  A    between atoms: C_17  and  N_9 
ROOT
ATOM      1  C   UNL d   1     -47.421  31.267  34.969  0.00  0.00     0.280 C 
ATOM      2  N   UNL d   1     -46.924  30.772  35.397  0.00  0.00    -0.208 NA
ATOM      3  O   UNL d   1     -48.188  31.027  34.792  0.00  0.00    -0.265 OA
ENDROOT
BRANCH   1   4
ATOM      4  C   UNL d   1     -47.153  32.008  34.713  0.00  0.00     0.074 C 
BRANCH   4   5
ATOM      5  C   UNL d   1     -47.487  32.571  34.220  0.00  0.00     0.097 A 
ATOM      6  C   UNL d   1     -47.077  33.063  33.701  0.00  0.00     0.288 A 
ATOM      7  N   UNL d   1     -47.622  33.542  33.315  0.00  0.00    -0.163 NA
ATOM      8  O   UNL d   1     -46.261  33.067  33.595  0.00  0.00    -0.265 OA
ATOM      9  C   UNL d   1     -48.375  33.348  33.593  0.00  0.00     0.313 A 
ATOM     10  S   UNL d   1     -48.292  32.749  34.152  0.00  0.00    -0.021 SA
ATOM     11  O   UNL d   1     -49.082  33.688  33.359  0.00  0.00    -0.258 OA
ENDBRANCH   4   5
ENDBRANCH   1   4
BRANCH   2  12
ATOM     12  C   UNL d   1     -47.373  30.097  35.552  0.00  0.00     0.085 A 
ATOM     13  C   UNL d   1     -47.628  29.941  36.312  0.00  0.00     0.019 A 
ATOM     14  C   UNL d   1     -48.077  29.266  36.472  0.00  0.00     0.008 A 
ATOM     15  C   UNL d   1     -48.270  28.743  35.856  0.00  0.00     0.065 A 
ATOM     16  C   UNL d   1     -48.008  28.905  35.082  0.00  0.00     0.008 A 
ATOM     17  C   UNL d   1     -47.562  29.579  34.934  0.00  0.00     0.019 A 
BRANCH  15  18
ATOM     18  C   UNL d   1     -48.716  28.071  36.010  0.00  0.00     0.211 C 
ATOM     19  O   UNL d   1     -49.148  28.016  36.711  0.00  0.00    -0.644 OA
ATOM     20  O   UNL d   1     -48.735  27.450  35.466  0.00  0.00    -0.644 OA
ENDBRANCH  15  18
ENDBRANCH   2  12
TORSDOF 4
ENDMDL
