MODEL 1
REMARK VINA RESULT:      45.6      0.000      0.000
REMARK  3 active torsions:
REMARK  status: ('A' for Active; 'I' for Inactive)
REMARK    1  A    between atoms: C_5  and  C_1 
REMARK    2  A    between atoms: N_8  and  C_5 
REMARK    3  A    between atoms: C_10  and  C_5 
ROOT
ATOM      1  C   UNL d   1      14.194  13.162  -2.014  0.00  0.00     0.085 C 
ENDROOT
BRANCH   1   2
ATOM      2  C   UNL d   1      14.397  13.967  -2.008  0.00  0.00     0.059 A 
ATOM      3  C   UNL d   1      14.669  14.308  -1.306  0.00  0.00     0.214 A 
ATOM      4  C   UNL d   1      14.869  15.107  -1.305  0.00  0.00     0.121 A 
ATOM      5  O   UNL d   1      14.737  13.860  -0.626  0.00  0.00    -0.285 OA
ATOM      6  N   UNL d   1      15.141  15.448  -0.602  0.00  0.00    -0.241 NA
ATOM      7  C   UNL d   1      14.800  15.559  -1.991  0.00  0.00     0.032 A 
ATOM      8  C   UNL d   1      15.343  16.249  -0.599  0.00  0.00     0.099 A 
ATOM      9  C   UNL d   1      15.278  16.714  -1.283  0.00  0.00     0.021 A 
ATOM     10  C   UNL d   1      15.002  16.359  -1.984  0.00  0.00     0.004 A 
ATOM     11  C   UNL d   1      14.530  15.219  -2.688  0.00  0.00     0.059 A 
ATOM     12  C   UNL d   1      14.327  14.416  -2.697  0.00  0.00     0.016 A 
ATOM     13 CL   UNL d   1      14.462  15.670  -3.371  0.00  0.00    -0.082 Cl
ENDBRANCH   1   2
BRANCH   1  14
ATOM     14  N   UNL d   1      13.841  12.830  -2.672  0.00  0.00    -0.302 N 
ATOM     15  C   UNL d   1      13.203  13.210  -3.045  0.00  0.00     0.080 A 
ATOM     16  C   UNL d   1      12.846  12.873  -3.712  0.00  0.00     0.019 A 
ATOM     17  C   UNL d   1      13.130  12.159  -4.001  0.00  0.00     0.003 A 
ATOM     18  C   UNL d   1      13.762  11.779  -3.634  0.00  0.00     0.019 A 
ATOM     19  C   UNL d   1      14.114  12.111  -2.977  0.00  0.00     0.080 A 
ENDBRANCH   1  14
BRANCH   1  20
ATOM     20  C   UNL d   1      14.353  12.702  -1.346  0.00  0.00     0.098 A 
ATOM     21  N   UNL d   1      15.044  12.248  -1.312  0.00  0.00    -0.243 NA
ATOM     22  C   UNL d   1      15.206  11.794  -0.657  0.00  0.00     0.099 A 
ATOM     23  C   UNL d   1      14.678  11.783  -0.018  0.00  0.00     0.021 A 
ATOM     24  C   UNL d   1      13.986  12.234  -0.047  0.00  0.00     0.003 A 
ATOM     25  C   UNL d   1      13.827  12.691  -0.710  0.00  0.00     0.021 A 
ENDBRANCH   1  20
TORSDOF 3
ENDMDL
