MODEL 1
REMARK VINA RESULT:      25.1      0.000      0.000
REMARK  5 active torsions:
REMARK  status: ('A' for Active; 'I' for Inactive)
REMARK    1  A    between atoms: C_2  and  C_1 
REMARK       I    between atoms: N_3  and  C_1 
REMARK    2  A    between atoms: C_6  and  N_4 
REMARK    3  A    between atoms: O_19  and  C_5 
REMARK    4  A    between atoms: O_22  and  C_7 
REMARK    5  A    between atoms: O_23  and  C_8 
ROOT
ATOM      1  C   UNL d   1      46.346 -17.868  44.270  0.00  0.00     0.265 C 
ATOM      2  N   UNL d   1      46.150 -17.069  44.265  0.00  0.00    -0.269 N 
ATOM      3  N   UNL d   1      45.755 -15.464  44.254  0.00  0.00    -0.301 N 
ATOM      4  C   UNL d   1      46.253 -16.616  44.944  0.00  0.00     0.102 A 
ATOM      5  C   UNL d   1      45.847 -16.716  43.579  0.00  0.00     0.102 A 
ATOM      6  C   UNL d   1      45.652 -15.918  43.575  0.00  0.00     0.100 A 
ATOM      7  C   UNL d   1      46.055 -15.809  44.940  0.00  0.00     0.100 A 
ATOM      8  O   UNL d   1      46.647 -18.216  44.954  0.00  0.00    -0.267 OA
ENDROOT
BRANCH   1   9
ATOM      9  C   UNL d   1      46.243 -18.321  43.591  0.00  0.00     0.061 A 
ATOM     10  C   UNL d   1      46.497 -18.032  42.852  0.00  0.00     0.031 A 
ATOM     11  C   UNL d   1      46.392 -18.490  42.172  0.00  0.00     0.118 A 
ATOM     12  C   UNL d   1      46.036 -19.231  42.224  0.00  0.00     0.138 A 
ATOM     13  C   UNL d   1      45.784 -19.518  42.955  0.00  0.00     0.118 A 
ATOM     14  C   UNL d   1      45.885 -19.066  43.642  0.00  0.00     0.031 A 
BRANCH  11  15
ATOM     15  O   UNL d   1      46.645 -18.200  41.442  0.00  0.00    -0.326 OA
ATOM     16  C   UNL d   1      46.097 -18.006  40.858  0.00  0.00     0.181 C 
ENDBRANCH  11  15
BRANCH  12  17
ATOM     17  O   UNL d   1      45.932 -19.685  41.546  0.00  0.00    -0.324 OA
ATOM     18  C   UNL d   1      46.585 -20.024  41.172  0.00  0.00     0.182 C 
ENDBRANCH  12  17
BRANCH  13  19
ATOM     19  O   UNL d   1      45.423 -20.267  43.012  0.00  0.00    -0.326 OA
ATOM     20  C   UNL d   1      44.602 -20.328  42.979  0.00  0.00     0.181 C 
ENDBRANCH  13  19
ENDBRANCH   1   9
BRANCH   3  21
ATOM     21  C   UNL d   1      45.557 -14.661  44.248  0.00  0.00     0.064 A 
ATOM     22  C   UNL d   1      44.829 -14.419  44.536  0.00  0.00     0.016 A 
ATOM     23  C   UNL d   1      44.629 -13.624  44.532  0.00  0.00     0.001 A 
ATOM     24  C   UNL d   1      44.299 -14.977  44.830  0.00  0.00     0.002 C 
ATOM     25  C   UNL d   1      45.167 -13.061  44.235  0.00  0.00     0.000 A 
ATOM     26  C   UNL d   1      45.900 -13.311  43.946  0.00  0.00     0.002 A 
ATOM     27  C   UNL d   1      44.971 -12.262  44.228  0.00  0.00     0.000 C 
ATOM     28  C   UNL d   1      46.096 -14.111  43.952  0.00  0.00     0.018 A 
ENDBRANCH   3  21
TORSDOF 5
ENDMDL
