MODEL 1
REMARK VINA RESULT:       6.6      0.000      0.000
REMARK  1 active torsions:
REMARK  status: ('A' for Active; 'I' for Inactive)
REMARK    1  A    between atoms: C_2  and  N_1 
ROOT
ATOM      1  C   UNL d   1      46.185 -19.678  43.559  0.00  0.00     0.129 A 
ATOM      2  C   UNL d   1      46.289 -18.860  43.587  0.00  0.00     0.043 A 
ATOM      3  C   UNL d   1      46.443 -18.440  42.889  0.00  0.00     0.123 A 
ATOM      4  C   UNL d   1      46.492 -18.842  42.170  0.00  0.00     0.224 A 
ATOM      5  C   UNL d   1      46.234 -20.073  42.844  0.00  0.00     0.038 A 
ATOM      6  C   UNL d   1      46.388 -19.652  42.147  0.00  0.00     0.100 A 
ATOM      7  N   UNL d   1      46.547 -17.626  42.915  0.00  0.00    -0.241 NA
ATOM      8  O   UNL d   1      46.644 -18.426  41.480  0.00  0.00    -0.284 OA
ATOM      9 CL   UNL d   1      46.437 -20.050  41.431  0.00  0.00    -0.079 Cl
ATOM     10  C   UNL d   1      46.240 -18.462  44.304  0.00  0.00     0.005 A 
ATOM     11  C   UNL d   1      46.498 -17.220  43.636  0.00  0.00     0.099 A 
ATOM     12  C   UNL d   1      46.344 -17.641  44.334  0.00  0.00     0.021 A 
ENDROOT
BRANCH   1  13
ATOM     13  N   UNL d   1      46.032 -20.094  44.249  0.00  0.00    -0.114 N 
ATOM     14  O   UNL d   1      46.646 -20.282  44.765  0.00  0.00    -0.532 OA
ATOM     15  O   UNL d   1      45.265 -20.325  44.429  0.00  0.00    -0.532 OA
ENDBRANCH   1  13
TORSDOF 1
ENDMDL
MODEL 2
REMARK VINA RESULT:       8.8      5.156      6.263
REMARK  1 active torsions:
REMARK  status: ('A' for Active; 'I' for Inactive)
REMARK    1  A    between atoms: C_2  and  N_1 
ROOT
ATOM      1  C   UNL d   1      44.894 -13.132  43.241  0.00  0.00     0.129 A 
ATOM      2  C   UNL d   1      45.470 -12.969  43.810  0.00  0.00     0.043 A 
ATOM      3  C   UNL d   1      45.654 -13.538  44.385  0.00  0.00     0.123 A 
ATOM      4  C   UNL d   1      45.260 -14.263  44.386  0.00  0.00     0.224 A 
ATOM      5  C   UNL d   1      44.507 -13.852  43.246  0.00  0.00     0.038 A 
ATOM      6  C   UNL d   1      44.691 -14.421  43.821  0.00  0.00     0.100 A 
ATOM      7  N   UNL d   1      46.226 -13.378  44.952  0.00  0.00    -0.241 NA
ATOM      8  O   UNL d   1      45.443 -14.826  44.955  0.00  0.00    -0.284 OA
ATOM      9 CL   UNL d   1      44.301 -15.143  43.823  0.00  0.00    -0.079 Cl
ATOM     10  C   UNL d   1      45.859 -12.247  43.807  0.00  0.00     0.005 A 
ATOM     11  C   UNL d   1      46.622 -12.650  44.953  0.00  0.00     0.099 A 
ATOM     12  C   UNL d   1      46.438 -12.082  44.378  0.00  0.00     0.021 A 
ENDROOT
BRANCH   1  13
ATOM     13  N   UNL d   1      44.712 -12.570  42.673  0.00  0.00    -0.114 N 
ATOM     14  O   UNL d   1      45.192 -12.479  42.010  0.00  0.00    -0.532 OA
ATOM     15  O   UNL d   1      44.049 -12.094  42.763  0.00  0.00    -0.532 OA
ENDBRANCH   1  13
TORSDOF 1
ENDMDL
