MODEL 1
REMARK VINA RESULT:      -4.4      0.000      0.000
REMARK  9 active torsions:
REMARK  status: ('A' for Active; 'I' for Inactive)
REMARK    1  A    between atoms: C_19  and  N_1 
REMARK    2  A    between atoms: S_10  and  C_2 
REMARK    3  A    between atoms: N_8  and  C_9 
REMARK    4  A    between atoms: C_20  and  S_10 
REMARK    5  A    between atoms: C_11  and  C_20 
REMARK       I    between atoms: N_13  and  C_11 
REMARK    6  A    between atoms: C_15  and  N_13 
REMARK    7  A    between atoms: C_32  and  C_19 
REMARK    8  A    between atoms: O_25  and  C_22 
REMARK    9  A    between atoms: C_33  and  C_32 
ROOT
ATOM      1  N   UNL d   1     -40.132  14.479  20.403  0.00  0.00    -0.253 N 
ATOM      2  C   UNL d   1     -40.874  14.166  20.212  0.00  0.00     0.182 A 
ATOM      3  C   UNL d   1     -39.611  14.696  19.816  0.00  0.00     0.268 A 
ATOM      4  C   UNL d   1     -39.833  14.601  19.023  0.00  0.00     0.076 A 
ATOM      5  N   UNL d   1     -41.095  14.072  19.433  0.00  0.00    -0.222 NA
ATOM      6  C   UNL d   1     -40.571  14.290  18.833  0.00  0.00     0.088 A 
ATOM      7  C   UNL d   1     -39.312  14.818  18.440  0.00  0.00     0.024 A 
ATOM      8  C   UNL d   1     -39.524  14.727  17.638  0.00  0.00     0.065 A 
ATOM      9  O   UNL d   1     -38.868  15.009  20.007  0.00  0.00    -0.267 OA
ATOM     10  C   UNL d   1     -40.791  14.196  18.051  0.00  0.00     0.021 A 
ATOM     11  C   UNL d   1     -40.269  14.414  17.458  0.00  0.00     0.019 A 
ENDROOT
BRANCH   2  12
ATOM     12  S   UNL d   1     -41.405  13.945  20.823  0.00  0.00    -0.044 SA
BRANCH  12  13
ATOM     13  C   UNL d   1     -41.980  13.373  20.681  0.00  0.00     0.101 C 
BRANCH  13  14
ATOM     14  C   UNL d   1     -42.613  13.291  21.195  0.00  0.00     0.286 C 
ATOM     15  N   UNL d   1     -43.138  12.675  21.100  0.00  0.00    -0.207 NA
ATOM     16  O   UNL d   1     -42.721  13.830  21.809  0.00  0.00    -0.265 OA
BRANCH  15  17
ATOM     17  C   UNL d   1     -43.781  12.585  21.617  0.00  0.00     0.087 A 
ATOM     18  C   UNL d   1     -43.754  11.985  22.181  0.00  0.00     0.043 A 
ATOM     19  C   UNL d   1     -44.397  11.896  22.698  0.00  0.00     0.096 A 
ATOM     20  C   UNL d   1     -45.045  12.395  22.647  0.00  0.00     0.024 A 
ATOM     21  C   UNL d   1     -45.063  12.993  22.078  0.00  0.00     0.004 A 
ATOM     22  C   UNL d   1     -44.430  13.084  21.566  0.00  0.00     0.019 A 
BRANCH  19  23
ATOM     23  O   UNL d   1     -44.376  11.288  23.274  0.00  0.00    -0.328 OA
ATOM     24  C   UNL d   1     -45.017  10.795  23.374  0.00  0.00     0.181 C 
ENDBRANCH  19  23
ENDBRANCH  15  17
ENDBRANCH  13  14
ENDBRANCH  12  13
ENDBRANCH   2  12
BRANCH   1  25
ATOM     25  C   UNL d   1     -39.920  14.570  21.206  0.00  0.00     0.085 C 
BRANCH  25  26
ATOM     26  C   UNL d   1     -39.281  14.152  21.503  0.00  0.00     0.019 C 
BRANCH  26  27
ATOM     27  C   UNL d   1     -39.107  14.180  22.310  0.00  0.00     0.002 C 
ATOM     28  C   UNL d   1     -38.588  13.624  22.638  0.00  0.00     0.000 C 
ENDBRANCH  26  27
ENDBRANCH  25  26
ENDBRANCH   1  25
BRANCH   8  29
ATOM     29  N   UNL d   1     -39.004  14.944  17.037  0.00  0.00    -0.300 N 
ATOM     30  C   UNL d   1     -39.031  15.715  16.729  0.00  0.00     0.107 A 
ATOM     31  C   UNL d   1     -38.504  15.921  16.126  0.00  0.00     0.142 A 
ATOM     32  O   UNL d   1     -37.956  15.368  15.833  0.00  0.00    -0.300 OA
ATOM     33  C   UNL d   1     -37.940  14.600  16.151  0.00  0.00     0.142 A 
ATOM     34  C   UNL d   1     -38.463  14.385  16.753  0.00  0.00     0.107 A 
ENDBRANCH   8  29
TORSDOF 9
ENDMDL
MODEL 2
REMARK VINA RESULT:      -4.1      2.458      7.731
REMARK  9 active torsions:
REMARK  status: ('A' for Active; 'I' for Inactive)
REMARK    1  A    between atoms: C_19  and  N_1 
REMARK    2  A    between atoms: S_10  and  C_2 
REMARK    3  A    between atoms: N_8  and  C_9 
REMARK    4  A    between atoms: C_20  and  S_10 
REMARK    5  A    between atoms: C_11  and  C_20 
REMARK       I    between atoms: N_13  and  C_11 
REMARK    6  A    between atoms: C_15  and  N_13 
REMARK    7  A    between atoms: C_32  and  C_19 
REMARK    8  A    between atoms: O_25  and  C_22 
REMARK    9  A    between atoms: C_33  and  C_32 
ROOT
ATOM      1  N   UNL d   1     -44.942  12.014  22.833  0.00  0.00    -0.253 N 
ATOM      2  C   UNL d   1     -44.736  12.559  22.247  0.00  0.00     0.182 A 
ATOM      3  C   UNL d   1     -45.707  11.974  23.111  0.00  0.00     0.268 A 
ATOM      4  C   UNL d   1     -46.277  12.487  22.799  0.00  0.00     0.076 A 
ATOM      5  N   UNL d   1     -45.294  13.066  21.938  0.00  0.00    -0.222 NA
ATOM      6  C   UNL d   1     -46.072  13.030  22.215  0.00  0.00     0.088 A 
ATOM      7  C   UNL d   1     -47.038  12.446  23.077  0.00  0.00     0.024 A 
ATOM      8  C   UNL d   1     -47.621  12.958  22.770  0.00  0.00     0.065 A 
ATOM      9  O   UNL d   1     -45.913  11.427  23.698  0.00  0.00    -0.267 OA
ATOM     10  C   UNL d   1     -46.634  13.538  21.906  0.00  0.00     0.021 A 
ATOM     11  C   UNL d   1     -47.404  13.499  22.184  0.00  0.00     0.019 A 
ENDROOT
BRANCH   2  12
ATOM     12  S   UNL d   1     -43.945  12.594  21.966  0.00  0.00    -0.044 SA
BRANCH  12  13
ATOM     13  C   UNL d   1     -43.718  13.193  21.450  0.00  0.00     0.101 C 
BRANCH  13  14
ATOM     14  C   UNL d   1     -42.940  13.244  21.197  0.00  0.00     0.286 C 
ATOM     15  N   UNL d   1     -42.582  13.973  21.123  0.00  0.00    -0.207 NA
ATOM     16  O   UNL d   1     -42.518  12.560  21.016  0.00  0.00    -0.265 OA
BRANCH  15  17
ATOM     17  C   UNL d   1     -41.795  14.033  20.867  0.00  0.00     0.087 A 
ATOM     18  C   UNL d   1     -41.641  14.030  20.058  0.00  0.00     0.043 A 
ATOM     19  C   UNL d   1     -40.854  14.089  19.803  0.00  0.00     0.096 A 
ATOM     20  C   UNL d   1     -40.243  14.150  20.346  0.00  0.00     0.024 A 
ATOM     21  C   UNL d   1     -40.408  14.152  21.155  0.00  0.00     0.004 A 
ATOM     22  C   UNL d   1     -41.184  14.093  21.411  0.00  0.00     0.019 A 
BRANCH  19  23
ATOM     23  O   UNL d   1     -40.690  14.087  18.982  0.00  0.00    -0.328 OA
ATOM     24  C   UNL d   1     -40.111  14.573  18.677  0.00  0.00     0.181 C 
ENDBRANCH  19  23
ENDBRANCH  15  17
ENDBRANCH  13  14
ENDBRANCH  12  13
ENDBRANCH   2  12
BRANCH   1  25
ATOM     25  C   UNL d   1     -44.357  11.501  23.140  0.00  0.00     0.085 C 
BRANCH  25  26
ATOM     26  C   UNL d   1     -44.537  10.710  23.255  0.00  0.00     0.019 C 
BRANCH  26  27
ATOM     27  C   UNL d   1     -43.986  10.209  23.612  0.00  0.00     0.002 C 
ATOM     28  C   UNL d   1     -43.997   9.399  23.441  0.00  0.00     0.000 C 
ENDBRANCH  26  27
ENDBRANCH  25  26
ENDBRANCH   1  25
BRANCH   8  29
ATOM     29  N   UNL d   1     -48.398  12.925  23.045  0.00  0.00    -0.300 N 
ATOM     30  C   UNL d   1     -48.841  12.231  22.940  0.00  0.00     0.107 A 
ATOM     31  C   UNL d   1     -49.619  12.209  23.220  0.00  0.00     0.142 A 
ATOM     32  O   UNL d   1     -49.952  12.870  23.599  0.00  0.00    -0.300 OA
ATOM     33  C   UNL d   1     -49.497  13.559  23.698  0.00  0.00     0.142 A 
ATOM     34  C   UNL d   1     -48.719  13.589  23.421  0.00  0.00     0.107 A 
ENDBRANCH   8  29
TORSDOF 9
ENDMDL
MODEL 3
REMARK VINA RESULT:      -1.7      2.673      4.303
REMARK  9 active torsions:
REMARK  status: ('A' for Active; 'I' for Inactive)
REMARK    1  A    between atoms: C_19  and  N_1 
REMARK    2  A    between atoms: S_10  and  C_2 
REMARK    3  A    between atoms: N_8  and  C_9 
REMARK    4  A    between atoms: C_20  and  S_10 
REMARK    5  A    between atoms: C_11  and  C_20 
REMARK       I    between atoms: N_13  and  C_11 
REMARK    6  A    between atoms: C_15  and  N_13 
REMARK    7  A    between atoms: C_32  and  C_19 
REMARK    8  A    between atoms: O_25  and  C_22 
REMARK    9  A    between atoms: C_33  and  C_32 
ROOT
ATOM      1  N   UNL d   1     -39.567  14.453  18.510  0.00  0.00    -0.253 N 
ATOM      2  C   UNL d   1     -39.185  15.145  18.755  0.00  0.00     0.182 A 
ATOM      3  C   UNL d   1     -39.449  14.159  17.759  0.00  0.00     0.268 A 
ATOM      4  C   UNL d   1     -38.941  14.561  17.243  0.00  0.00     0.076 A 
ATOM      5  N   UNL d   1     -38.685  15.543  18.249  0.00  0.00    -0.222 NA
ATOM      6  C   UNL d   1     -38.561  15.249  17.487  0.00  0.00     0.088 A 
ATOM      7  C   UNL d   1     -38.825  14.267  16.496  0.00  0.00     0.024 A 
ATOM      8  C   UNL d   1     -38.316  14.663  15.967  0.00  0.00     0.065 A 
ATOM      9  O   UNL d   1     -39.832  13.467  17.514  0.00  0.00    -0.267 OA
ATOM     10  C   UNL d   1     -38.059  15.648  16.978  0.00  0.00     0.021 A 
ATOM     11  C   UNL d   1     -37.939  15.354  16.223  0.00  0.00     0.019 A 
ENDROOT
BRANCH   2  12
ATOM     12  S   UNL d   1     -39.312  15.441  19.531  0.00  0.00    -0.044 SA
BRANCH  12  13
ATOM     13  C   UNL d   1     -38.670  15.669  19.993  0.00  0.00     0.101 C 
BRANCH  13  14
ATOM     14  C   UNL d   1     -38.717  15.624  20.810  0.00  0.00     0.286 C 
ATOM     15  N   UNL d   1     -38.111  15.283  21.235  0.00  0.00    -0.207 NA
ATOM     16  O   UNL d   1     -39.377  15.922  21.205  0.00  0.00    -0.265 OA
BRANCH  15  17
ATOM     17  C   UNL d   1     -38.151  15.233  22.063  0.00  0.00     0.087 A 
ATOM     18  C   UNL d   1     -38.293  14.499  22.407  0.00  0.00     0.043 A 
ATOM     19  C   UNL d   1     -38.334  14.450  23.235  0.00  0.00     0.096 A 
ATOM     20  C   UNL d   1     -38.233  15.119  23.698  0.00  0.00     0.024 A 
ATOM     21  C   UNL d   1     -38.091  15.850  23.342  0.00  0.00     0.004 A 
ATOM     22  C   UNL d   1     -38.051  15.903  22.526  0.00  0.00     0.019 A 
BRANCH  19  23
ATOM     23  O   UNL d   1     -38.478  13.707  23.593  0.00  0.00    -0.328 OA
ATOM     24  C   UNL d   1     -38.010  13.065  23.411  0.00  0.00     0.181 C 
ENDBRANCH  19  23
ENDBRANCH  15  17
ENDBRANCH  13  14
ENDBRANCH  12  13
ENDBRANCH   2  12
BRANCH   1  25
ATOM     25  C   UNL d   1     -40.077  14.057  19.040  0.00  0.00     0.085 C 
BRANCH  25  26
ATOM     26  C   UNL d   1     -40.885  14.080  18.913  0.00  0.00     0.019 C 
BRANCH  26  27
ATOM     27  C   UNL d   1     -41.396  13.674  19.421  0.00  0.00     0.002 C 
ATOM     28  C   UNL d   1     -41.949  14.096  19.870  0.00  0.00     0.000 C 
ENDBRANCH  26  27
ENDBRANCH  25  26
ENDBRANCH   1  25
BRANCH   8  29
ATOM     29  N   UNL d   1     -38.191  14.373  15.206  0.00  0.00    -0.300 N 
ATOM     30  C   UNL d   1     -38.075  13.559  15.091  0.00  0.00     0.107 A 
ATOM     31  C   UNL d   1     -37.950  13.279  14.322  0.00  0.00     0.142 A 
ATOM     32  O   UNL d   1     -37.941  13.804  13.676  0.00  0.00    -0.300 OA
ATOM     33  C   UNL d   1     -38.058  14.616  13.806  0.00  0.00     0.142 A 
ATOM     34  C   UNL d   1     -38.183  14.904  14.570  0.00  0.00     0.107 A 
ENDBRANCH   8  29
TORSDOF 9
ENDMDL
