MODEL 1
REMARK VINA RESULT:      -5.1      0.000      0.000
REMARK  7 active torsions:
REMARK  status: ('A' for Active; 'I' for Inactive)
REMARK    1  A    between atoms: C_7  and  N_1 
REMARK    2  A    between atoms: S_15  and  C_3 
REMARK    3  A    between atoms: O_8  and  C_7 
REMARK    4  A    between atoms: C_10  and  O_8 
REMARK    5  A    between atoms: C_19  and  C_10 
REMARK    6  A    between atoms: C_13  and  O_14 
REMARK    7  A    between atoms: O_14  and  C_19 
ROOT
ATOM      1  O   UNL d   1      58.246  -0.546  30.302  0.00  0.00    -0.251 OA
ENDROOT
BRANCH   1   2
ATOM      2  C   UNL d   1      58.606  -0.484  29.563  0.00  0.00     0.215 C 
BRANCH   2   3
ATOM      3  N   UNL d   1      59.162  -1.048  29.322  0.00  0.00    -0.229 N 
ATOM      4  C   UNL d   1      58.929  -1.832  29.211  0.00  0.00     0.287 A 
ATOM      5  C   UNL d   1      59.481  -2.397  28.970  0.00  0.00     0.159 A 
ATOM      6  O   UNL d   1      58.144  -2.052  29.340  0.00  0.00    -0.265 OA
ATOM      7  C   UNL d   1      59.236  -3.185  28.862  0.00  0.00     0.028 C 
ATOM      8  N   UNL d   1      60.266  -2.178  28.841  0.00  0.00    -0.141 NA
ATOM      9  N   UNL d   1      60.498  -1.394  28.952  0.00  0.00    -0.123 NA
ATOM     10  C   UNL d   1      59.947  -0.829  29.192  0.00  0.00     0.200 A 
BRANCH  10  11
ATOM     11  S   UNL d   1      60.179  -0.045  29.303  0.00  0.00    -0.074 SA
ATOM     12  C   UNL d   1      60.963   0.176  29.168  0.00  0.00     0.077 C 
ENDBRANCH  10  11
ENDBRANCH   2   3
ENDBRANCH   1   2
BRANCH   1  13
ATOM     13  C   UNL d   1      57.697   0.022  30.543  0.00  0.00     0.327 C 
ATOM     14  O   UNL d   1      57.370   0.540  29.989  0.00  0.00    -0.256 OA
BRANCH  13  15
ATOM     15  C   UNL d   1      57.475   0.072  31.336  0.00  0.00     0.191 C 
BRANCH  15  16
ATOM     16  O   UNL d   1      56.910  -0.441  31.638  0.00  0.00    -0.299 OA
BRANCH  16  17
ATOM     17  C   UNL d   1      56.517  -0.257  32.340  0.00  0.00     0.111 A 
ATOM     18  C   UNL d   1      56.057  -0.820  32.715  0.00  0.00     0.081 A 
ATOM     19  C   UNL d   1      55.664  -0.636  33.417  0.00  0.00     0.025 A 
ATOM     20 CL   UNL d   1      55.988  -1.586  32.381  0.00  0.00    -0.080 Cl
ATOM     21  C   UNL d   1      55.731   0.111  33.743  0.00  0.00     0.059 A 
ATOM     22  C   UNL d   1      56.193   0.682  33.368  0.00  0.00     0.013 A 
ATOM     23 CL   UNL d   1      55.336   0.290  34.445  0.00  0.00    -0.082 Cl
ATOM     24  C   UNL d   1      56.586   0.498  32.666  0.00  0.00     0.026 A 
ENDBRANCH  16  17
ENDBRANCH  15  16
ENDBRANCH  13  15
ENDBRANCH   1  13
TORSDOF 7
ENDMDL
MODEL 2
REMARK VINA RESULT:      -2.2      3.171      5.480
REMARK  7 active torsions:
REMARK  status: ('A' for Active; 'I' for Inactive)
REMARK    1  A    between atoms: C_7  and  N_1 
REMARK    2  A    between atoms: S_15  and  C_3 
REMARK    3  A    between atoms: O_8  and  C_7 
REMARK    4  A    between atoms: C_10  and  O_8 
REMARK    5  A    between atoms: C_19  and  C_10 
REMARK    6  A    between atoms: C_13  and  O_14 
REMARK    7  A    between atoms: O_14  and  C_19 
ROOT
ATOM      1  O   UNL d   1      56.879   0.091  32.259  0.00  0.00    -0.251 OA
ENDROOT
BRANCH   1   2
ATOM      2  C   UNL d   1      56.422   0.654  32.651  0.00  0.00     0.215 C 
BRANCH   2   3
ATOM      3  N   UNL d   1      56.378   0.654  33.477  0.00  0.00    -0.229 N 
ATOM      4  C   UNL d   1      57.072   0.668  33.924  0.00  0.00     0.287 A 
ATOM      5  C   UNL d   1      57.032   0.667  34.749  0.00  0.00     0.159 A 
ATOM      6  O   UNL d   1      57.806   0.682  33.547  0.00  0.00    -0.265 OA
ATOM      7  C   UNL d   1      57.737   0.681  35.190  0.00  0.00     0.028 C 
ATOM      8  N   UNL d   1      56.298   0.653  35.126  0.00  0.00    -0.141 NA
ATOM      9  N   UNL d   1      55.605   0.639  34.679  0.00  0.00    -0.123 NA
ATOM     10  C   UNL d   1      55.644   0.639  33.855  0.00  0.00     0.200 A 
BRANCH  10  11
ATOM     11  S   UNL d   1      54.951   0.626  33.407  0.00  0.00    -0.074 SA
ATOM     12  C   UNL d   1      54.218   0.676  33.782  0.00  0.00     0.077 C 
ENDBRANCH  10  11
ENDBRANCH   2   3
ENDBRANCH   1   2
BRANCH   1  13
ATOM     13  C   UNL d   1      56.934   0.104  31.435  0.00  0.00     0.327 C 
ATOM     14  O   UNL d   1      56.431   0.589  30.996  0.00  0.00    -0.256 OA
BRANCH  13  15
ATOM     15  C   UNL d   1      57.491  -0.368  31.051  0.00  0.00     0.191 C 
BRANCH  15  16
ATOM     16  O   UNL d   1      57.862  -0.096  30.370  0.00  0.00    -0.299 OA
BRANCH  16  17
ATOM     17  C   UNL d   1      58.332  -0.606  29.924  0.00  0.00     0.111 A 
ATOM     18  C   UNL d   1      58.913  -0.307  29.431  0.00  0.00     0.081 A 
ATOM     19  C   UNL d   1      59.383  -0.816  28.984  0.00  0.00     0.025 A 
ATOM     20 CL   UNL d   1      59.026   0.523  29.383  0.00  0.00    -0.080 Cl
ATOM     21  C   UNL d   1      59.273  -1.625  29.030  0.00  0.00     0.059 A 
ATOM     22  C   UNL d   1      58.689  -1.932  29.526  0.00  0.00     0.013 A 
ATOM     23 CL   UNL d   1      59.746  -2.131  28.581  0.00  0.00    -0.082 Cl
ATOM     24  C   UNL d   1      58.219  -1.422  29.972  0.00  0.00     0.026 A 
ENDBRANCH  16  17
ENDBRANCH  15  16
ENDBRANCH  13  15
ENDBRANCH   1  13
TORSDOF 7
ENDMDL
