MODEL 1
REMARK VINA RESULT:      57.7      0.000      0.000
REMARK  5 active torsions:
REMARK  status: ('A' for Active; 'I' for Inactive)
REMARK    1  A    between atoms: N_7  and  C_1 
REMARK    2  A    between atoms: C_12  and  C_2 
REMARK       I    between atoms: C_8  and  N_7 
REMARK    3  A    between atoms: C_10  and  C_8 
REMARK    4  A    between atoms: N_9  and  C_16 
REMARK    5  A    between atoms: C_16  and  C_10 
ROOT
ATOM      1  C   UNL d   1      46.346 -17.388  43.383  0.00  0.00     0.142 A 
ATOM      2  C   UNL d   1      46.239 -17.811  42.681  0.00  0.00     0.024 A 
ATOM      3  C   UNL d   1      46.543 -17.767  44.067  0.00  0.00     0.297 A 
ATOM      4  C   UNL d   1      46.339 -18.630  42.693  0.00  0.00     0.020 A 
ATOM      5  N   UNL d   1      46.643 -18.588  44.083  0.00  0.00    -0.207 NA
ATOM      6  C   UNL d   1      46.540 -19.017  43.391  0.00  0.00     0.085 A 
ATOM      7  C   UNL d   1      46.233 -19.055  41.993  0.00  0.00     0.008 A 
ATOM      8  O   UNL d   1      46.646 -17.329  44.766  0.00  0.00    -0.264 OA
ATOM      9  C   UNL d   1      46.637 -19.832  43.395  0.00  0.00     0.020 A 
ATOM     10  C   UNL d   1      46.333 -19.882  42.005  0.00  0.00     0.035 A 
ATOM     11  C   UNL d   1      46.530 -20.261  42.688  0.00  0.00     0.008 A 
ATOM     12 BR   UNL d   1      46.232 -20.326  41.314  0.00  0.00    -0.049 Br
ENDROOT
BRANCH   1  13
ATOM     13  N   UNL d   1      46.250 -16.567  43.392  0.00  0.00    -0.203 NA
ATOM     14  C   UNL d   1      46.054 -16.168  44.085  0.00  0.00     0.281 C 
ATOM     15  O   UNL d   1      45.852 -16.052  44.954  0.00  0.00    -0.265 OA
BRANCH  14  16
ATOM     16  C   UNL d   1      45.960 -15.352  44.092  0.00  0.00     0.082 C 
BRANCH  16  17
ATOM     17  C   UNL d   1      45.219 -15.004  44.120  0.00  0.00     0.085 C 
BRANCH  17  18
ATOM     18  N   UNL d   1      45.120 -14.192  44.166  0.00  0.00    -0.299 N 
ATOM     19  C   UNL d   1      44.902 -13.816  44.866  0.00  0.00     0.107 A 
ATOM     20  C   UNL d   1      44.808 -13.006  44.895  0.00  0.00     0.142 A 
ATOM     21  O   UNL d   1      44.933 -12.546  44.208  0.00  0.00    -0.300 OA
ATOM     22  C   UNL d   1      45.144 -12.908  43.528  0.00  0.00     0.142 A 
ATOM     23  C   UNL d   1      45.245 -13.732  43.479  0.00  0.00     0.107 A 
ENDBRANCH  17  18
ENDBRANCH  16  17
ENDBRANCH  14  16
ENDBRANCH   1  13
BRANCH   2  24
ATOM     24  C   UNL d   1      46.040 -17.429  41.990  0.00  0.00     0.002 A 
ATOM     25  C   UNL d   1      46.622 -17.083  41.519  0.00  0.00     0.000 A 
ATOM     26  C   UNL d   1      46.420 -16.694  40.818  0.00  0.00     0.000 A 
ATOM     27  C   UNL d   1      45.638 -16.655  40.594  0.00  0.00     0.000 A 
ATOM     28  C   UNL d   1      45.048 -16.988  41.041  0.00  0.00     0.000 A 
ATOM     29  C   UNL d   1      45.252 -17.380  41.749  0.00  0.00     0.000 A 
ENDBRANCH   2  24
TORSDOF 5
ENDMDL
