MODEL 1
REMARK VINA RESULT:      45.0      0.000      0.000
REMARK  6 active torsions:
REMARK  status: ('A' for Active; 'I' for Inactive)
REMARK    1  A    between atoms: S_4  and  C_1 
REMARK    2  A    between atoms: C_9  and  N_2 
REMARK    3  A    between atoms: C_11  and  S_4 
REMARK    4  A    between atoms: C_6  and  C_11 
REMARK       I    between atoms: N_8  and  C_6 
REMARK    5  A    between atoms: C_12  and  N_8 
REMARK    6  A    between atoms: O_18  and  C_13 
ROOT
ATOM      1  S   UNL d   1     -54.951 -99.857 -43.840  0.00  0.00    -0.044 SA
ENDROOT
BRANCH   1   2
ATOM      2  C   UNL d   1     -55.115-100.509 -44.323  0.00  0.00     0.180 A 
ATOM      3  N   UNL d   1     -55.177-101.286 -44.073  0.00  0.00    -0.284 N 
ATOM      4  C   UNL d   1     -55.344-101.746 -44.738  0.00  0.00     0.103 A 
ATOM      5  C   UNL d   1     -55.384-101.240 -45.404  0.00  0.00     0.120 A 
ATOM      6  N   UNL d   1     -55.241-100.487 -45.135  0.00  0.00    -0.219 NA
BRANCH   3   7
ATOM      7  C   UNL d   1     -55.096-101.592 -43.312  0.00  0.00     0.066 A 
ATOM      8  C   UNL d   1     -54.814-102.352 -43.202  0.00  0.00     0.018 A 
ATOM      9  C   UNL d   1     -54.732-102.659 -42.440  0.00  0.00     0.002 A 
ATOM     10  C   UNL d   1     -54.933-102.206 -41.789  0.00  0.00     0.000 A 
ATOM     11  C   UNL d   1     -55.218-101.439 -41.897  0.00  0.00     0.002 A 
ATOM     12  C   UNL d   1     -55.299-101.132 -42.658  0.00  0.00     0.018 A 
ENDBRANCH   3   7
ENDBRANCH   1   2
BRANCH   1  13
ATOM     13  C   UNL d   1     -55.234 -99.108 -44.042  0.00  0.00     0.101 C 
BRANCH  13  14
ATOM     14  C   UNL d   1     -55.973 -99.017 -44.364  0.00  0.00     0.286 C 
ATOM     15  N   UNL d   1     -56.636 -99.117 -43.898  0.00  0.00    -0.208 NA
ATOM     16  O   UNL d   1     -56.048 -98.826 -45.161  0.00  0.00    -0.265 OA
BRANCH  15  17
ATOM     17  C   UNL d   1     -57.385 -99.028 -44.218  0.00  0.00     0.085 A 
ATOM     18  C   UNL d   1     -58.047 -99.003 -43.723  0.00  0.00     0.021 A 
ATOM     19  C   UNL d   1     -58.805 -98.913 -44.041  0.00  0.00     0.026 A 
ATOM     20  C   UNL d   1     -58.898 -98.847 -44.855  0.00  0.00     0.094 A 
ATOM     21  C   UNL d   1     -58.225 -98.873 -45.343  0.00  0.00     0.026 A 
ATOM     22  C   UNL d   1     -57.484 -98.962 -45.027  0.00  0.00     0.021 A 
BRANCH  20  23
ATOM     23  O   UNL d   1     -59.662 -98.757 -45.171  0.00  0.00    -0.328 OA
ATOM     24  C   UNL d   1     -59.759 -98.759 -45.992  0.00  0.00     0.181 C 
ENDBRANCH  20  23
ENDBRANCH  15  17
ENDBRANCH  13  14
ENDBRANCH   1  13
TORSDOF 6
ENDMDL
MODEL 2
REMARK VINA RESULT:      45.6      2.551      4.949
REMARK  6 active torsions:
REMARK  status: ('A' for Active; 'I' for Inactive)
REMARK    1  A    between atoms: S_4  and  C_1 
REMARK    2  A    between atoms: C_9  and  N_2 
REMARK    3  A    between atoms: C_11  and  S_4 
REMARK    4  A    between atoms: C_6  and  C_11 
REMARK       I    between atoms: N_8  and  C_6 
REMARK    5  A    between atoms: C_12  and  N_8 
REMARK    6  A    between atoms: O_18  and  C_13 
ROOT
ATOM      1  S   UNL d   1     -55.318-100.491 -42.624  0.00  0.00    -0.044 SA
ENDROOT
BRANCH   1   2
ATOM      2  C   UNL d   1     -55.270-100.823 -43.381  0.00  0.00     0.180 A 
ATOM      3  N   UNL d   1     -55.707-100.592 -44.033  0.00  0.00    -0.284 N 
ATOM      4  C   UNL d   1     -55.478-101.072 -44.665  0.00  0.00     0.103 A 
ATOM      5  C   UNL d   1     -54.892-101.602 -44.393  0.00  0.00     0.120 A 
ATOM      6  N   UNL d   1     -54.774-101.439 -43.606  0.00  0.00    -0.219 NA
BRANCH   3   7
ATOM      7  C   UNL d   1     -56.278 -99.999 -44.090  0.00  0.00     0.066 A 
ATOM      8  C   UNL d   1     -56.884 -99.957 -43.544  0.00  0.00     0.018 A 
ATOM      9  C   UNL d   1     -57.455 -99.364 -43.601  0.00  0.00     0.002 A 
ATOM     10  C   UNL d   1     -57.419 -98.813 -44.204  0.00  0.00     0.000 A 
ATOM     11  C   UNL d   1     -56.807 -98.853 -44.758  0.00  0.00     0.002 A 
ATOM     12  C   UNL d   1     -56.237 -99.446 -44.700  0.00  0.00     0.018 A 
ENDBRANCH   3   7
ENDBRANCH   1   2
BRANCH   1  13
ATOM     13  C   UNL d   1     -54.712-100.612 -42.076  0.00  0.00     0.101 C 
BRANCH  13  14
ATOM     14  C   UNL d   1     -54.876-100.897 -41.333  0.00  0.00     0.286 C 
ATOM     15  N   UNL d   1     -55.202-101.640 -41.245  0.00  0.00    -0.208 NA
ATOM     16  O   UNL d   1     -54.711-100.431 -40.675  0.00  0.00    -0.265 OA
BRANCH  15  17
ATOM     17  C   UNL d   1     -55.370-101.932 -40.498  0.00  0.00     0.085 A 
ATOM     18  C   UNL d   1     -55.877-102.580 -40.411  0.00  0.00     0.021 A 
ATOM     19  C   UNL d   1     -56.050-102.879 -39.660  0.00  0.00     0.026 A 
ATOM     20  C   UNL d   1     -55.714-102.528 -38.997  0.00  0.00     0.094 A 
ATOM     21  C   UNL d   1     -55.206-101.877 -39.097  0.00  0.00     0.026 A 
ATOM     22  C   UNL d   1     -55.039-101.587 -39.835  0.00  0.00     0.021 A 
BRANCH  20  23
ATOM     23  O   UNL d   1     -55.890-102.831 -38.243  0.00  0.00    -0.328 OA
ATOM     24  C   UNL d   1     -55.408-102.624 -37.605  0.00  0.00     0.181 C 
ENDBRANCH  20  23
ENDBRANCH  15  17
ENDBRANCH  13  14
ENDBRANCH   1  13
TORSDOF 6
ENDMDL
