MODEL 1
REMARK VINA RESULT:      -8.1      0.000      0.000
REMARK  5 active torsions:
REMARK  status: ('A' for Active; 'I' for Inactive)
REMARK    1  A    between atoms: N_4  and  C_2 
REMARK    2  A    between atoms: C_11  and  C_3 
REMARK       I    between atoms: C_8  and  N_4 
REMARK    3  A    between atoms: C_14  and  C_5 
REMARK    4  A    between atoms: C_7  and  C_8 
REMARK    5  A    between atoms: C_17  and  C_14 
ROOT
ATOM      1  C   UNL d   1      50.643  34.319  52.392  0.00  0.00     0.101 A 
ATOM      2  O   UNL d   1      50.893  33.572  52.653  0.00  0.00    -0.302 OA
ATOM      3  C   UNL d   1      51.658  33.648  52.942  0.00  0.00     0.158 A 
ATOM      4  C   UNL d   1      51.256  34.850  52.523  0.00  0.00     0.027 A 
ATOM      5  C   UNL d   1      51.887  34.442  52.862  0.00  0.00     0.032 A 
ENDROOT
BRANCH   3   6
ATOM      6  C   UNL d   1      52.121  33.041  53.257  0.00  0.00     0.304 C 
ATOM      7  N   UNL d   1      52.540  32.539  52.754  0.00  0.00    -0.180 NA
ATOM      8  O   UNL d   1      52.163  32.941  54.070  0.00  0.00    -0.263 OA
BRANCH   7   9
ATOM      9  C   UNL d   1      53.002  31.933  53.066  0.00  0.00     0.216 A 
ATOM     10  N   UNL d   1      52.883  31.128  52.955  0.00  0.00    -0.200 NA
ATOM     11  C   UNL d   1      53.473  30.726  53.365  0.00  0.00     0.175 A 
ATOM     12  N   UNL d   1      53.958  31.285  53.730  0.00  0.00    -0.187 NA
ATOM     13  S   UNL d   1      53.663  32.036  53.543  0.00  0.00     0.054 SA
BRANCH  11  14
ATOM     14  C   UNL d   1      53.567  29.907  53.407  0.00  0.00     0.082 C 
BRANCH  14  15
ATOM     15  C   UNL d   1      53.052  29.458  53.869  0.00  0.00     0.199 C 
ATOM     16  O   UNL d   1      52.294  29.292  53.598  0.00  0.00    -0.286 OA
ATOM     17  C   UNL d   1      53.296  29.175  54.605  0.00  0.00     0.045 C 
ENDBRANCH  14  15
ENDBRANCH  11  14
ENDBRANCH   7   9
ENDBRANCH   3   6
BRANCH   1  18
ATOM     18  C   UNL d   1      49.907  34.496  52.060  0.00  0.00     0.033 A 
ATOM     19  C   UNL d   1      49.332  34.877  52.513  0.00  0.00     0.060 A 
ATOM     20 CL   UNL d   1      49.489  35.083  53.297  0.00  0.00    -0.082 Cl
ATOM     21  C   UNL d   1      48.599  35.055  52.187  0.00  0.00     0.011 A 
ATOM     22  C   UNL d   1      48.435  34.850  51.398  0.00  0.00     0.001 A 
ATOM     23  C   UNL d   1      49.007  34.471  50.946  0.00  0.00     0.000 A 
ATOM     24  C   UNL d   1      49.743  34.291  51.272  0.00  0.00     0.003 A 
ENDBRANCH   1  18
TORSDOF 5
ENDMDL
MODEL 2
REMARK VINA RESULT:      -7.9      1.767      2.284
REMARK  5 active torsions:
REMARK  status: ('A' for Active; 'I' for Inactive)
REMARK    1  A    between atoms: N_4  and  C_2 
REMARK    2  A    between atoms: C_11  and  C_3 
REMARK       I    between atoms: C_8  and  N_4 
REMARK    3  A    between atoms: C_14  and  C_5 
REMARK    4  A    between atoms: C_7  and  C_8 
REMARK    5  A    between atoms: C_17  and  C_14 
ROOT
ATOM      1  C   UNL d   1      49.514  34.803  52.453  0.00  0.00     0.101 A 
ATOM      2  O   UNL d   1      49.992  34.447  53.031  0.00  0.00    -0.302 OA
ATOM      3  C   UNL d   1      50.602  34.054  52.647  0.00  0.00     0.158 A 
ATOM      4  C   UNL d   1      49.834  34.626  51.717  0.00  0.00     0.027 A 
ATOM      5  C   UNL d   1      50.507  34.163  51.830  0.00  0.00     0.032 A 
ENDROOT
BRANCH   3   6
ATOM      6  C   UNL d   1      51.207  33.623  53.010  0.00  0.00     0.304 C 
ATOM      7  N   UNL d   1      51.927  33.520  52.623  0.00  0.00    -0.180 NA
ATOM      8  O   UNL d   1      51.086  33.300  53.754  0.00  0.00    -0.263 OA
BRANCH   7   9
ATOM      9  C   UNL d   1      52.531  33.091  52.983  0.00  0.00     0.216 A 
ATOM     10  N   UNL d   1      53.200  33.405  53.341  0.00  0.00    -0.200 NA
ATOM     11  C   UNL d   1      53.653  32.778  53.626  0.00  0.00     0.175 A 
ATOM     12  N   UNL d   1      53.261  32.076  53.443  0.00  0.00    -0.187 NA
ATOM     13  S   UNL d   1      52.563  32.272  53.043  0.00  0.00     0.054 SA
BRANCH  11  14
ATOM     14  C   UNL d   1      54.373  32.838  54.025  0.00  0.00     0.082 C 
BRANCH  14  15
ATOM     15  C   UNL d   1      54.381  33.027  54.829  0.00  0.00     0.199 C 
ATOM     16  O   UNL d   1      54.030  32.522  55.374  0.00  0.00    -0.286 OA
ATOM     17  C   UNL d   1      54.743  33.722  55.087  0.00  0.00     0.045 C 
ENDBRANCH  14  15
ENDBRANCH  11  14
ENDBRANCH   7   9
ENDBRANCH   3   6
BRANCH   1  18
ATOM     18  C   UNL d   1      48.838  35.256  52.594  0.00  0.00     0.033 A 
ATOM     19  C   UNL d   1      48.246  35.303  52.021  0.00  0.00     0.060 A 
ATOM     20 CL   UNL d   1      48.328  34.898  51.305  0.00  0.00    -0.082 Cl
ATOM     21  C   UNL d   1      47.571  35.751  52.157  0.00  0.00     0.011 A 
ATOM     22  C   UNL d   1      47.484  36.161  52.875  0.00  0.00     0.001 A 
ATOM     23  C   UNL d   1      48.072  36.116  53.447  0.00  0.00     0.000 A 
ATOM     24  C   UNL d   1      48.750  35.665  53.312  0.00  0.00     0.003 A 
ENDBRANCH   1  18
TORSDOF 5
ENDMDL
MODEL 3
REMARK VINA RESULT:      -7.9      2.708      5.611
REMARK  5 active torsions:
REMARK  status: ('A' for Active; 'I' for Inactive)
REMARK    1  A    between atoms: N_4  and  C_2 
REMARK    2  A    between atoms: C_11  and  C_3 
REMARK       I    between atoms: C_8  and  N_4 
REMARK    3  A    between atoms: C_14  and  C_5 
REMARK    4  A    between atoms: C_7  and  C_8 
REMARK    5  A    between atoms: C_17  and  C_14 
ROOT
ATOM      1  C   UNL d   1      52.774  33.331  53.719  0.00  0.00     0.101 A 
ATOM      2  O   UNL d   1      52.303  33.975  53.490  0.00  0.00    -0.302 OA
ATOM      3  C   UNL d   1      51.655  33.680  53.079  0.00  0.00     0.158 A 
ATOM      4  C   UNL d   1      52.412  32.645  53.448  0.00  0.00     0.027 A 
ATOM      5  C   UNL d   1      51.720  32.854  53.051  0.00  0.00     0.032 A 
ENDROOT
BRANCH   3   6
ATOM      6  C   UNL d   1      51.044  34.129  52.750  0.00  0.00     0.304 C 
ATOM      7  N   UNL d   1      50.315  34.173  53.133  0.00  0.00    -0.180 NA
ATOM      8  O   UNL d   1      51.167  34.528  52.044  0.00  0.00    -0.263 OA
BRANCH   7   9
ATOM      9  C   UNL d   1      49.705  34.620  52.807  0.00  0.00     0.216 A 
ATOM     10  N   UNL d   1      49.348  35.275  53.151  0.00  0.00    -0.200 NA
ATOM     11  C   UNL d   1      48.767  35.547  52.634  0.00  0.00     0.175 A 
ATOM     12  N   UNL d   1      48.765  35.058  51.970  0.00  0.00    -0.187 NA
ATOM     13  S   UNL d   1      49.349  34.481  52.079  0.00  0.00     0.054 SA
BRANCH  11  14
ATOM     14  C   UNL d   1      48.271  36.195  52.756  0.00  0.00     0.082 C 
BRANCH  14  15
ATOM     15  C   UNL d   1      47.534  36.087  53.111  0.00  0.00     0.199 C 
ATOM     16  O   UNL d   1      46.907  35.785  52.675  0.00  0.00    -0.286 OA
ATOM     17  C   UNL d   1      47.425  36.281  53.906  0.00  0.00     0.045 C 
ENDBRANCH  14  15
ENDBRANCH  11  14
ENDBRANCH   7   9
ENDBRANCH   3   6
BRANCH   1  18
ATOM     18  C   UNL d   1      53.481  33.373  54.145  0.00  0.00     0.033 A 
ATOM     19  C   UNL d   1      54.175  33.062  53.824  0.00  0.00     0.060 A 
ATOM     20 CL   UNL d   1      54.165  32.708  53.078  0.00  0.00    -0.082 Cl
ATOM     21  C   UNL d   1      54.880  33.103  54.245  0.00  0.00     0.011 A 
ATOM     22  C   UNL d   1      54.895  33.459  54.996  0.00  0.00     0.001 A 
ATOM     23  C   UNL d   1      54.205  33.769  55.316  0.00  0.00     0.000 A 
ATOM     24  C   UNL d   1      53.496  33.729  54.896  0.00  0.00     0.003 A 
ENDBRANCH   1  18
TORSDOF 5
ENDMDL
MODEL 4
REMARK VINA RESULT:      -7.6      2.388      5.406
REMARK  5 active torsions:
REMARK  status: ('A' for Active; 'I' for Inactive)
REMARK    1  A    between atoms: N_4  and  C_2 
REMARK    2  A    between atoms: C_11  and  C_3 
REMARK       I    between atoms: C_8  and  N_4 
REMARK    3  A    between atoms: C_14  and  C_5 
REMARK    4  A    between atoms: C_7  and  C_8 
REMARK    5  A    between atoms: C_17  and  C_14 
ROOT
ATOM      1  C   UNL d   1      52.651  32.640  53.101  0.00  0.00     0.101 A 
ATOM      2  O   UNL d   1      51.882  32.841  52.860  0.00  0.00    -0.302 OA
ATOM      3  C   UNL d   1      51.841  33.659  52.805  0.00  0.00     0.158 A 
ATOM      4  C   UNL d   1      53.077  33.337  53.192  0.00  0.00     0.027 A 
ATOM      5  C   UNL d   1      52.582  33.971  53.010  0.00  0.00     0.032 A 
ENDROOT
BRANCH   3   6
ATOM      6  C   UNL d   1      51.176  34.098  52.582  0.00  0.00     0.304 C 
ATOM      7  N   UNL d   1      50.525  34.141  53.086  0.00  0.00    -0.180 NA
ATOM      8  O   UNL d   1      51.169  34.488  51.861  0.00  0.00    -0.263 OA
BRANCH   7   9
ATOM      9  C   UNL d   1      49.862  34.577  52.867  0.00  0.00     0.216 A 
ATOM     10  N   UNL d   1      49.549  35.219  53.274  0.00  0.00    -0.200 NA
ATOM     11  C   UNL d   1      48.890  35.485  52.858  0.00  0.00     0.175 A 
ATOM     12  N   UNL d   1      48.795  35.005  52.194  0.00  0.00    -0.187 NA
ATOM     13  S   UNL d   1      49.401  34.441  52.200  0.00  0.00     0.054 SA
BRANCH  11  14
ATOM     14  C   UNL d   1      48.404  36.119  53.067  0.00  0.00     0.082 C 
BRANCH  14  15
ATOM     15  C   UNL d   1      47.706  35.981  53.485  0.00  0.00     0.199 C 
ATOM     16  O   UNL d   1      47.050  35.670  53.099  0.00  0.00    -0.286 OA
ATOM     17  C   UNL d   1      47.665  36.155  54.290  0.00  0.00     0.045 C 
ENDBRANCH  14  15
ENDBRANCH  11  14
ENDBRANCH   7   9
ENDBRANCH   3   6
BRANCH   1  18
ATOM     18  C   UNL d   1      52.936  31.875  53.226  0.00  0.00     0.033 A 
ATOM     19  C   UNL d   1      53.495  31.735  53.817  0.00  0.00     0.060 A 
ATOM     20 CL   UNL d   1      53.772  32.358  54.283  0.00  0.00    -0.082 Cl
ATOM     21  C   UNL d   1      53.781  30.975  53.945  0.00  0.00     0.011 A 
ATOM     22  C   UNL d   1      53.507  30.345  53.478  0.00  0.00     0.001 A 
ATOM     23  C   UNL d   1      52.950  30.482  52.890  0.00  0.00     0.000 A 
ATOM     24  C   UNL d   1      52.662  31.244  52.760  0.00  0.00     0.003 A 
ENDBRANCH   1  18
TORSDOF 5
ENDMDL
MODEL 5
REMARK VINA RESULT:      -5.4      9.448     10.205
REMARK  5 active torsions:
REMARK  status: ('A' for Active; 'I' for Inactive)
REMARK    1  A    between atoms: N_4  and  C_2 
REMARK    2  A    between atoms: C_11  and  C_3 
REMARK       I    between atoms: C_8  and  N_4 
REMARK    3  A    between atoms: C_14  and  C_5 
REMARK    4  A    between atoms: C_7  and  C_8 
REMARK    5  A    between atoms: C_17  and  C_14 
ROOT
ATOM      1  C   UNL d   1      45.069  28.073  57.140  0.00  0.00     0.101 A 
ATOM      2  O   UNL d   1      44.664  27.462  56.752  0.00  0.00    -0.302 OA
ATOM      3  C   UNL d   1      45.030  26.753  56.946  0.00  0.00     0.158 A 
ATOM      4  C   UNL d   1      45.682  27.735  57.571  0.00  0.00     0.027 A 
ATOM      5  C   UNL d   1      45.664  26.920  57.455  0.00  0.00     0.032 A 
ENDROOT
BRANCH   3   6
ATOM      6  C   UNL d   1      44.807  26.003  56.681  0.00  0.00     0.304 C 
ATOM      7  N   UNL d   1      45.080  25.726  55.954  0.00  0.00    -0.180 NA
ATOM      8  O   UNL d   1      44.314  25.538  57.143  0.00  0.00    -0.263 OA
BRANCH   7   9
ATOM      9  C   UNL d   1      44.859  24.979  55.687  0.00  0.00     0.216 A 
ATOM     10  N   UNL d   1      45.056  24.262  56.038  0.00  0.00    -0.200 NA
ATOM     11  C   UNL d   1      44.720  23.660  55.589  0.00  0.00     0.175 A 
ATOM     12  N   UNL d   1      44.314  24.005  54.959  0.00  0.00    -0.187 NA
ATOM     13  S   UNL d   1      44.402  24.826  55.021  0.00  0.00     0.054 SA
BRANCH  11  14
ATOM     14  C   UNL d   1      44.775  22.850  55.739  0.00  0.00     0.082 C 
BRANCH  14  15
ATOM     15  C   UNL d   1      45.475  22.448  55.564  0.00  0.00     0.199 C 
ATOM     16  O   UNL d   1      45.767  22.445  54.796  0.00  0.00    -0.286 OA
ATOM     17  C   UNL d   1      45.882  22.047  56.160  0.00  0.00     0.045 C 
ENDBRANCH  14  15
ENDBRANCH  11  14
ENDBRANCH   7   9
ENDBRANCH   3   6
BRANCH   1  18
ATOM     18  C   UNL d   1      44.888  28.879  57.101  0.00  0.00     0.033 A 
ATOM     19  C   UNL d   1      44.722  29.298  57.791  0.00  0.00     0.060 A 
ATOM     20 CL   UNL d   1      44.737  28.917  58.524  0.00  0.00    -0.082 Cl
ATOM     21  C   UNL d   1      44.541  30.099  57.756  0.00  0.00     0.011 A 
ATOM     22  C   UNL d   1      44.524  30.488  57.022  0.00  0.00     0.001 A 
ATOM     23  C   UNL d   1      44.689  30.072  56.333  0.00  0.00     0.000 A 
ATOM     24  C   UNL d   1      44.871  29.268  56.367  0.00  0.00     0.003 A 
ENDBRANCH   1  18
TORSDOF 5
ENDMDL
