MODEL 1
REMARK VINA RESULT:      -4.4      0.000      0.000
REMARK  2 active torsions:
REMARK  status: ('A' for Active; 'I' for Inactive)
REMARK    1  A    between atoms: C_5  and  N_1 
REMARK    2  A    between atoms: O_14  and  C_11 
ROOT
ATOM      1  C   UNL d   1      56.346   0.081  32.930  0.00  0.00     0.069 A 
ATOM      2  C   UNL d   1      56.568   0.682  32.408  0.00  0.00     0.020 A 
ATOM      3  C   UNL d   1      56.464  -0.717  32.694  0.00  0.00     0.020 A 
ATOM      4  C   UNL d   1      57.011  -0.257  31.446  0.00  0.00     0.094 A 
ATOM      5  C   UNL d   1      56.898   0.506  31.673  0.00  0.00     0.026 A 
ATOM      6  C   UNL d   1      56.795  -0.888  31.954  0.00  0.00     0.026 A 
ENDROOT
BRANCH   1   7
ATOM      7  N   UNL d   1      56.017   0.282  33.664  0.00  0.00    -0.249 N 
ATOM      8  C   UNL d   1      56.438   0.556  34.318  0.00  0.00     0.208 A 
ATOM      9  N   UNL d   1      55.861   0.682  34.928  0.00  0.00    -0.212 NA
ATOM     10  S   UNL d   1      57.265   0.682  34.361  0.00  0.00    -0.038 SA
ATOM     11  C   UNL d   1      55.129   0.477  34.609  0.00  0.00     0.162 A 
ATOM     12  C   UNL d   1      55.234   0.232  33.830  0.00  0.00     0.286 A 
ATOM     13  O   UNL d   1      54.633  -0.028  33.294  0.00  0.00    -0.265 OA
ENDBRANCH   1   7
BRANCH   4  14
ATOM     14  O   UNL d   1      57.341  -0.403  30.707  0.00  0.00    -0.328 OA
ATOM     15  C   UNL d   1      58.067  -0.068  30.506  0.00  0.00     0.181 C 
ENDBRANCH   4  14
TORSDOF 2
ENDMDL
MODEL 2
REMARK VINA RESULT:      -3.7      1.616      3.266
REMARK  2 active torsions:
REMARK  status: ('A' for Active; 'I' for Inactive)
REMARK    1  A    between atoms: C_5  and  N_1 
REMARK    2  A    between atoms: O_14  and  C_11 
ROOT
ATOM      1  C   UNL d   1      57.156   0.083  31.739  0.00  0.00     0.069 A 
ATOM      2  C   UNL d   1      56.679   0.681  32.050  0.00  0.00     0.020 A 
ATOM      3  C   UNL d   1      56.985  -0.714  31.948  0.00  0.00     0.020 A 
ATOM      4  C   UNL d   1      55.885  -0.256  32.753  0.00  0.00     0.094 A 
ATOM      5  C   UNL d   1      56.050   0.506  32.553  0.00  0.00     0.026 A 
ATOM      6  C   UNL d   1      56.352  -0.885  32.453  0.00  0.00     0.026 A 
ENDROOT
BRANCH   1   7
ATOM      7  N   UNL d   1      57.784   0.283  31.235  0.00  0.00    -0.249 N 
ATOM      8  C   UNL d   1      58.523   0.555  31.478  0.00  0.00     0.208 A 
ATOM      9  N   UNL d   1      58.968   0.682  30.765  0.00  0.00    -0.212 NA
ATOM     10  S   UNL d   1      58.775   0.677  32.268  0.00  0.00    -0.038 SA
ATOM     11  C   UNL d   1      58.474   0.481  30.137  0.00  0.00     0.162 A 
ATOM     12  C   UNL d   1      57.746   0.236  30.436  0.00  0.00     0.286 A 
ATOM     13  O   UNL d   1      57.074  -0.020  29.989  0.00  0.00    -0.265 OA
ENDBRANCH   1   7
BRANCH   4  14
ATOM     14  O   UNL d   1      55.251  -0.402  33.257  0.00  0.00    -0.328 OA
ATOM     15  C   UNL d   1      54.986   0.187  33.768  0.00  0.00     0.181 C 
ENDBRANCH   4  14
TORSDOF 2
ENDMDL
MODEL 3
REMARK VINA RESULT:      -3.6      1.516      3.257
REMARK  2 active torsions:
REMARK  status: ('A' for Active; 'I' for Inactive)
REMARK    1  A    between atoms: C_5  and  N_1 
REMARK    2  A    between atoms: O_14  and  C_11 
ROOT
ATOM      1  C   UNL d   1      55.938  -0.215  33.272  0.00  0.00     0.069 A 
ATOM      2  C   UNL d   1      56.295  -0.225  34.017  0.00  0.00     0.020 A 
ATOM      3  C   UNL d   1      55.165   0.110  33.204  0.00  0.00     0.020 A 
ATOM      4  C   UNL d   1      55.168   0.388  34.614  0.00  0.00     0.094 A 
ATOM      5  C   UNL d   1      55.907   0.077  34.679  0.00  0.00     0.026 A 
ATOM      6  C   UNL d   1      54.780   0.411  33.871  0.00  0.00     0.026 A 
ENDROOT
BRANCH   1   7
ATOM      7  N   UNL d   1      56.348  -0.524  32.621  0.00  0.00    -0.249 N 
ATOM      8  C   UNL d   1      56.897  -0.113  32.163  0.00  0.00     0.208 A 
ATOM      9  N   UNL d   1      57.159  -0.661  31.569  0.00  0.00    -0.212 NA
ATOM     10  S   UNL d   1      57.139   0.682  32.269  0.00  0.00    -0.038 SA
ATOM     11  C   UNL d   1      56.756  -1.368  31.703  0.00  0.00     0.162 A 
ATOM     12  C   UNL d   1      56.258  -1.274  32.352  0.00  0.00     0.286 A 
ATOM     13  O   UNL d   1      55.742  -1.857  32.685  0.00  0.00    -0.265 OA
ENDBRANCH   1   7
BRANCH   4  14
ATOM     14  O   UNL d   1      54.804   0.682  35.292  0.00  0.00    -0.328 OA
ATOM     15  C   UNL d   1      55.178   0.613  36.023  0.00  0.00     0.181 C 
ENDBRANCH   4  14
TORSDOF 2
ENDMDL
MODEL 4
REMARK VINA RESULT:      -3.3      2.686      4.232
REMARK  2 active torsions:
REMARK  status: ('A' for Active; 'I' for Inactive)
REMARK    1  A    between atoms: C_5  and  N_1 
REMARK    2  A    between atoms: O_14  and  C_11 
ROOT
ATOM      1  C   UNL d   1      58.082   0.079  30.364  0.00  0.00     0.069 A 
ATOM      2  C   UNL d   1      57.649   0.681  30.727  0.00  0.00     0.020 A 
ATOM      3  C   UNL d   1      57.942  -0.715  30.607  0.00  0.00     0.020 A 
ATOM      4  C   UNL d   1      56.960  -0.245  31.545  0.00  0.00     0.094 A 
ATOM      5  C   UNL d   1      57.094   0.513  31.313  0.00  0.00     0.026 A 
ATOM      6  C   UNL d   1      57.384  -0.878  31.195  0.00  0.00     0.026 A 
ENDROOT
BRANCH   1   7
ATOM      7  N   UNL d   1      58.635   0.272  29.778  0.00  0.00    -0.249 N 
ATOM      8  C   UNL d   1      59.401   0.546  29.914  0.00  0.00     0.208 A 
ATOM      9  N   UNL d   1      59.744   0.663  29.146  0.00  0.00    -0.212 NA
ATOM     10  S   UNL d   1      59.757   0.678  30.661  0.00  0.00    -0.038 SA
ATOM     11  C   UNL d   1      59.170   0.454  28.594  0.00  0.00     0.162 A 
ATOM     12  C   UNL d   1      58.489   0.214  28.991  0.00  0.00     0.286 A 
ATOM     13  O   UNL d   1      57.763  -0.047  28.643  0.00  0.00    -0.265 OA
ENDBRANCH   1   7
BRANCH   4  14
ATOM     14  O   UNL d   1      56.400  -0.384  32.132  0.00  0.00    -0.328 OA
ATOM     15  C   UNL d   1      56.301  -1.144  32.436  0.00  0.00     0.181 C 
ENDBRANCH   4  14
TORSDOF 2
ENDMDL
MODEL 5
REMARK VINA RESULT:      -3.3      0.785      1.164
REMARK  2 active torsions:
REMARK  status: ('A' for Active; 'I' for Inactive)
REMARK    1  A    between atoms: C_5  and  N_1 
REMARK    2  A    between atoms: O_14  and  C_11 
ROOT
ATOM      1  C   UNL d   1      56.777  -0.049  32.241  0.00  0.00     0.069 A 
ATOM      2  C   UNL d   1      56.963  -0.761  31.866  0.00  0.00     0.020 A 
ATOM      3  C   UNL d   1      56.934   0.670  31.834  0.00  0.00     0.020 A 
ATOM      4  C   UNL d   1      57.443  -0.083  30.721  0.00  0.00     0.094 A 
ATOM      5  C   UNL d   1      57.294  -0.771  31.110  0.00  0.00     0.026 A 
ATOM      6  C   UNL d   1      57.266   0.655  31.076  0.00  0.00     0.026 A 
ENDROOT
BRANCH   1   7
ATOM      7  N   UNL d   1      56.445  -0.065  33.001  0.00  0.00    -0.249 N 
ATOM      8  C   UNL d   1      56.780   0.270  33.676  0.00  0.00     0.208 A 
ATOM      9  N   UNL d   1      56.236   0.109  34.308  0.00  0.00    -0.212 NA
ATOM     10  S   UNL d   1      57.508   0.682  33.719  0.00  0.00    -0.038 SA
ATOM     11  C   UNL d   1      55.607  -0.311  33.980  0.00  0.00     0.162 A 
ATOM     12  C   UNL d   1      55.744  -0.414  33.174  0.00  0.00     0.286 A 
ATOM     13  O   UNL d   1      55.243  -0.813  32.621  0.00  0.00    -0.265 OA
ENDBRANCH   1   7
BRANCH   4  14
ATOM     14  O   UNL d   1      57.774  -0.122  29.968  0.00  0.00    -0.328 OA
ATOM     15  C   UNL d   1      58.545   0.141  29.842  0.00  0.00     0.181 C 
ENDBRANCH   4  14
TORSDOF 2
ENDMDL
MODEL 6
REMARK VINA RESULT:      -2.0      3.971      5.089
REMARK  2 active torsions:
REMARK  status: ('A' for Active; 'I' for Inactive)
REMARK    1  A    between atoms: C_5  and  N_1 
REMARK    2  A    between atoms: O_14  and  C_11 
ROOT
ATOM      1  C   UNL d   1      58.998  -1.386  29.192  0.00  0.00     0.069 A 
ATOM      2  C   UNL d   1      59.703  -1.638  29.542  0.00  0.00     0.020 A 
ATOM      3  C   UNL d   1      58.622  -1.897  28.640  0.00  0.00     0.020 A 
ATOM      4  C   UNL d   1      59.673  -2.859  28.829  0.00  0.00     0.094 A 
ATOM      5  C   UNL d   1      60.032  -2.371  29.357  0.00  0.00     0.026 A 
ATOM      6  C   UNL d   1      58.957  -2.632  28.457  0.00  0.00     0.026 A 
ENDROOT
BRANCH   1   7
ATOM      7  N   UNL d   1      58.686  -0.645  29.394  0.00  0.00    -0.249 N 
ATOM      8  C   UNL d   1      58.906   0.074  29.056  0.00  0.00     0.208 A 
ATOM      9  N   UNL d   1      58.434   0.665  29.444  0.00  0.00    -0.212 NA
ATOM     10  S   UNL d   1      59.478   0.188  28.455  0.00  0.00    -0.038 SA
ATOM     11  C   UNL d   1      57.959   0.271  29.989  0.00  0.00     0.162 A 
ATOM     12  C   UNL d   1      58.121  -0.536  29.952  0.00  0.00     0.286 A 
ATOM     13  O   UNL d   1      57.762  -1.148  30.414  0.00  0.00    -0.265 OA
ENDBRANCH   1   7
BRANCH   4  14
ATOM     14  O   UNL d   1      60.024  -3.585  28.663  0.00  0.00    -0.328 OA
ATOM     15  C   UNL d   1      60.843  -3.641  28.595  0.00  0.00     0.181 C 
ENDBRANCH   4  14
TORSDOF 2
ENDMDL
