MODEL 1
REMARK VINA RESULT:      72.2      0.000      0.000
REMARK  3 active torsions:
REMARK  status: ('A' for Active; 'I' for Inactive)
REMARK    1  A    between atoms: N_11  and  C_1 
REMARK    2  A    between atoms: N_5  and  C_4 
REMARK    3  A    between atoms: C_7  and  C_10 
REMARK       I    between atoms: C_10  and  N_12 
ROOT
ATOM      1  C   UNL d   1     -54.741 -99.925 -41.907  0.00  0.00     0.288 C 
ATOM      2  N   UNL d   1     -54.731-100.587 -39.517  0.00  0.00    -0.281 N 
ATOM      3  N   UNL d   1     -54.738-100.151 -41.105  0.00  0.00    -0.267 N 
ATOM      4  C   UNL d   1     -54.751-101.160 -40.100  0.00  0.00     0.101 A 
ATOM      5  C   UNL d   1     -54.714 -99.788 -39.727  0.00  0.00     0.101 A 
ATOM      6  C   UNL d   1     -54.754-100.950 -40.895  0.00  0.00     0.102 A 
ATOM      7  C   UNL d   1     -54.717 -99.561 -40.521  0.00  0.00     0.102 A 
ATOM      8  O   UNL d   1     -54.724 -99.133 -42.116  0.00  0.00    -0.264 OA
ENDROOT
BRANCH   2   9
ATOM      9  C   UNL d   1     -54.728-100.797 -38.723  0.00  0.00     0.179 A 
ATOM     10  N   UNL d   1     -54.727-100.271 -38.085  0.00  0.00    -0.222 NA
ATOM     11  C   UNL d   1     -54.723-100.706 -37.388  0.00  0.00     0.089 A 
ATOM     12  C   UNL d   1     -54.722-100.484 -36.605  0.00  0.00     0.018 A 
ATOM     13  C   UNL d   1     -54.721-101.505 -37.593  0.00  0.00     0.050 A 
ATOM     14  C   UNL d   1     -54.717-101.051 -36.014  0.00  0.00     0.002 A 
ATOM     15  C   UNL d   1     -54.724 -99.684 -36.402  0.00  0.00     0.002 C 
ATOM     16  C   UNL d   1     -54.715-101.850 -36.218  0.00  0.00     0.001 A 
ATOM     17  C   UNL d   1     -54.717-102.073 -37.013  0.00  0.00     0.007 A 
ATOM     18  C   UNL d   1     -54.715-102.869 -37.215  0.00  0.00     0.001 C 
ATOM     19  S   UNL d   1     -54.724-101.567 -38.408  0.00  0.00    -0.048 SA
ENDBRANCH   2   9
BRANCH   1  20
ATOM     20  C   UNL d   1     -54.761-100.514 -42.486  0.00  0.00     0.158 A 
ATOM     21  O   UNL d   1     -54.725-100.396 -43.308  0.00  0.00    -0.281 OA
ATOM     22  C   UNL d   1     -54.764-101.146 -43.664  0.00  0.00     0.228 A 
ATOM     23  C   UNL d   1     -54.821-101.704 -43.063  0.00  0.00     0.051 A 
ATOM     24  C   UNL d   1     -54.819-101.310 -42.339  0.00  0.00     0.034 A 
BRANCH  22  25
ATOM     25  N   UNL d   1     -54.747-101.309 -44.478  0.00  0.00    -0.089 N 
ATOM     26  O   UNL d   1     -54.718-100.672 -45.027  0.00  0.00    -0.530 OA
ATOM     27  O   UNL d   1     -54.759-102.080 -44.753  0.00  0.00    -0.530 OA
ENDBRANCH  22  25
ENDBRANCH   1  20
TORSDOF 3
ENDMDL
