MODEL 1
REMARK VINA RESULT:      -8.8      0.000      0.000
REMARK  3 active torsions:
REMARK  status: ('A' for Active; 'I' for Inactive)
REMARK    1  A    between atoms: N_2  and  S_1 
REMARK    2  A    between atoms: C_3  and  S_1 
REMARK    3  A    between atoms: O_16  and  C_9 
ROOT
ATOM      1  S   UNL d   1      52.621  32.751  53.248  0.00  0.00     0.274 S 
ATOM      2  O   UNL d   1      52.347  32.806  54.024  0.00  0.00    -0.199 OA
ATOM      3  O   UNL d   1      52.892  32.705  52.466  0.00  0.00    -0.199 OA
ENDROOT
BRANCH   1   4
ATOM      4  N   UNL d   1      52.319  33.508  53.088  0.00  0.00    -0.214 N 
ATOM      5  C   UNL d   1      52.764  34.190  52.959  0.00  0.00     0.157 A 
ATOM      6  N   UNL d   1      52.240  34.812  52.822  0.00  0.00    -0.226 NA
ATOM      7  C   UNL d   1      53.587  34.247  52.966  0.00  0.00     0.041 C 
ATOM      8  C   UNL d   1      51.471  34.514  52.866  0.00  0.00     0.100 A 
ATOM      9  C   UNL d   1      51.520  33.714  53.029  0.00  0.00     0.094 A 
ATOM     10  C   UNL d   1      50.735  34.878  52.777  0.00  0.00     0.021 A 
ATOM     11  C   UNL d   1      50.829  33.265  53.105  0.00  0.00     0.020 A 
ATOM     12  C   UNL d   1      50.092  33.617  53.018  0.00  0.00     0.002 A 
ATOM     13  C   UNL d   1      50.044  34.428  52.853  0.00  0.00     0.002 A 
ENDBRANCH   1   4
BRANCH   1  14
ATOM     14  C   UNL d   1      52.921  31.998  53.406  0.00  0.00     0.126 A 
ATOM     15  C   UNL d   1      52.704  31.359  52.935  0.00  0.00     0.015 A 
ATOM     16  C   UNL d   1      53.004  30.606  53.094  0.00  0.00     0.001 A 
ATOM     17  C   UNL d   1      52.787  29.978  52.626  0.00  0.00     0.000 C 
ATOM     18  C   UNL d   1      53.525  30.497  53.729  0.00  0.00     0.002 A 
ATOM     19  C   UNL d   1      53.742  31.136  54.201  0.00  0.00     0.025 A 
ATOM     20  C   UNL d   1      53.820  29.754  53.884  0.00  0.00     0.000 C 
ATOM     21  C   UNL d   1      53.440  31.887  54.039  0.00  0.00     0.106 A 
BRANCH  21  22
ATOM     22  O   UNL d   1      53.655  32.525  54.507  0.00  0.00    -0.327 OA
ATOM     23  C   UNL d   1      54.132  32.410  55.157  0.00  0.00     0.181 C 
ENDBRANCH  21  22
ENDBRANCH   1  14
TORSDOF 3
ENDMDL
MODEL 2
REMARK VINA RESULT:      -8.4      1.127      3.539
REMARK  3 active torsions:
REMARK  status: ('A' for Active; 'I' for Inactive)
REMARK    1  A    between atoms: N_2  and  S_1 
REMARK    2  A    between atoms: C_3  and  S_1 
REMARK    3  A    between atoms: O_16  and  C_9 
ROOT
ATOM      1  S   UNL d   1      52.783  32.654  53.267  0.00  0.00     0.274 S 
ATOM      2  O   UNL d   1      52.524  32.535  54.042  0.00  0.00    -0.199 OA
ATOM      3  O   UNL d   1      53.050  32.767  52.491  0.00  0.00    -0.199 OA
ENDROOT
BRANCH   1   4
ATOM      4  N   UNL d   1      53.315  32.022  53.349  0.00  0.00    -0.214 N 
ATOM      5  C   UNL d   1      54.135  32.084  53.419  0.00  0.00     0.157 A 
ATOM      6  N   UNL d   1      54.441  31.321  53.487  0.00  0.00    -0.226 NA
ATOM      7  C   UNL d   1      54.575  32.781  53.422  0.00  0.00     0.041 C 
ATOM      8  C   UNL d   1      53.810  30.787  53.458  0.00  0.00     0.100 A 
ATOM      9  C   UNL d   1      53.121  31.219  53.374  0.00  0.00     0.094 A 
ATOM     10  C   UNL d   1      53.786  29.964  53.500  0.00  0.00     0.021 A 
ATOM     11  C   UNL d   1      52.392  30.828  53.329  0.00  0.00     0.020 A 
ATOM     12  C   UNL d   1      52.357  30.008  53.369  0.00  0.00     0.002 A 
ATOM     13  C   UNL d   1      53.057  29.573  53.455  0.00  0.00     0.002 A 
ENDBRANCH   1   4
BRANCH   1  14
ATOM     14  C   UNL d   1      52.254  33.284  53.187  0.00  0.00     0.126 A 
ATOM     15  C   UNL d   1      51.706  33.287  52.572  0.00  0.00     0.015 A 
ATOM     16  C   UNL d   1      51.177  33.916  52.491  0.00  0.00     0.001 A 
ATOM     17  C   UNL d   1      50.638  33.914  51.883  0.00  0.00     0.000 C 
ATOM     18  C   UNL d   1      51.200  34.544  53.031  0.00  0.00     0.002 A 
ATOM     19  C   UNL d   1      51.749  34.541  53.646  0.00  0.00     0.025 A 
ATOM     20  C   UNL d   1      50.678  35.163  52.949  0.00  0.00     0.000 C 
ATOM     21  C   UNL d   1      52.276  33.911  53.723  0.00  0.00     0.106 A 
BRANCH  21  22
ATOM     22  O   UNL d   1      52.822  33.906  54.335  0.00  0.00    -0.327 OA
ATOM     23  C   UNL d   1      52.899  34.559  54.816  0.00  0.00     0.181 C 
ENDBRANCH  21  22
ENDBRANCH   1  14
TORSDOF 3
ENDMDL
MODEL 3
REMARK VINA RESULT:      -8.1      1.499      3.914
REMARK  3 active torsions:
REMARK  status: ('A' for Active; 'I' for Inactive)
REMARK    1  A    between atoms: N_2  and  S_1 
REMARK    2  A    between atoms: C_3  and  S_1 
REMARK    3  A    between atoms: O_16  and  C_9 
ROOT
ATOM      1  S   UNL d   1      53.405  31.789  53.907  0.00  0.00     0.274 S 
ATOM      2  O   UNL d   1      52.699  31.770  54.335  0.00  0.00    -0.199 OA
ATOM      3  O   UNL d   1      54.112  31.800  53.475  0.00  0.00    -0.199 OA
ENDROOT
BRANCH   1   4
ATOM      4  N   UNL d   1      53.262  31.017  53.637  0.00  0.00    -0.214 N 
ATOM      5  C   UNL d   1      53.072  30.802  52.864  0.00  0.00     0.157 A 
ATOM      6  N   UNL d   1      52.977  29.983  52.845  0.00  0.00    -0.226 NA
ATOM      7  C   UNL d   1      52.989  31.311  52.219  0.00  0.00     0.041 C 
ATOM      8  C   UNL d   1      53.109  29.692  53.607  0.00  0.00     0.100 A 
ATOM      9  C   UNL d   1      53.283  30.327  54.092  0.00  0.00     0.094 A 
ATOM     10  C   UNL d   1      53.090  28.926  53.913  0.00  0.00     0.021 A 
ATOM     11  C   UNL d   1      53.442  30.203  54.895  0.00  0.00     0.020 A 
ATOM     12  C   UNL d   1      53.426  29.444  55.210  0.00  0.00     0.002 A 
ATOM     13  C   UNL d   1      53.249  28.802  54.716  0.00  0.00     0.002 A 
ENDBRANCH   1   4
BRANCH   1  14
ATOM     14  C   UNL d   1      53.547  32.557  54.176  0.00  0.00     0.126 A 
ATOM     15  C   UNL d   1      54.253  32.736  54.561  0.00  0.00     0.015 A 
ATOM     16  C   UNL d   1      54.396  33.504  54.830  0.00  0.00     0.001 A 
ATOM     17  C   UNL d   1      55.093  33.676  55.210  0.00  0.00     0.000 C 
ATOM     18  C   UNL d   1      53.825  34.093  54.711  0.00  0.00     0.002 A 
ATOM     19  C   UNL d   1      53.120  33.915  54.325  0.00  0.00     0.025 A 
ATOM     20  C   UNL d   1      53.968  34.850  54.977  0.00  0.00     0.000 C 
ATOM     21  C   UNL d   1      52.981  33.146  54.058  0.00  0.00     0.106 A 
BRANCH  21  22
ATOM     22  O   UNL d   1      52.279  32.966  53.674  0.00  0.00    -0.327 OA
ATOM     23  C   UNL d   1      51.721  33.548  53.555  0.00  0.00     0.181 C 
ENDBRANCH  21  22
ENDBRANCH   1  14
TORSDOF 3
ENDMDL
MODEL 4
REMARK VINA RESULT:      -7.9      1.268      2.213
REMARK  3 active torsions:
REMARK  status: ('A' for Active; 'I' for Inactive)
REMARK    1  A    between atoms: N_2  and  S_1 
REMARK    2  A    between atoms: C_3  and  S_1 
REMARK    3  A    between atoms: O_16  and  C_9 
ROOT
ATOM      1  S   UNL d   1      53.431  32.660  53.982  0.00  0.00     0.274 S 
ATOM      2  O   UNL d   1      53.934  32.841  53.353  0.00  0.00    -0.199 OA
ATOM      3  O   UNL d   1      52.929  32.486  54.617  0.00  0.00    -0.199 OA
ENDROOT
BRANCH   1   4
ATOM      4  N   UNL d   1      53.582  33.404  54.317  0.00  0.00    -0.214 N 
ATOM      5  C   UNL d   1      54.023  33.549  54.999  0.00  0.00     0.157 A 
ATOM      6  N   UNL d   1      54.029  34.363  55.128  0.00  0.00    -0.226 NA
ATOM      7  C   UNL d   1      54.394  32.984  55.472  0.00  0.00     0.041 C 
ATOM      8  C   UNL d   1      53.592  34.723  54.525  0.00  0.00     0.100 A 
ATOM      9  C   UNL d   1      53.319  34.133  54.029  0.00  0.00     0.094 A 
ATOM     10  C   UNL d   1      53.414  35.513  54.373  0.00  0.00     0.021 A 
ATOM     11  C   UNL d   1      52.859  34.329  53.369  0.00  0.00     0.020 A 
ATOM     12  C   UNL d   1      52.675  35.114  53.208  0.00  0.00     0.002 A 
ATOM     13  C   UNL d   1      52.954  35.710  53.713  0.00  0.00     0.002 A 
ENDBRANCH   1   4
BRANCH   1  14
ATOM     14  C   UNL d   1      53.281  31.918  53.649  0.00  0.00     0.126 A 
ATOM     15  C   UNL d   1      53.880  31.355  53.609  0.00  0.00     0.015 A 
ATOM     16  C   UNL d   1      53.731  30.614  53.275  0.00  0.00     0.001 A 
ATOM     17  C   UNL d   1      54.325  30.061  53.237  0.00  0.00     0.000 C 
ATOM     18  C   UNL d   1      52.975  30.440  52.983  0.00  0.00     0.002 A 
ATOM     19  C   UNL d   1      52.376  31.004  53.024  0.00  0.00     0.025 A 
ATOM     20  C   UNL d   1      52.829  29.709  52.655  0.00  0.00     0.000 C 
ATOM     21  C   UNL d   1      52.529  31.743  53.357  0.00  0.00     0.106 A 
BRANCH  21  22
ATOM     22  O   UNL d   1      51.934  32.306  53.399  0.00  0.00    -0.327 OA
ATOM     23  C   UNL d   1      51.177  32.114  53.168  0.00  0.00     0.181 C 
ENDBRANCH  21  22
ENDBRANCH   1  14
TORSDOF 3
ENDMDL
MODEL 5
REMARK VINA RESULT:      -7.2      1.133      3.714
REMARK  3 active torsions:
REMARK  status: ('A' for Active; 'I' for Inactive)
REMARK    1  A    between atoms: N_2  and  S_1 
REMARK    2  A    between atoms: C_3  and  S_1 
REMARK    3  A    between atoms: O_16  and  C_9 
ROOT
ATOM      1  S   UNL d   1      52.513  33.235  53.519  0.00  0.00     0.274 S 
ATOM      2  O   UNL d   1      52.250  33.513  54.250  0.00  0.00    -0.199 OA
ATOM      3  O   UNL d   1      52.784  32.953  52.788  0.00  0.00    -0.199 OA
ENDROOT
BRANCH   1   4
ATOM      4  N   UNL d   1      53.179  32.900  53.885  0.00  0.00    -0.214 N 
ATOM      5  C   UNL d   1      53.428  32.118  53.815  0.00  0.00     0.157 A 
ATOM      6  N   UNL d   1      54.110  32.028  54.271  0.00  0.00    -0.226 NA
ATOM      7  C   UNL d   1      53.065  31.525  53.371  0.00  0.00     0.041 C 
ATOM      8  C   UNL d   1      54.282  32.756  54.622  0.00  0.00     0.100 A 
ATOM      9  C   UNL d   1      53.709  33.290  54.385  0.00  0.00     0.094 A 
ATOM     10  C   UNL d   1      54.889  32.991  55.128  0.00  0.00     0.021 A 
ATOM     11  C   UNL d   1      53.739  34.073  54.653  0.00  0.00     0.020 A 
ATOM     12  C   UNL d   1      54.340  34.318  55.157  0.00  0.00     0.002 A 
ATOM     13  C   UNL d   1      54.919  33.774  55.396  0.00  0.00     0.002 A 
ENDBRANCH   1   4
BRANCH   1  14
ATOM     14  C   UNL d   1      51.851  33.568  53.153  0.00  0.00     0.126 A 
ATOM     15  C   UNL d   1      51.094  33.376  53.415  0.00  0.00     0.015 A 
ATOM     16  C   UNL d   1      50.432  33.708  53.050  0.00  0.00     0.001 A 
ATOM     17  C   UNL d   1      49.687  33.516  53.312  0.00  0.00     0.000 C 
ATOM     18  C   UNL d   1      50.532  34.236  52.420  0.00  0.00     0.002 A 
ATOM     19  C   UNL d   1      51.289  34.428  52.158  0.00  0.00     0.025 A 
ATOM     20  C   UNL d   1      49.878  34.563  52.061  0.00  0.00     0.000 C 
ATOM     21  C   UNL d   1      51.948  34.094  52.525  0.00  0.00     0.106 A 
BRANCH  21  22
ATOM     22  O   UNL d   1      52.703  34.284  52.265  0.00  0.00    -0.327 OA
ATOM     23  C   UNL d   1      52.800  34.802  51.644  0.00  0.00     0.181 C 
ENDBRANCH  21  22
ENDBRANCH   1  14
TORSDOF 3
ENDMDL
