MODEL 1
REMARK VINA RESULT:      -3.3      0.000      0.000
REMARK  6 active torsions:
REMARK  status: ('A' for Active; 'I' for Inactive)
REMARK    1  A    between atoms: S_13  and  C_3 
REMARK    2  A    between atoms: C_21  and  C_4 
REMARK       I    between atoms: N_7  and  C_10 
REMARK    3  A    between atoms: C_10  and  C_20 
REMARK    4  A    between atoms: C_20  and  S_13 
REMARK    5  A    between atoms: O_24  and  C_16 
REMARK    6  A    between atoms: O_25  and  C_17 
ROOT
ATOM      1  N   UNL d   1      57.426  -0.067  31.784  0.00  0.00    -0.272 N 
ATOM      2  C   UNL d   1      57.719  -0.325  31.028  0.00  0.00     0.271 C 
ATOM      3  C   UNL d   1      56.404  -0.064  32.770  0.00  0.00     0.020 A 
ATOM      4  C   UNL d   1      56.683  -0.314  32.043  0.00  0.00     0.083 A 
ATOM      5  C   UNL d   1      56.852   0.423  33.232  0.00  0.00     0.005 A 
ATOM      6  C   UNL d   1      55.655  -0.311  33.035  0.00  0.00     0.028 A 
ATOM      7  C   UNL d   1      55.370  -0.061  33.768  0.00  0.00     0.116 A 
ATOM      8  C   UNL d   1      55.818   0.426  34.231  0.00  0.00     0.116 A 
ATOM      9  C   UNL d   1      56.566   0.679  33.976  0.00  0.00     0.026 A 
ATOM     10  C   UNL d   1      57.874   0.420  32.246  0.00  0.00     0.083 A 
ATOM     11  O   UNL d   1      57.254  -0.823  30.560  0.00  0.00    -0.266 OA
ATOM     12  C   UNL d   1      57.594   0.675  32.984  0.00  0.00     0.019 A 
ENDROOT
BRANCH   2  13
ATOM     13  C   UNL d   1      58.463  -0.077  30.770  0.00  0.00     0.099 C 
BRANCH  13  14
ATOM     14  S   UNL d   1      58.809  -0.443  30.124  0.00  0.00    -0.043 SA
BRANCH  14  15
ATOM     15  C   UNL d   1      59.513  -0.133  29.795  0.00  0.00     0.202 A 
ATOM     16  N   UNL d   1      60.002  -0.530  29.292  0.00  0.00    -0.263 N 
ATOM     17  C   UNL d   1      60.619  -0.025  29.108  0.00  0.00     0.202 A 
ATOM     18  C   UNL d   1      60.129  -1.240  28.890  0.00  0.00     0.074 A 
ATOM     19  N   UNL d   1      60.506   0.681  29.499  0.00  0.00    -0.121 NA
ATOM     20  S   UNL d   1      61.133  -0.417  28.590  0.00  0.00    -0.046 SA
ATOM     21  N   UNL d   1      59.814   0.608  29.926  0.00  0.00    -0.121 NA
ATOM     22  C   UNL d   1      60.828  -1.173  28.455  0.00  0.00     0.056 A 
BRANCH  18  23
ATOM     23  C   UNL d   1      59.641  -1.895  28.921  0.00  0.00     0.017 A 
ATOM     24  C   UNL d   1      59.837  -2.530  29.427  0.00  0.00     0.002 A 
ATOM     25  C   UNL d   1      59.350  -3.176  29.453  0.00  0.00     0.000 A 
ATOM     26  C   UNL d   1      58.669  -3.225  28.998  0.00  0.00     0.000 A 
ATOM     27  C   UNL d   1      58.483  -2.583  28.496  0.00  0.00     0.000 A 
ATOM     28  C   UNL d   1      58.968  -1.935  28.467  0.00  0.00     0.002 A 
ENDBRANCH  18  23
ENDBRANCH  14  15
ENDBRANCH  13  14
ENDBRANCH   2  13
BRANCH   7  29
ATOM     29  O   UNL d   1      54.625  -0.316  34.014  0.00  0.00    -0.326 OA
ATOM     30  C   UNL d   1      53.946   0.151  33.836  0.00  0.00     0.181 C 
ENDBRANCH   7  29
BRANCH   8  31
ATOM     31  O   UNL d   1      55.544   0.682  34.963  0.00  0.00    -0.326 OA
ATOM     32  C   UNL d   1      55.996   0.510  35.646  0.00  0.00     0.181 C 
ENDBRANCH   8  31
TORSDOF 6
ENDMDL
