MODEL 1
REMARK VINA RESULT:      -8.1      0.000      0.000
REMARK  7 active torsions:
REMARK  status: ('A' for Active; 'I' for Inactive)
REMARK    1  A    between atoms: S_10  and  C_5 
REMARK    2  A    between atoms: C_11  and  N_8 
REMARK    3  A    between atoms: C_15  and  S_10 
REMARK    4  A    between atoms: C_19  and  C_11 
REMARK    5  A    between atoms: C_14  and  C_15 
REMARK    6  A    between atoms: C_17  and  C_14 
REMARK    7  A    between atoms: C_20  and  C_19 
ROOT
ATOM      1  C   UNL d   1      51.854  33.581  53.216  0.00  0.00     0.174 A 
ATOM      2  C   UNL d   1      52.472  34.010  53.554  0.00  0.00     0.159 A 
ATOM      3  N   UNL d   1      52.108  32.811  53.097  0.00  0.00    -0.203 NA
ATOM      4  N   UNL d   1      51.120  33.957  53.055  0.00  0.00    -0.239 N 
ATOM      5  C   UNL d   1      52.893  32.799  53.375  0.00  0.00     0.181 A 
ATOM      6  C   UNL d   1      51.010  34.727  53.226  0.00  0.00     0.358 A 
ATOM      7  N   UNL d   1      51.652  35.172  53.577  0.00  0.00    -0.152 NA
ATOM      8  N   UNL d   1      53.094  33.496  53.637  0.00  0.00    -0.279 N 
ATOM      9  C   UNL d   1      52.368  34.824  53.739  0.00  0.00     0.302 A 
ATOM     10  O   UNL d   1      50.275  35.077  53.058  0.00  0.00    -0.244 OA
ATOM     11  O   UNL d   1      52.971  35.275  54.077  0.00  0.00    -0.263 OA
ATOM     12  C   UNL d   1      50.487  33.550  52.718  0.00  0.00     0.105 C 
ENDROOT
BRANCH   5  13
ATOM     13  S   UNL d   1      53.392  32.127  53.371  0.00  0.00    -0.046 SA
BRANCH  13  14
ATOM     14  C   UNL d   1      53.075  31.371  53.310  0.00  0.00     0.080 C 
BRANCH  14  15
ATOM     15  C   UNL d   1      53.575  30.709  53.281  0.00  0.00     0.202 C 
ATOM     16  O   UNL d   1      54.273  30.762  52.874  0.00  0.00    -0.286 OA
BRANCH  15  17
ATOM     17  C   UNL d   1      53.356  30.012  53.665  0.00  0.00     0.040 A 
ATOM     18  C   UNL d   1      52.773  29.534  53.361  0.00  0.00     0.003 A 
ATOM     19  C   UNL d   1      52.555  28.838  53.744  0.00  0.00     0.000 A 
ATOM     20  C   UNL d   1      52.933  28.611  54.455  0.00  0.00     0.000 A 
ATOM     21  C   UNL d   1      53.520  29.104  54.749  0.00  0.00     0.000 A 
ATOM     22  C   UNL d   1      53.735  29.797  54.366  0.00  0.00     0.003 A 
ENDBRANCH  15  17
ENDBRANCH  14  15
ENDBRANCH  13  14
ENDBRANCH   5  13
BRANCH   8  23
ATOM     23  C   UNL d   1      53.857  33.685  53.962  0.00  0.00     0.082 C 
BRANCH  23  24
ATOM     24  C   UNL d   1      54.078  33.444  54.718  0.00  0.00     0.019 C 
BRANCH  24  25
ATOM     25  C   UNL d   1      54.792  33.614  55.015  0.00  0.00     0.002 C 
ATOM     26  C   UNL d   1      54.904  33.621  55.832  0.00  0.00     0.000 C 
ATOM     27  C   UNL d   1      55.406  33.780  54.539  0.00  0.00     0.000 C 
ENDBRANCH  24  25
ENDBRANCH  23  24
ENDBRANCH   8  23
TORSDOF 7
ENDMDL
MODEL 2
REMARK VINA RESULT:      -7.6      1.451      4.279
REMARK  7 active torsions:
REMARK  status: ('A' for Active; 'I' for Inactive)
REMARK    1  A    between atoms: S_10  and  C_5 
REMARK    2  A    between atoms: C_11  and  N_8 
REMARK    3  A    between atoms: C_15  and  S_10 
REMARK    4  A    between atoms: C_19  and  C_11 
REMARK    5  A    between atoms: C_14  and  C_15 
REMARK    6  A    between atoms: C_17  and  C_14 
REMARK    7  A    between atoms: C_20  and  C_19 
ROOT
ATOM      1  C   UNL d   1      52.864  31.104  53.233  0.00  0.00     0.174 A 
ATOM      2  C   UNL d   1      53.214  31.446  53.897  0.00  0.00     0.159 A 
ATOM      3  N   UNL d   1      52.553  31.701  52.767  0.00  0.00    -0.203 NA
ATOM      4  N   UNL d   1      52.874  30.269  53.137  0.00  0.00    -0.239 N 
ATOM      5  C   UNL d   1      52.730  32.406  53.176  0.00  0.00     0.181 A 
ATOM      6  C   UNL d   1      53.219  29.800  53.679  0.00  0.00     0.358 A 
ATOM      7  N   UNL d   1      53.583  30.156  54.369  0.00  0.00    -0.152 NA
ATOM      8  N   UNL d   1      53.111  32.248  53.826  0.00  0.00    -0.279 N 
ATOM      9  C   UNL d   1      53.581  30.961  54.477  0.00  0.00     0.302 A 
ATOM     10  O   UNL d   1      53.217  28.977  53.562  0.00  0.00    -0.244 OA
ATOM     11  O   UNL d   1      53.939  31.279  55.150  0.00  0.00    -0.263 OA
ATOM     12  C   UNL d   1      52.531  29.902  52.482  0.00  0.00     0.105 C 
ENDROOT
BRANCH   5  13
ATOM     13  S   UNL d   1      52.522  33.173  52.916  0.00  0.00    -0.046 SA
BRANCH  13  14
ATOM     14  C   UNL d   1      51.787  33.317  52.579  0.00  0.00     0.080 C 
BRANCH  14  15
ATOM     15  C   UNL d   1      51.579  34.084  52.338  0.00  0.00     0.202 C 
ATOM     16  O   UNL d   1      52.168  34.609  52.152  0.00  0.00    -0.286 OA
BRANCH  15  17
ATOM     17  C   UNL d   1      50.785  34.300  52.292  0.00  0.00     0.040 A 
ATOM     18  C   UNL d   1      50.392  34.586  52.944  0.00  0.00     0.003 A 
ATOM     19  C   UNL d   1      49.598  34.802  52.898  0.00  0.00     0.000 A 
ATOM     20  C   UNL d   1      49.182  34.729  52.176  0.00  0.00     0.000 A 
ATOM     21  C   UNL d   1      49.592  34.438  51.526  0.00  0.00     0.000 A 
ATOM     22  C   UNL d   1      50.383  34.224  51.575  0.00  0.00     0.003 A 
ENDBRANCH  15  17
ENDBRANCH  14  15
ENDBRANCH  13  14
ENDBRANCH   5  13
BRANCH   8  23
ATOM     23  C   UNL d   1      53.380  32.836  54.380  0.00  0.00     0.082 C 
BRANCH  23  24
ATOM     24  C   UNL d   1      54.080  33.252  54.263  0.00  0.00     0.019 C 
BRANCH  24  25
ATOM     25  C   UNL d   1      54.349  33.769  54.800  0.00  0.00     0.002 C 
ATOM     26  C   UNL d   1      55.152  33.782  54.989  0.00  0.00     0.000 C 
ATOM     27  C   UNL d   1      53.858  34.278  55.162  0.00  0.00     0.000 C 
ENDBRANCH  24  25
ENDBRANCH  23  24
ENDBRANCH   8  23
TORSDOF 7
ENDMDL
MODEL 3
REMARK VINA RESULT:      -7.4      1.022      2.687
REMARK  7 active torsions:
REMARK  status: ('A' for Active; 'I' for Inactive)
REMARK    1  A    between atoms: S_10  and  C_5 
REMARK    2  A    between atoms: C_11  and  N_8 
REMARK    3  A    between atoms: C_15  and  S_10 
REMARK    4  A    between atoms: C_19  and  C_11 
REMARK    5  A    between atoms: C_14  and  C_15 
REMARK    6  A    between atoms: C_17  and  C_14 
REMARK    7  A    between atoms: C_20  and  C_19 
ROOT
ATOM      1  C   UNL d   1      53.635  33.775  54.478  0.00  0.00     0.174 A 
ATOM      2  C   UNL d   1      53.095  34.227  54.048  0.00  0.00     0.159 A 
ATOM      3  N   UNL d   1      53.626  33.011  54.184  0.00  0.00    -0.203 NA
ATOM      4  N   UNL d   1      54.077  34.128  55.099  0.00  0.00    -0.239 N 
ATOM      5  C   UNL d   1      53.066  33.025  53.567  0.00  0.00     0.181 A 
ATOM      6  C   UNL d   1      53.983  34.897  55.281  0.00  0.00     0.358 A 
ATOM      7  N   UNL d   1      53.422  35.367  54.834  0.00  0.00    -0.152 NA
ATOM      8  N   UNL d   1      52.765  33.731  53.497  0.00  0.00    -0.279 N 
ATOM      9  C   UNL d   1      52.987  35.040  54.230  0.00  0.00     0.302 A 
ATOM     10  O   UNL d   1      54.431  35.225  55.900  0.00  0.00    -0.244 OA
ATOM     11  O   UNL d   1      52.454  35.514  53.815  0.00  0.00    -0.263 OA
ATOM     12  C   UNL d   1      54.623  33.698  55.545  0.00  0.00     0.105 C 
ENDROOT
BRANCH   5  13
ATOM     13  S   UNL d   1      52.859  32.367  53.094  0.00  0.00    -0.046 SA
BRANCH  13  14
ATOM     14  C   UNL d   1      53.265  31.656  53.165  0.00  0.00     0.080 C 
BRANCH  14  15
ATOM     15  C   UNL d   1      52.954  30.962  52.833  0.00  0.00     0.202 C 
ATOM     16  O   UNL d   1      52.633  30.992  52.090  0.00  0.00    -0.286 OA
BRANCH  15  17
ATOM     17  C   UNL d   1      52.976  30.256  53.260  0.00  0.00     0.040 A 
ATOM     18  C   UNL d   1      52.317  29.784  53.318  0.00  0.00     0.003 A 
ATOM     19  C   UNL d   1      52.339  29.079  53.745  0.00  0.00     0.000 A 
ATOM     20  C   UNL d   1      53.043  28.838  54.127  0.00  0.00     0.000 A 
ATOM     21  C   UNL d   1      53.701  29.326  54.059  0.00  0.00     0.000 A 
ATOM     22  C   UNL d   1      53.675  30.027  53.633  0.00  0.00     0.003 A 
ENDBRANCH  15  17
ENDBRANCH  14  15
ENDBRANCH  13  14
ENDBRANCH   5  13
BRANCH   8  23
ATOM     23  C   UNL d   1      52.175  33.947  52.923  0.00  0.00     0.082 C 
BRANCH  23  24
ATOM     24  C   UNL d   1      51.374  33.803  53.051  0.00  0.00     0.019 C 
BRANCH  24  25
ATOM     25  C   UNL d   1      50.824  34.036  52.530  0.00  0.00     0.002 C 
ATOM     26  C   UNL d   1      50.056  34.190  52.789  0.00  0.00     0.000 C 
ATOM     27  C   UNL d   1      50.998  34.124  51.760  0.00  0.00     0.000 C 
ENDBRANCH  24  25
ENDBRANCH  23  24
ENDBRANCH   8  23
TORSDOF 7
ENDMDL
MODEL 4
REMARK VINA RESULT:      -7.2      1.447      4.498
REMARK  7 active torsions:
REMARK  status: ('A' for Active; 'I' for Inactive)
REMARK    1  A    between atoms: S_10  and  C_5 
REMARK    2  A    between atoms: C_11  and  N_8 
REMARK    3  A    between atoms: C_15  and  S_10 
REMARK    4  A    between atoms: C_19  and  C_11 
REMARK    5  A    between atoms: C_14  and  C_15 
REMARK    6  A    between atoms: C_17  and  C_14 
REMARK    7  A    between atoms: C_20  and  C_19 
ROOT
ATOM      1  C   UNL d   1      53.404  33.788  54.301  0.00  0.00     0.174 A 
ATOM      2  C   UNL d   1      53.630  33.039  54.038  0.00  0.00     0.159 A 
ATOM      3  N   UNL d   1      52.713  34.000  53.916  0.00  0.00    -0.203 NA
ATOM      4  N   UNL d   1      53.871  34.191  54.872  0.00  0.00    -0.239 N 
ATOM      5  C   UNL d   1      52.537  33.355  53.419  0.00  0.00     0.181 A 
ATOM      6  C   UNL d   1      54.532  33.859  55.166  0.00  0.00     0.358 A 
ATOM      7  N   UNL d   1      54.766  33.082  54.893  0.00  0.00    -0.152 NA
ATOM      8  N   UNL d   1      53.073  32.806  53.497  0.00  0.00    -0.279 N 
ATOM      9  C   UNL d   1      54.326  32.679  54.342  0.00  0.00     0.302 A 
ATOM     10  O   UNL d   1      54.977  34.277  55.730  0.00  0.00    -0.244 OA
ATOM     11  O   UNL d   1      54.573  31.931  54.095  0.00  0.00    -0.263 OA
ATOM     12  C   UNL d   1      53.667  34.941  55.151  0.00  0.00     0.105 C 
ENDROOT
BRANCH   5  13
ATOM     13  S   UNL d   1      51.876  33.310  52.909  0.00  0.00    -0.046 SA
BRANCH  13  14
ATOM     14  C   UNL d   1      51.312  33.908  52.902  0.00  0.00     0.080 C 
BRANCH  14  15
ATOM     15  C   UNL d   1      50.890  34.076  52.207  0.00  0.00     0.202 C 
ATOM     16  O   UNL d   1      51.226  33.899  51.491  0.00  0.00    -0.286 OA
BRANCH  15  17
ATOM     17  C   UNL d   1      50.141  34.419  52.253  0.00  0.00     0.040 A 
ATOM     18  C   UNL d   1      49.897  34.798  52.930  0.00  0.00     0.003 A 
ATOM     19  C   UNL d   1      49.149  35.140  52.976  0.00  0.00     0.000 A 
ATOM     20  C   UNL d   1      48.625  35.101  52.324  0.00  0.00     0.000 A 
ATOM     21  C   UNL d   1      48.886  34.714  51.648  0.00  0.00     0.000 A 
ATOM     22  C   UNL d   1      49.632  34.375  51.605  0.00  0.00     0.003 A 
ENDBRANCH  15  17
ENDBRANCH  14  15
ENDBRANCH  13  14
ENDBRANCH   5  13
BRANCH   8  23
ATOM     23  C   UNL d   1      53.069  32.068  53.073  0.00  0.00     0.082 C 
BRANCH  23  24
ATOM     24  C   UNL d   1      52.604  31.432  53.314  0.00  0.00     0.019 C 
BRANCH  24  25
ATOM     25  C   UNL d   1      52.670  30.719  52.976  0.00  0.00     0.002 C 
ATOM     26  C   UNL d   1      52.378  30.053  53.365  0.00  0.00     0.000 C 
ATOM     27  C   UNL d   1      53.014  30.632  52.265  0.00  0.00     0.000 C 
ENDBRANCH  24  25
ENDBRANCH  23  24
ENDBRANCH   8  23
TORSDOF 7
ENDMDL
MODEL 5
REMARK VINA RESULT:      -5.8      1.289      1.886
REMARK  7 active torsions:
REMARK  status: ('A' for Active; 'I' for Inactive)
REMARK    1  A    between atoms: S_10  and  C_5 
REMARK    2  A    between atoms: C_11  and  N_8 
REMARK    3  A    between atoms: C_15  and  S_10 
REMARK    4  A    between atoms: C_19  and  C_11 
REMARK    5  A    between atoms: C_14  and  C_15 
REMARK    6  A    between atoms: C_17  and  C_14 
REMARK    7  A    between atoms: C_20  and  C_19 
ROOT
ATOM      1  C   UNL d   1      50.580  34.029  52.386  0.00  0.00     0.174 A 
ATOM      2  C   UNL d   1      50.803  34.467  53.049  0.00  0.00     0.159 A 
ATOM      3  N   UNL d   1      51.157  33.466  52.241  0.00  0.00    -0.203 NA
ATOM      4  N   UNL d   1      49.860  34.205  51.989  0.00  0.00    -0.239 N 
ATOM      5  C   UNL d   1      51.726  33.584  52.838  0.00  0.00     0.181 A 
ATOM      6  C   UNL d   1      49.387  34.792  52.244  0.00  0.00     0.358 A 
ATOM      7  N   UNL d   1      49.618  35.247  52.933  0.00  0.00    -0.152 NA
ATOM      8  N   UNL d   1      51.513  34.164  53.298  0.00  0.00    -0.279 N 
ATOM      9  C   UNL d   1      50.311  35.089  53.328  0.00  0.00     0.302 A 
ATOM     10  O   UNL d   1      48.680  34.948  51.835  0.00  0.00    -0.244 OA
ATOM     11  O   UNL d   1      50.511  35.541  53.988  0.00  0.00    -0.263 OA
ATOM     12  C   UNL d   1      49.615  33.783  51.324  0.00  0.00     0.105 C 
ENDROOT
BRANCH   5  13
ATOM     13  S   UNL d   1      52.428  33.138  52.924  0.00  0.00    -0.046 SA
BRANCH  13  14
ATOM     14  C   UNL d   1      52.411  32.318  52.872  0.00  0.00     0.080 C 
BRANCH  14  15
ATOM     15  C   UNL d   1      53.119  31.883  52.892  0.00  0.00     0.202 C 
ATOM     16  O   UNL d   1      53.799  32.228  52.620  0.00  0.00    -0.286 OA
BRANCH  15  17
ATOM     17  C   UNL d   1      53.119  31.112  53.185  0.00  0.00     0.040 A 
ATOM     18  C   UNL d   1      53.527  30.924  53.863  0.00  0.00     0.003 A 
ATOM     19  C   UNL d   1      53.528  30.154  54.155  0.00  0.00     0.000 A 
ATOM     20  C   UNL d   1      53.106  29.550  53.758  0.00  0.00     0.000 A 
ATOM     21  C   UNL d   1      52.699  29.756  53.074  0.00  0.00     0.000 A 
ATOM     22  C   UNL d   1      52.700  30.524  52.786  0.00  0.00     0.003 A 
ENDBRANCH  15  17
ENDBRANCH  14  15
ENDBRANCH  13  14
ENDBRANCH   5  13
BRANCH   8  23
ATOM     23  C   UNL d   1      51.963  34.437  53.967  0.00  0.00     0.082 C 
BRANCH  23  24
ATOM     24  C   UNL d   1      52.645  34.889  53.874  0.00  0.00     0.019 C 
BRANCH  24  25
ATOM     25  C   UNL d   1      53.057  35.150  54.498  0.00  0.00     0.002 C 
ATOM     26  C   UNL d   1      53.360  35.917  54.496  0.00  0.00     0.000 C 
ATOM     27  C   UNL d   1      53.184  34.686  55.130  0.00  0.00     0.000 C 
ENDBRANCH  24  25
ENDBRANCH  23  24
ENDBRANCH   8  23
TORSDOF 7
ENDMDL
