MODEL 1
REMARK VINA RESULT:      92.8      0.000      0.000
REMARK  4 active torsions:
REMARK  status: ('A' for Active; 'I' for Inactive)
REMARK    1  A    between atoms: N_8  and  S_1 
REMARK    2  A    between atoms: C_12  and  S_1 
REMARK    3  A    between atoms: C_5  and  C_9 
REMARK    4  A    between atoms: C_15  and  N_8 
ROOT
ATOM      1  C   UNL d   1      61.327  47.770  50.216  0.00  0.00     0.021 A 
ATOM      2  C   UNL d   1      60.852  49.107  50.070  0.00  0.00     0.094 A 
ATOM      3  C   UNL d   1      60.733  48.330  50.316  0.00  0.00     0.021 A 
ATOM      4  C   UNL d   1      62.050  47.974  49.869  0.00  0.00     0.002 A 
ATOM      5  C   UNL d   1      62.173  48.757  49.619  0.00  0.00     0.002 A 
ATOM      6  C   UNL d   1      61.576  49.330  49.717  0.00  0.00     0.020 A 
ENDROOT
BRANCH   2   7
ATOM      7  N   UNL d   1      60.258  49.665  50.170  0.00  0.00    -0.158 NA
BRANCH   7   8
ATOM      8  S   UNL d   1      59.824  49.679  50.870  0.00  0.00     0.285 S 
ATOM      9  O   UNL d   1      60.387  49.699  51.473  0.00  0.00    -0.198 OA
ATOM     10  O   UNL d   1      59.586  49.696  51.663  0.00  0.00    -0.198 OA
BRANCH   8  11
ATOM     11  C   UNL d   1      58.999  49.671  50.839  0.00  0.00     0.105 A 
ATOM     12  C   UNL d   1      58.614  49.698  50.114  0.00  0.00     0.013 A 
ATOM     13  C   UNL d   1      57.793  49.690  50.084  0.00  0.00     0.001 A 
ATOM     14  C   UNL d   1      57.352  49.654  50.789  0.00  0.00     0.000 A 
ATOM     15  C   UNL d   1      57.751  49.626  51.515  0.00  0.00     0.001 A 
ATOM     16  C   UNL d   1      58.566  49.634  51.539  0.00  0.00     0.013 A 
ENDBRANCH   8  11
ENDBRANCH   7   8
ENDBRANCH   2   7
BRANCH   1  17
ATOM     17  C   UNL d   1      61.208  46.990  50.463  0.00  0.00     0.118 A 
ATOM     18  N   UNL d   1      60.564  46.699  50.890  0.00  0.00    -0.059 NA
ATOM     19  C   UNL d   1      60.679  45.896  51.012  0.00  0.00     0.735 A 
ATOM     20  N   UNL d   1      60.215  45.328  51.403  0.00  0.00    -0.059 NA
ATOM     21  N   UNL d   1      61.393  45.681  50.663  0.00  0.00    -0.136 N 
ATOM     22  C   UNL d   1      60.473  44.547  51.440  0.00  0.00     0.119 A 
ATOM     23  C   UNL d   1      61.186  44.328  51.092  0.00  0.00     0.041 A 
ATOM     24  C   UNL d   1      61.645  44.889  50.705  0.00  0.00     0.100 A 
ATOM     25  C   UNL d   1      61.722  46.355  50.322  0.00  0.00     0.118 A 
ENDBRANCH   1  17
TORSDOF 4
ENDMDL
MODEL 2
REMARK VINA RESULT:      94.3      1.747      2.634
REMARK  4 active torsions:
REMARK  status: ('A' for Active; 'I' for Inactive)
REMARK    1  A    between atoms: N_8  and  S_1 
REMARK    2  A    between atoms: C_12  and  S_1 
REMARK    3  A    between atoms: C_5  and  C_9 
REMARK    4  A    between atoms: C_15  and  N_8 
ROOT
ATOM      1  C   UNL d   1      61.773  45.236  50.089  0.00  0.00     0.021 A 
ATOM      2  C   UNL d   1      61.395  46.593  50.307  0.00  0.00     0.094 A 
ATOM      3  C   UNL d   1      61.569  45.844  50.603  0.00  0.00     0.021 A 
ATOM      4  C   UNL d   1      61.809  45.361  49.273  0.00  0.00     0.002 A 
ATOM      5  C   UNL d   1      61.634  46.116  48.971  0.00  0.00     0.002 A 
ATOM      6  C   UNL d   1      61.427  46.738  49.484  0.00  0.00     0.020 A 
ENDROOT
BRANCH   2   7
ATOM      7  N   UNL d   1      61.191  47.201  50.821  0.00  0.00    -0.158 NA
BRANCH   7   8
ATOM      8  S   UNL d   1      61.197  47.980  50.555  0.00  0.00     0.285 S 
ATOM      9  O   UNL d   1      61.667  47.973  49.876  0.00  0.00    -0.198 OA
ATOM     10  O   UNL d   1      61.330  48.679  50.131  0.00  0.00    -0.198 OA
BRANCH   8  11
ATOM     11  C   UNL d   1      60.778  48.557  50.972  0.00  0.00     0.105 A 
ATOM     12  C   UNL d   1      60.038  48.798  50.710  0.00  0.00     0.013 A 
ATOM     13  C   UNL d   1      59.623  49.372  51.127  0.00  0.00     0.001 A 
ATOM     14  C   UNL d   1      59.952  49.707  51.813  0.00  0.00     0.000 A 
ATOM     15  C   UNL d   1      60.700  49.455  52.068  0.00  0.00     0.001 A 
ATOM     16  C   UNL d   1      61.108  48.886  51.651  0.00  0.00     0.013 A 
ENDBRANCH   8  11
ENDBRANCH   7   8
ENDBRANCH   2   7
BRANCH   1  17
ATOM     17  C   UNL d   1      61.947  44.483  50.386  0.00  0.00     0.118 A 
ATOM     18  N   UNL d   1      61.567  44.097  51.009  0.00  0.00    -0.059 NA
ATOM     19  C   UNL d   1      61.923  43.364  51.112  0.00  0.00     0.735 A 
ATOM     20  N   UNL d   1      61.770  42.751  51.650  0.00  0.00    -0.059 NA
ATOM     21  N   UNL d   1      62.524  43.289  50.555  0.00  0.00    -0.136 N 
ATOM     22  C   UNL d   1      62.224  42.064  51.625  0.00  0.00     0.119 A 
ATOM     23  C   UNL d   1      62.826  41.985  51.070  0.00  0.00     0.041 A 
ATOM     24  C   UNL d   1      62.979  42.591  50.537  0.00  0.00     0.100 A 
ATOM     25  C   UNL d   1      62.542  43.979  50.105  0.00  0.00     0.118 A 
ENDBRANCH   1  17
TORSDOF 4
ENDMDL
