MODEL 1
REMARK VINA RESULT:      -0.5      0.000      0.000
REMARK  2 active torsions:
REMARK  status: ('A' for Active; 'I' for Inactive)
REMARK    1  A    between atoms: N_9  and  C_3 
REMARK    2  A    between atoms: C_11  and  C_4 
ROOT
ATOM      1  N   UNL d   1      30.459  16.845 -24.001  0.00  0.00    -0.196 N 
ATOM      2  C   UNL d   1      29.623  16.694 -23.946  0.00  0.00     0.167 A 
ATOM      3  C   UNL d   1      30.709  17.497 -24.405  0.00  0.00     0.152 A 
ATOM      4  C   UNL d   1      29.353  16.043 -23.543  0.00  0.00     0.057 A 
ATOM      5  N   UNL d   1      30.708  15.671 -23.237  0.00  0.00    -0.161 NA
ATOM      6  N   UNL d   1      29.093  17.205 -24.299  0.00  0.00    -0.227 NA
ATOM      7  C   UNL d   1      30.183  18.019 -24.765  0.00  0.00     0.057 A 
ATOM      8  C   UNL d   1      29.898  15.524 -23.184  0.00  0.00     0.124 A 
ATOM      9  C   UNL d   1      29.360  17.870 -24.712  0.00  0.00     0.086 A 
ATOM     10  C   UNL d   1      28.803  18.409 -25.084  0.00  0.00     0.021 C 
ENDROOT
BRANCH   4  11
ATOM     11  C   UNL d   1      28.543  15.897 -23.490  0.00  0.00     0.005 A 
ATOM     12  C   UNL d   1      28.142  15.597 -24.133  0.00  0.00     0.001 A 
ATOM     13  C   UNL d   1      27.345  15.453 -24.081  0.00  0.00     0.011 A 
ATOM     14  C   UNL d   1      26.936  15.606 -23.385  0.00  0.00     0.058 A 
ATOM     15  C   UNL d   1      27.337  15.907 -22.742  0.00  0.00     0.011 A 
ATOM     16 CL   UNL d   1      26.087  15.453 -23.330  0.00  0.00    -0.082 Cl
ATOM     17  C   UNL d   1      28.147  16.053 -22.795  0.00  0.00     0.001 A 
ENDBRANCH   4  11
BRANCH   3  18
ATOM     18  N   UNL d   1      31.553  17.653 -24.462  0.00  0.00    -0.289 N 
ATOM     19  C   UNL d   1      32.052  17.163 -24.958  0.00  0.00     0.082 A 
ATOM     20  C   UNL d   1      32.888  17.314 -25.018  0.00  0.00     0.019 A 
ATOM     21  C   UNL d   1      33.241  17.966 -24.577  0.00  0.00     0.003 A 
ATOM     22  C   UNL d   1      32.734  18.455 -24.081  0.00  0.00     0.019 A 
ATOM     23  C   UNL d   1      31.899  18.303 -24.022  0.00  0.00     0.082 A 
ENDBRANCH   3  18
TORSDOF 2
ENDMDL
MODEL 2
REMARK VINA RESULT:       0.9      5.382      7.054
REMARK  2 active torsions:
REMARK  status: ('A' for Active; 'I' for Inactive)
REMARK    1  A    between atoms: N_9  and  C_3 
REMARK    2  A    between atoms: C_11  and  C_4 
ROOT
ATOM      1  N   UNL d   1      32.759  21.775 -20.381  0.00  0.00    -0.196 N 
ATOM      2  C   UNL d   1      32.763  21.408 -21.149  0.00  0.00     0.167 A 
ATOM      3  C   UNL d   1      32.521  22.544 -20.321  0.00  0.00     0.152 A 
ATOM      4  C   UNL d   1      32.999  20.636 -21.229  0.00  0.00     0.057 A 
ATOM      5  N   UNL d   1      33.234  20.561 -19.812  0.00  0.00    -0.161 NA
ATOM      6  N   UNL d   1      32.528  21.833 -21.805  0.00  0.00    -0.227 NA
ATOM      7  C   UNL d   1      32.283  22.983 -20.976  0.00  0.00     0.057 A 
ATOM      8  C   UNL d   1      33.238  20.204 -20.556  0.00  0.00     0.124 A 
ATOM      9  C   UNL d   1      32.286  22.621 -21.732  0.00  0.00     0.086 A 
ATOM     10  C   UNL d   1      32.039  23.070 -22.423  0.00  0.00     0.021 C 
ENDROOT
BRANCH   4  11
ATOM     11  C   UNL d   1      33.003  20.279 -21.973  0.00  0.00     0.005 A 
ATOM     12  C   UNL d   1      32.772  19.502 -22.051  0.00  0.00     0.001 A 
ATOM     13  C   UNL d   1      32.776  19.151 -22.783  0.00  0.00     0.011 A 
ATOM     14  C   UNL d   1      33.010  19.573 -23.449  0.00  0.00     0.058 A 
ATOM     15  C   UNL d   1      33.240  20.351 -23.370  0.00  0.00     0.011 A 
ATOM     16 CL   UNL d   1      33.014  19.199 -24.229  0.00  0.00    -0.082 Cl
ATOM     17  C   UNL d   1      33.237  20.707 -22.626  0.00  0.00     0.001 A 
ENDBRANCH   4  11
BRANCH   3  18
ATOM     18  N   UNL d   1      32.516  22.919 -19.547  0.00  0.00    -0.289 N 
ATOM     19  C   UNL d   1      31.790  22.966 -19.093  0.00  0.00     0.082 A 
ATOM     20  C   UNL d   1      31.781  23.337 -18.326  0.00  0.00     0.019 A 
ATOM     21  C   UNL d   1      32.507  23.669 -17.999  0.00  0.00     0.003 A 
ATOM     22  C   UNL d   1      33.232  23.618 -18.460  0.00  0.00     0.019 A 
ATOM     23  C   UNL d   1      33.241  23.248 -19.226  0.00  0.00     0.082 A 
ENDBRANCH   3  18
TORSDOF 2
ENDMDL
MODEL 3
REMARK VINA RESULT:       1.5      3.549      5.395
REMARK  2 active torsions:
REMARK  status: ('A' for Active; 'I' for Inactive)
REMARK    1  A    between atoms: N_9  and  C_3 
REMARK    2  A    between atoms: C_11  and  C_4 
ROOT
ATOM      1  N   UNL d   1      32.568  20.747 -22.779  0.00  0.00    -0.196 N 
ATOM      2  C   UNL d   1      32.612  19.898 -22.807  0.00  0.00     0.167 A 
ATOM      3  C   UNL d   1      32.744  21.122 -22.085  0.00  0.00     0.152 A 
ATOM      4  C   UNL d   1      32.440  19.504 -23.495  0.00  0.00     0.057 A 
ATOM      5  N   UNL d   1      32.177  20.760 -24.147  0.00  0.00    -0.161 NA
ATOM      6  N   UNL d   1      32.829  19.479 -22.140  0.00  0.00    -0.227 NA
ATOM      7  C   UNL d   1      32.963  20.709 -21.407  0.00  0.00     0.057 A 
ATOM      8  C   UNL d   1      32.219  19.937 -24.174  0.00  0.00     0.124 A 
ATOM      9  C   UNL d   1      33.006  19.872 -21.435  0.00  0.00     0.086 A 
ATOM     10  C   UNL d   1      33.234  19.432 -20.732  0.00  0.00     0.021 C 
ENDROOT
BRANCH   4  11
ATOM     11  C   UNL d   1      32.482  18.681 -23.523  0.00  0.00     0.005 A 
ATOM     12  C   UNL d   1      31.808  18.237 -23.414  0.00  0.00     0.001 A 
ATOM     13  C   UNL d   1      31.850  17.426 -23.441  0.00  0.00     0.011 A 
ATOM     14  C   UNL d   1      32.566  17.048 -23.578  0.00  0.00     0.058 A 
ATOM     15  C   UNL d   1      33.241  17.493 -23.687  0.00  0.00     0.011 A 
ATOM     16 CL   UNL d   1      32.611  16.185 -23.607  0.00  0.00    -0.082 Cl
ATOM     17  C   UNL d   1      33.198  18.317 -23.659  0.00  0.00     0.001 A 
ENDBRANCH   4  11
BRANCH   3  18
ATOM     18  N   UNL d   1      32.701  21.980 -22.053  0.00  0.00    -0.289 N 
ATOM     19  C   UNL d   1      33.241  22.459 -22.515  0.00  0.00     0.082 A 
ATOM     20  C   UNL d   1      33.201  23.309 -22.486  0.00  0.00     0.019 A 
ATOM     21  C   UNL d   1      32.613  23.697 -21.987  0.00  0.00     0.003 A 
ATOM     22  C   UNL d   1      32.074  23.210 -21.525  0.00  0.00     0.019 A 
ATOM     23  C   UNL d   1      32.114  22.360 -21.555  0.00  0.00     0.082 A 
ENDBRANCH   3  18
TORSDOF 2
ENDMDL
MODEL 4
REMARK VINA RESULT:       1.7      4.768      6.538
REMARK  2 active torsions:
REMARK  status: ('A' for Active; 'I' for Inactive)
REMARK    1  A    between atoms: N_9  and  C_3 
REMARK    2  A    between atoms: C_11  and  C_4 
ROOT
ATOM      1  N   UNL d   1      32.805  21.465 -21.138  0.00  0.00    -0.196 N 
ATOM      2  C   UNL d   1      32.823  21.070 -21.891  0.00  0.00     0.167 A 
ATOM      3  C   UNL d   1      32.719  22.268 -21.123  0.00  0.00     0.152 A 
ATOM      4  C   UNL d   1      32.909  20.264 -21.926  0.00  0.00     0.057 A 
ATOM      5  N   UNL d   1      32.961  20.208 -20.489  0.00  0.00    -0.161 NA
ATOM      6  N   UNL d   1      32.754  21.503 -22.580  0.00  0.00    -0.227 NA
ATOM      7  C   UNL d   1      32.649  22.715 -21.812  0.00  0.00     0.057 A 
ATOM      8  C   UNL d   1      32.978  19.825 -21.220  0.00  0.00     0.124 A 
ATOM      9  C   UNL d   1      32.667  22.325 -22.554  0.00  0.00     0.086 A 
ATOM     10  C   UNL d   1      32.595  22.782 -23.279  0.00  0.00     0.021 C 
ENDROOT
BRANCH   4  11
ATOM     11  C   UNL d   1      32.926  19.881 -22.656  0.00  0.00     0.005 A 
ATOM     12  C   UNL d   1      32.650  19.117 -22.720  0.00  0.00     0.001 A 
ATOM     13  C   UNL d   1      32.668  18.739 -23.439  0.00  0.00     0.011 A 
ATOM     14  C   UNL d   1      32.962  19.121 -24.105  0.00  0.00     0.058 A 
ATOM     15  C   UNL d   1      33.238  19.885 -24.040  0.00  0.00     0.011 A 
ATOM     16 CL   UNL d   1      32.980  18.719 -24.870  0.00  0.00    -0.082 Cl
ATOM     17  C   UNL d   1      33.220  20.268 -23.310  0.00  0.00     0.001 A 
ENDBRANCH   4  11
BRANCH   3  18
ATOM     18  N   UNL d   1      32.700  22.671 -20.363  0.00  0.00    -0.289 N 
ATOM     19  C   UNL d   1      33.241  22.443 -19.738  0.00  0.00     0.082 A 
ATOM     20  C   UNL d   1      33.225  22.839 -18.985  0.00  0.00     0.019 A 
ATOM     21  C   UNL d   1      32.662  23.477 -18.845  0.00  0.00     0.003 A 
ATOM     22  C   UNL d   1      32.122  23.701 -19.477  0.00  0.00     0.019 A 
ATOM     23  C   UNL d   1      32.137  23.305 -20.230  0.00  0.00     0.082 A 
ENDBRANCH   3  18
TORSDOF 2
ENDMDL
MODEL 5
REMARK VINA RESULT:       2.3      3.588      5.048
REMARK  2 active torsions:
REMARK  status: ('A' for Active; 'I' for Inactive)
REMARK    1  A    between atoms: N_9  and  C_3 
REMARK    2  A    between atoms: C_11  and  C_4 
ROOT
ATOM      1  N   UNL d   1      32.906  20.107 -22.512  0.00  0.00    -0.196 N 
ATOM      2  C   UNL d   1      32.853  19.482 -23.087  0.00  0.00     0.167 A 
ATOM      3  C   UNL d   1      33.065  20.856 -22.767  0.00  0.00     0.152 A 
ATOM      4  C   UNL d   1      32.694  18.723 -22.849  0.00  0.00     0.057 A 
ATOM      5  N   UNL d   1      32.634  19.164 -21.481  0.00  0.00    -0.161 NA
ATOM      6  N   UNL d   1      32.963  19.647 -23.879  0.00  0.00    -0.227 NA
ATOM      7  C   UNL d   1      33.177  21.034 -23.564  0.00  0.00     0.057 A 
ATOM      8  C   UNL d   1      32.583  18.558 -22.039  0.00  0.00     0.124 A 
ATOM      9  C   UNL d   1      33.125  20.419 -24.130  0.00  0.00     0.086 A 
ATOM     10  C   UNL d   1      33.241  20.594 -24.964  0.00  0.00     0.021 C 
ENDROOT
BRANCH   4  11
ATOM     11  C   UNL d   1      32.643  18.117 -23.407  0.00  0.00     0.005 A 
ATOM     12  C   UNL d   1      32.036  18.116 -23.950  0.00  0.00     0.001 A 
ATOM     13  C   UNL d   1      31.986  17.520 -24.499  0.00  0.00     0.011 A 
ATOM     14  C   UNL d   1      32.542  16.915 -24.512  0.00  0.00     0.058 A 
ATOM     15  C   UNL d   1      33.149  16.916 -23.968  0.00  0.00     0.011 A 
ATOM     16 CL   UNL d   1      32.488  16.280 -25.097  0.00  0.00    -0.082 Cl
ATOM     17  C   UNL d   1      33.200  17.522 -23.411  0.00  0.00     0.001 A 
ENDBRANCH   4  11
BRANCH   3  18
ATOM     18  N   UNL d   1      33.118  21.491 -22.189  0.00  0.00    -0.289 N 
ATOM     19  C   UNL d   1      33.173  22.308 -22.445  0.00  0.00     0.082 A 
ATOM     20  C   UNL d   1      33.226  22.938 -21.876  0.00  0.00     0.019 A 
ATOM     21  C   UNL d   1      33.226  22.759 -21.031  0.00  0.00     0.003 A 
ATOM     22  C   UNL d   1      33.171  21.937 -20.781  0.00  0.00     0.019 A 
ATOM     23  C   UNL d   1      33.118  21.306 -21.351  0.00  0.00     0.082 A 
ENDBRANCH   3  18
TORSDOF 2
ENDMDL
