MODEL 1
REMARK VINA RESULT:      71.2      0.000      0.000
REMARK  4 active torsions:
REMARK  status: ('A' for Active; 'I' for Inactive)
REMARK    1  A    between atoms: C_6  and  C_1 
REMARK    2  A    between atoms: C_7  and  C_4 
REMARK       I    between atoms: N_9  and  C_6 
REMARK    3  A    between atoms: C_23  and  N_9 
REMARK    4  A    between atoms: C_11  and  C_23 
ROOT
ATOM      1  C   UNL d   1      60.841  48.131  50.372  0.00  0.00     0.168 A 
ATOM      2  N   UNL d   1      61.543  48.363  50.031  0.00  0.00    -0.121 NA
ATOM      3  C   UNL d   1      60.793  47.304  50.314  0.00  0.00     0.053 A 
ATOM      4  C   UNL d   1      61.470  47.042  49.937  0.00  0.00     0.127 A 
ATOM      5  O   UNL d   1      61.931  47.701  49.764  0.00  0.00    -0.211 OA
ENDROOT
BRANCH   1   6
ATOM      6  C   UNL d   1      59.699  49.051  51.056  0.00  0.00     0.299 C 
ATOM      7  N   UNL d   1      58.939  49.121  50.664  0.00  0.00    -0.203 NA
ATOM      8  O   UNL d   1      59.814  49.453  51.760  0.00  0.00    -0.263 OA
BRANCH   7   9
ATOM      9  C   UNL d   1      58.318  49.606  51.013  0.00  0.00     0.127 C 
BRANCH   9  10
ATOM     10  C   UNL d   1      57.496  49.497  50.777  0.00  0.00     0.119 A 
ATOM     11  O   UNL d   1      56.868  49.176  51.259  0.00  0.00    -0.304 OA
ATOM     12  C   UNL d   1      56.155  49.175  50.795  0.00  0.00     0.123 A 
ATOM     13  C   UNL d   1      56.341  49.503  50.009  0.00  0.00     0.029 A 
ATOM     14  C   UNL d   1      57.181  49.702  50.004  0.00  0.00     0.028 A 
ENDBRANCH   9  10
ENDBRANCH   7   9
ENDBRANCH   1   6
BRANCH   4  15
ATOM     15  C   UNL d   1      61.679  46.286  49.752  0.00  0.00     0.027 A 
ATOM     16  C   UNL d   1      61.135  45.780  49.406  0.00  0.00     0.028 A 
ATOM     17  C   UNL d   1      61.352  45.024  49.224  0.00  0.00     0.119 A 
ATOM     18  O   UNL d   1      60.937  44.409  48.884  0.00  0.00    -0.300 OA
ATOM     19  C   UNL d   1      62.102  44.748  49.375  0.00  0.00     0.119 A 
ATOM     20  C   UNL d   1      61.427  43.766  48.828  0.00  0.00     0.304 A 
ATOM     21  O   UNL d   1      62.151  43.973  49.132  0.00  0.00    -0.300 OA
ATOM     22  C   UNL d   1      62.656  45.251  49.722  0.00  0.00     0.026 A 
ATOM     23  C   UNL d   1      62.444  46.004  49.905  0.00  0.00     0.004 A 
ENDBRANCH   4  15
TORSDOF 4
ENDMDL
