MODEL 1
REMARK VINA RESULT:      37.3      0.000      0.000
REMARK  6 active torsions:
REMARK  status: ('A' for Active; 'I' for Inactive)
REMARK    1  A    between atoms: C_6  and  C_1 
REMARK    2  A    between atoms: C_10  and  N_3 
REMARK    3  A    between atoms: O_7  and  C_6 
REMARK    4  A    between atoms: C_8  and  O_7 
REMARK    5  A    between atoms: O_11  and  C_9 
REMARK    6  A    between atoms: C_17  and  C_10 
ROOT
ATOM      1  C   UNL d   1     -55.921 -99.623 -44.515  0.00  0.00     0.173 A 
ATOM      2  N   UNL d   1     -56.259-100.239 -44.968  0.00  0.00    -0.225 NA
ATOM      3  N   UNL d   1     -55.289 -99.966 -44.107  0.00  0.00    -0.287 N 
ATOM      4  C   UNL d   1     -55.232-100.757 -44.293  0.00  0.00     0.083 A 
ATOM      5  C   UNL d   1     -55.845-100.930 -44.837  0.00  0.00     0.099 A 
ATOM      6  C   UNL d   1     -54.711-101.365 -44.051  0.00  0.00     0.019 A 
ATOM      7  C   UNL d   1     -55.909-101.702 -45.115  0.00  0.00     0.021 A 
ATOM      8  C   UNL d   1     -54.805-102.109 -44.345  0.00  0.00     0.002 A 
ATOM      9  C   UNL d   1     -55.418-102.282 -44.890  0.00  0.00     0.002 A 
ENDROOT
BRANCH   1  10
ATOM     10  C   UNL d   1     -56.319 -98.926 -44.631  0.00  0.00     0.160 C 
BRANCH  10  11
ATOM     11  O   UNL d   1     -57.017 -98.755 -44.196  0.00  0.00    -0.300 OA
BRANCH  11  12
ATOM     12  C   UNL d   1     -57.770 -98.756 -44.565  0.00  0.00     0.122 A 
ATOM     13  C   UNL d   1     -58.454 -98.757 -44.102  0.00  0.00     0.117 A 
ATOM     14  C   UNL d   1     -59.211 -98.758 -44.449  0.00  0.00     0.026 A 
ATOM     15  C   UNL d   1     -59.252 -98.758 -45.269  0.00  0.00     0.002 A 
ATOM     16  C   UNL d   1     -58.567 -98.756 -45.735  0.00  0.00     0.002 A 
ATOM     17  C   UNL d   1     -57.814 -98.756 -45.389  0.00  0.00     0.027 A 
BRANCH  13  18
ATOM     18  O   UNL d   1     -58.386 -98.757 -43.268  0.00  0.00    -0.326 OA
ATOM     19  C   UNL d   1     -59.062 -98.896 -42.779  0.00  0.00     0.181 C 
ENDBRANCH  13  18
ENDBRANCH  11  12
ENDBRANCH  10  11
ENDBRANCH   1  10
BRANCH   3  20
ATOM     20  C   UNL d   1     -54.897 -99.450 -43.639  0.00  0.00     0.082 C 
BRANCH  20  21
ATOM     21  C   UNL d   1     -54.876 -99.524 -42.817  0.00  0.00     0.019 C 
ATOM     22  C   UNL d   1     -54.782 -98.886 -42.307  0.00  0.00     0.002 C 
ENDBRANCH  20  21
ENDBRANCH   3  20
TORSDOF 6
ENDMDL
MODEL 2
REMARK VINA RESULT:      39.9      1.188      3.861
REMARK  6 active torsions:
REMARK  status: ('A' for Active; 'I' for Inactive)
REMARK    1  A    between atoms: C_6  and  C_1 
REMARK    2  A    between atoms: C_10  and  N_3 
REMARK    3  A    between atoms: O_7  and  C_6 
REMARK    4  A    between atoms: C_8  and  O_7 
REMARK    5  A    between atoms: O_11  and  C_9 
REMARK    6  A    between atoms: C_17  and  C_10 
ROOT
ATOM      1  C   UNL d   1     -57.309 -98.756 -44.861  0.00  0.00     0.173 A 
ATOM      2  N   UNL d   1     -57.408 -98.757 -45.691  0.00  0.00    -0.225 NA
ATOM      3  N   UNL d   1     -58.073 -98.756 -44.545  0.00  0.00    -0.287 N 
ATOM      4  C   UNL d   1     -58.624 -98.756 -45.145  0.00  0.00     0.083 A 
ATOM      5  C   UNL d   1     -58.204 -98.757 -45.869  0.00  0.00     0.099 A 
ATOM      6  C   UNL d   1     -59.461 -98.756 -45.152  0.00  0.00     0.019 A 
ATOM      7  C   UNL d   1     -58.639 -98.757 -46.568  0.00  0.00     0.021 A 
ATOM      8  C   UNL d   1     -59.852 -98.757 -45.857  0.00  0.00     0.002 A 
ATOM      9  C   UNL d   1     -59.431 -98.757 -46.582  0.00  0.00     0.002 A 
ENDROOT
BRANCH   1  10
ATOM     10  C   UNL d   1     -56.523 -98.756 -44.663  0.00  0.00     0.160 C 
BRANCH  10  11
ATOM     11  O   UNL d   1     -55.982 -99.258 -45.064  0.00  0.00    -0.300 OA
BRANCH  11  12
ATOM     12  C   UNL d   1     -55.638 -99.921 -44.681  0.00  0.00     0.122 A 
ATOM     13  C   UNL d   1     -55.082 -99.805 -44.081  0.00  0.00     0.117 A 
ATOM     14  C   UNL d   1     -54.730-100.451 -43.689  0.00  0.00     0.026 A 
ATOM     15  C   UNL d   1     -54.956-101.205 -43.921  0.00  0.00     0.002 A 
ATOM     16  C   UNL d   1     -55.514-101.322 -44.523  0.00  0.00     0.002 A 
ATOM     17  C   UNL d   1     -55.864-100.680 -44.912  0.00  0.00     0.027 A 
BRANCH  13  18
ATOM     18  O   UNL d   1     -54.868 -99.027 -43.863  0.00  0.00    -0.326 OA
ATOM     19  C   UNL d   1     -54.712 -98.832 -43.054  0.00  0.00     0.181 C 
ENDBRANCH  13  18
ENDBRANCH  11  12
ENDBRANCH  10  11
ENDBRANCH   1  10
BRANCH   3  20
ATOM     20  C   UNL d   1     -58.085 -98.755 -43.746  0.00  0.00     0.082 C 
BRANCH  20  21
ATOM     21  C   UNL d   1     -58.281 -99.425 -43.305  0.00  0.00     0.019 C 
ATOM     22  C   UNL d   1     -58.652 -99.391 -42.572  0.00  0.00     0.002 C 
ENDBRANCH  20  21
ENDBRANCH   3  20
TORSDOF 6
ENDMDL
