MODEL 1
REMARK VINA RESULT:      55.9      0.000      0.000
REMARK  4 active torsions:
REMARK  status: ('A' for Active; 'I' for Inactive)
REMARK    1  A    between atoms: C_6  and  N_1 
REMARK    2  A    between atoms: C_10  and  C_4 
REMARK    3  A    between atoms: C_8  and  C_6 
REMARK    4  A    between atoms: C_9  and  C_8 
ROOT
ATOM      1  N   UNL d   1      58.006  49.581  51.518  0.00  0.00    -0.305 N 
ATOM      2  C   UNL d   1      57.648  49.420  50.235  0.00  0.00     0.057 A 
ATOM      3  C   UNL d   1      57.359  49.565  51.005  0.00  0.00     0.067 A 
ATOM      4  C   UNL d   1      58.680  49.451  51.083  0.00  0.00     0.064 A 
ATOM      5  C   UNL d   1      58.468  49.350  50.286  0.00  0.00     0.022 A 
ATOM      6  C   UNL d   1      57.125  49.373  49.601  0.00  0.00     0.197 A 
ATOM      7  O   UNL d   1      57.414  49.229  48.831  0.00  0.00    -0.286 OA
ATOM      8  C   UNL d   1      56.551  49.661  51.130  0.00  0.00     0.018 A 
ATOM      9  C   UNL d   1      56.318  49.469  49.726  0.00  0.00     0.042 A 
ATOM     10  C   UNL d   1      56.034  49.611  50.483  0.00  0.00     0.005 A 
ENDROOT
BRANCH   4  11
ATOM     11  C   UNL d   1      59.516  49.380  51.136  0.00  0.00     0.016 A 
ATOM     12  C   UNL d   1      59.956  49.202  50.467  0.00  0.00     0.001 A 
ATOM     13  C   UNL d   1      60.773  49.132  50.517  0.00  0.00     0.000 A 
ATOM     14  C   UNL d   1      61.140  49.243  51.252  0.00  0.00     0.000 A 
ATOM     15  C   UNL d   1      60.706  49.421  51.925  0.00  0.00     0.000 A 
ATOM     16  C   UNL d   1      59.888  49.491  51.870  0.00  0.00     0.001 A 
ENDBRANCH   4  11
BRANCH   1  17
ATOM     17  C   UNL d   1      57.998  49.707  52.340  0.00  0.00     0.086 C 
BRANCH  17  18
ATOM     18  C   UNL d   1      57.674  49.121  52.833  0.00  0.00     0.089 C 
BRANCH  18  19
ATOM     19  C   UNL d   1      57.602  49.240  53.645  0.00  0.00     0.213 C 
ATOM     20  O   UNL d   1      56.859  49.252  53.995  0.00  0.00    -0.644 OA
ATOM     21  O   UNL d   1      58.257  49.350  54.128  0.00  0.00    -0.644 OA
ENDBRANCH  18  19
ENDBRANCH  17  18
ENDBRANCH   1  17
TORSDOF 4
ENDMDL
MODEL 2
REMARK VINA RESULT:      56.5      1.662      4.083
REMARK  4 active torsions:
REMARK  status: ('A' for Active; 'I' for Inactive)
REMARK    1  A    between atoms: C_6  and  N_1 
REMARK    2  A    between atoms: C_10  and  C_4 
REMARK    3  A    between atoms: C_8  and  C_6 
REMARK    4  A    between atoms: C_9  and  C_8 
ROOT
ATOM      1  N   UNL d   1      59.938  49.382  50.967  0.00  0.00    -0.305 N 
ATOM      2  C   UNL d   1      59.766  49.540  52.288  0.00  0.00     0.057 A 
ATOM      3  C   UNL d   1      60.338  49.486  51.682  0.00  0.00     0.067 A 
ATOM      4  C   UNL d   1      59.140  49.372  51.120  0.00  0.00     0.064 A 
ATOM      5  C   UNL d   1      59.024  49.469  51.937  0.00  0.00     0.022 A 
ATOM      6  C   UNL d   1      60.003  49.646  53.070  0.00  0.00     0.197 A 
ATOM      7  O   UNL d   1      59.432  49.699  53.676  0.00  0.00    -0.286 OA
ATOM      8  C   UNL d   1      61.139  49.538  51.865  0.00  0.00     0.018 A 
ATOM      9  C   UNL d   1      60.804  49.698  53.252  0.00  0.00     0.042 A 
ATOM     10  C   UNL d   1      61.365  49.645  52.657  0.00  0.00     0.005 A 
ENDROOT
BRANCH   4  11
ATOM     11  C   UNL d   1      58.383  49.299  50.760  0.00  0.00     0.016 A 
ATOM     12  C   UNL d   1      58.218  49.707  50.068  0.00  0.00     0.001 A 
ATOM     13  C   UNL d   1      57.479  49.638  49.715  0.00  0.00     0.000 A 
ATOM     14  C   UNL d   1      56.910  49.151  50.070  0.00  0.00     0.000 A 
ATOM     15  C   UNL d   1      57.069  48.740  50.761  0.00  0.00     0.000 A 
ATOM     16  C   UNL d   1      57.811  48.812  51.112  0.00  0.00     0.001 A 
ENDBRANCH   4  11
BRANCH   1  17
ATOM     17  C   UNL d   1      60.269  49.301  50.208  0.00  0.00     0.086 C 
BRANCH  17  18
ATOM     18  C   UNL d   1      60.541  48.553  49.967  0.00  0.00     0.089 C 
BRANCH  18  19
ATOM     19  C   UNL d   1      61.337  48.424  49.797  0.00  0.00     0.213 C 
ATOM     20  O   UNL d   1      61.773  47.894  50.248  0.00  0.00    -0.644 OA
ATOM     21  O   UNL d   1      61.718  48.813  49.183  0.00  0.00    -0.644 OA
ENDBRANCH  18  19
ENDBRANCH  17  18
ENDBRANCH   1  17
TORSDOF 4
ENDMDL
