MODEL 1
REMARK VINA RESULT:      10.2      0.000      0.000
REMARK  5 active torsions:
REMARK  status: ('A' for Active; 'I' for Inactive)
REMARK    1  A    between atoms: C_8  and  N_1 
REMARK       I    between atoms: N_2  and  C_4 
REMARK    2  A    between atoms: C_3  and  N_2 
REMARK    3  A    between atoms: N_6  and  C_3 
REMARK    4  A    between atoms: C_4  and  C_12 
REMARK    5  A    between atoms: C_7  and  N_6 
ROOT
ATOM      1  N   UNL d   1      46.067 -16.444  44.171  0.00  0.00    -0.168 NA
ATOM      2  C   UNL d   1      45.481 -15.966  44.501  0.00  0.00     0.282 C 
ATOM      3  O   UNL d   1      44.848 -16.305  44.897  0.00  0.00    -0.265 OA
ENDROOT
BRANCH   2   4
ATOM      4  C   UNL d   1      45.534 -15.144  44.431  0.00  0.00     0.058 A 
ATOM      5  C   UNL d   1      44.845 -14.703  44.288  0.00  0.00     0.006 A 
ATOM      6  C   UNL d   1      44.893 -13.889  44.217  0.00  0.00     0.024 A 
ATOM      7  C   UNL d   1      45.626 -13.508  44.290  0.00  0.00     0.127 A 
ATOM      8  C   UNL d   1      46.307 -13.953  44.432  0.00  0.00     0.024 A 
ATOM      9  C   UNL d   1      46.253 -14.775  44.502  0.00  0.00     0.006 A 
BRANCH   7  10
ATOM     10  N   UNL d   1      45.672 -12.691  44.219  0.00  0.00    -0.114 N 
ATOM     11  O   UNL d   1      45.929 -12.232  44.855  0.00  0.00    -0.532 OA
ATOM     12  O   UNL d   1      45.460 -12.333  43.512  0.00  0.00    -0.532 OA
ENDBRANCH   7  10
ENDBRANCH   2   4
BRANCH   1  13
ATOM     13  C   UNL d   1      46.021 -17.263  44.237  0.00  0.00     0.275 C 
ATOM     14  S   UNL d   1      45.799 -17.602  44.955  0.00  0.00    -0.023 SA
BRANCH  13  15
ATOM     15  N   UNL d   1      46.193 -17.745  43.593  0.00  0.00    -0.369 NA
BRANCH  15  16
ATOM     16  C   UNL d   1      46.358 -18.217  42.959  0.00  0.00     0.180 A 
ATOM     17  C   UNL d   1      46.469 -18.940  42.870  0.00  0.00     0.255 A 
ATOM     18  S   UNL d   1      46.614 -19.210  42.192  0.00  0.00    -0.043 SA
ATOM     19  O   UNL d   1      46.436 -19.393  43.443  0.00  0.00    -0.277 OA
ATOM     20  C   UNL d   1      46.647 -18.755  41.619  0.00  0.00     0.041 A 
ATOM     21  C   UNL d   1      46.537 -18.034  41.708  0.00  0.00     0.043 A 
ENDBRANCH  15  16
ENDBRANCH  13  15
ENDBRANCH   1  13
TORSDOF 5
ENDMDL
