MODEL 1
REMARK VINA RESULT:      -5.7      0.000      0.000
REMARK  2 active torsions:
REMARK  status: ('A' for Active; 'I' for Inactive)
REMARK    1  A    between atoms: C_9  and  C_4 
REMARK    2  A    between atoms: N_6  and  C_8 
ROOT
ATOM      1  N   UNL d   1      57.781   0.159  30.356  0.00  0.00    -0.211 NA
ATOM      2  C   UNL d   1      58.264   0.041  29.697  0.00  0.00     0.140 A 
ATOM      3  C   UNL d   1      58.494  -0.720  29.496  0.00  0.00     0.051 A 
ATOM      4  C   UNL d   1      57.532  -0.481  30.810  0.00  0.00     0.183 A 
ATOM      5  C   UNL d   1      58.248  -1.370  29.946  0.00  0.00     0.104 A 
ATOM      6  O   UNL d   1      57.761  -1.250  30.612  0.00  0.00    -0.289 OA
ATOM      7  S   UNL d   1      58.511   0.682  29.246  0.00  0.00    -0.057 SA
ATOM      8  C   UNL d   1      58.976  -0.841  28.838  0.00  0.00     0.004 A 
ATOM      9  C   UNL d   1      58.478  -2.131  29.746  0.00  0.00     0.025 A 
ATOM     10  C   UNL d   1      59.213  -1.606  28.628  0.00  0.00     0.000 A 
ATOM     11  C   UNL d   1      58.963  -2.246  29.083  0.00  0.00     0.002 A 
ENDROOT
BRANCH   4  12
ATOM     12  C   UNL d   1      57.048  -0.354  31.470  0.00  0.00     0.041 A 
ATOM     13  C   UNL d   1      56.688  -1.004  31.836  0.00  0.00     0.005 A 
ATOM     14  C   UNL d   1      56.206  -0.878  32.492  0.00  0.00     0.024 A 
ATOM     15  C   UNL d   1      56.082  -0.114  32.784  0.00  0.00     0.127 A 
ATOM     16  C   UNL d   1      56.449   0.532  32.408  0.00  0.00     0.024 A 
ATOM     17  C   UNL d   1      56.930   0.406  31.752  0.00  0.00     0.005 A 
BRANCH  15  18
ATOM     18  N   UNL d   1      55.598   0.004  33.442  0.00  0.00    -0.114 N 
ATOM     19  O   UNL d   1      55.924   0.219  34.166  0.00  0.00    -0.532 OA
ATOM     20  O   UNL d   1      54.779  -0.095  33.378  0.00  0.00    -0.532 OA
ENDBRANCH  15  18
ENDBRANCH   4  12
TORSDOF 2
ENDMDL
MODEL 2
REMARK VINA RESULT:      -5.6      1.314      1.653
REMARK  2 active torsions:
REMARK  status: ('A' for Active; 'I' for Inactive)
REMARK    1  A    between atoms: C_9  and  C_4 
REMARK    2  A    between atoms: N_6  and  C_8 
ROOT
ATOM      1  N   UNL d   1      57.724   0.359  29.897  0.00  0.00    -0.211 NA
ATOM      2  C   UNL d   1      58.285   0.517  29.313  0.00  0.00     0.140 A 
ATOM      3  C   UNL d   1      59.081   0.519  29.510  0.00  0.00     0.051 A 
ATOM      4  C   UNL d   1      57.959   0.204  30.670  0.00  0.00     0.183 A 
ATOM      5  C   UNL d   1      59.327   0.365  30.285  0.00  0.00     0.104 A 
ATOM      6  O   UNL d   1      58.759   0.206  30.874  0.00  0.00    -0.289 OA
ATOM      7  S   UNL d   1      58.048   0.670  28.541  0.00  0.00    -0.057 SA
ATOM      8  C   UNL d   1      59.645   0.677  28.929  0.00  0.00     0.004 A 
ATOM      9  C   UNL d   1      60.123   0.368  30.482  0.00  0.00     0.025 A 
ATOM     10  C   UNL d   1      60.451   0.681  29.119  0.00  0.00     0.000 A 
ATOM     11  C   UNL d   1      60.685   0.527  29.893  0.00  0.00     0.002 A 
ENDROOT
BRANCH   4  12
ATOM     12  C   UNL d   1      57.388   0.047  31.250  0.00  0.00     0.041 A 
ATOM     13  C   UNL d   1      57.031   0.681  31.645  0.00  0.00     0.005 A 
ATOM     14  C   UNL d   1      56.463   0.525  32.221  0.00  0.00     0.024 A 
ATOM     15  C   UNL d   1      56.250  -0.253  32.405  0.00  0.00     0.127 A 
ATOM     16  C   UNL d   1      56.616  -0.882  32.001  0.00  0.00     0.024 A 
ATOM     17  C   UNL d   1      57.183  -0.727  31.425  0.00  0.00     0.005 A 
BRANCH  15  18
ATOM     18  N   UNL d   1      55.681  -0.401  32.983  0.00  0.00    -0.114 N 
ATOM     19  O   UNL d   1      55.222   0.214  33.284  0.00  0.00    -0.532 OA
ATOM     20  O   UNL d   1      55.566  -1.170  33.267  0.00  0.00    -0.532 OA
ENDBRANCH  15  18
ENDBRANCH   4  12
TORSDOF 2
ENDMDL
MODEL 3
REMARK VINA RESULT:      -5.3      1.757      4.431
REMARK  2 active torsions:
REMARK  status: ('A' for Active; 'I' for Inactive)
REMARK    1  A    between atoms: C_9  and  C_4 
REMARK    2  A    between atoms: N_6  and  C_8 
ROOT
ATOM      1  N   UNL d   1      57.554   0.339  32.735  0.00  0.00    -0.211 NA
ATOM      2  C   UNL d   1      57.217   0.478  33.475  0.00  0.00     0.140 A 
ATOM      3  C   UNL d   1      56.405   0.411  33.568  0.00  0.00     0.051 A 
ATOM      4  C   UNL d   1      57.080   0.134  32.093  0.00  0.00     0.183 A 
ATOM      5  C   UNL d   1      55.921   0.206  32.929  0.00  0.00     0.104 A 
ATOM      6  O   UNL d   1      56.262   0.065  32.181  0.00  0.00    -0.289 OA
ATOM      7  S   UNL d   1      57.692   0.682  34.114  0.00  0.00    -0.057 SA
ATOM      8  C   UNL d   1      56.065   0.549  34.306  0.00  0.00     0.004 A 
ATOM      9  C   UNL d   1      55.109   0.139  33.021  0.00  0.00     0.025 A 
ATOM     10  C   UNL d   1      55.246   0.484  34.409  0.00  0.00     0.000 A 
ATOM     11  C   UNL d   1      54.773   0.279  33.766  0.00  0.00     0.002 A 
ENDROOT
BRANCH   4  12
ATOM     12  C   UNL d   1      57.427  -0.004  31.354  0.00  0.00     0.041 A 
ATOM     13  C   UNL d   1      57.513  -0.785  31.089  0.00  0.00     0.005 A 
ATOM     14  C   UNL d   1      57.857  -0.922  30.354  0.00  0.00     0.024 A 
ATOM     15  C   UNL d   1      58.116  -0.293  29.883  0.00  0.00     0.127 A 
ATOM     16  C   UNL d   1      58.025   0.487  30.160  0.00  0.00     0.024 A 
ATOM     17  C   UNL d   1      57.680   0.626  30.895  0.00  0.00     0.005 A 
BRANCH  15  18
ATOM     18  N   UNL d   1      58.460  -0.440  29.148  0.00  0.00    -0.114 N 
ATOM     19  O   UNL d   1      58.195  -0.043  28.477  0.00  0.00    -0.532 OA
ATOM     20  O   UNL d   1      59.076  -0.988  29.080  0.00  0.00    -0.532 OA
ENDBRANCH  15  18
ENDBRANCH   4  12
TORSDOF 2
ENDMDL
MODEL 4
REMARK VINA RESULT:      -5.3      1.357      1.484
REMARK  2 active torsions:
REMARK  status: ('A' for Active; 'I' for Inactive)
REMARK    1  A    between atoms: C_9  and  C_4 
REMARK    2  A    between atoms: N_6  and  C_8 
ROOT
ATOM      1  N   UNL d   1      58.420   0.367  31.547  0.00  0.00    -0.211 NA
ATOM      2  C   UNL d   1      59.049   0.506  31.032  0.00  0.00     0.140 A 
ATOM      3  C   UNL d   1      58.923   0.469  30.223  0.00  0.00     0.051 A 
ATOM      4  C   UNL d   1      57.672   0.191  31.254  0.00  0.00     0.183 A 
ATOM      5  C   UNL d   1      58.174   0.293  29.918  0.00  0.00     0.104 A 
ATOM      6  O   UNL d   1      57.539   0.151  30.440  0.00  0.00    -0.289 OA
ATOM      7  S   UNL d   1      59.795   0.682  31.328  0.00  0.00    -0.057 SA
ATOM      8  C   UNL d   1      59.549   0.608  29.705  0.00  0.00     0.004 A 
ATOM      9  C   UNL d   1      58.047   0.255  29.109  0.00  0.00     0.025 A 
ATOM     10  C   UNL d   1      59.431   0.572  28.886  0.00  0.00     0.000 A 
ATOM     11  C   UNL d   1      58.682   0.396  28.593  0.00  0.00     0.002 A 
ENDROOT
BRANCH   4  12
ATOM     12  C   UNL d   1      57.046   0.052  31.779  0.00  0.00     0.041 A 
ATOM     13  C   UNL d   1      56.839  -0.730  31.960  0.00  0.00     0.005 A 
ATOM     14  C   UNL d   1      56.218  -0.869  32.482  0.00  0.00     0.024 A 
ATOM     15  C   UNL d   1      55.803  -0.239  32.823  0.00  0.00     0.127 A 
ATOM     16  C   UNL d   1      56.020   0.542  32.633  0.00  0.00     0.024 A 
ATOM     17  C   UNL d   1      56.641   0.682  32.112  0.00  0.00     0.005 A 
BRANCH  15  18
ATOM     18  N   UNL d   1      55.181  -0.387  33.345  0.00  0.00    -0.114 N 
ATOM     19  O   UNL d   1      54.716   0.231  33.624  0.00  0.00    -0.532 OA
ATOM     20  O   UNL d   1      55.022  -1.161  33.591  0.00  0.00    -0.532 OA
ENDBRANCH  15  18
ENDBRANCH   4  12
TORSDOF 2
ENDMDL
MODEL 5
REMARK VINA RESULT:      -5.1      0.891      1.532
REMARK  2 active torsions:
REMARK  status: ('A' for Active; 'I' for Inactive)
REMARK    1  A    between atoms: C_9  and  C_4 
REMARK    2  A    between atoms: N_6  and  C_8 
ROOT
ATOM      1  N   UNL d   1      57.755  -1.277  30.535  0.00  0.00    -0.211 NA
ATOM      2  C   UNL d   1      58.248  -1.390  29.883  0.00  0.00     0.140 A 
ATOM      3  C   UNL d   1      58.565  -0.738  29.500  0.00  0.00     0.051 A 
ATOM      4  C   UNL d   1      57.582  -0.517  30.800  0.00  0.00     0.183 A 
ATOM      5  C   UNL d   1      58.396   0.030  29.759  0.00  0.00     0.104 A 
ATOM      6  O   UNL d   1      57.898   0.143  30.418  0.00  0.00    -0.289 OA
ATOM      7  S   UNL d   1      58.420  -2.149  29.621  0.00  0.00    -0.057 SA
ATOM      8  C   UNL d   1      59.058  -0.846  28.848  0.00  0.00     0.004 A 
ATOM      9  C   UNL d   1      58.713   0.682  29.376  0.00  0.00     0.025 A 
ATOM     10  C   UNL d   1      59.382  -0.194  28.455  0.00  0.00     0.000 A 
ATOM     11  C   UNL d   1      59.208   0.565  28.721  0.00  0.00     0.002 A 
ENDROOT
BRANCH   4  12
ATOM     12  C   UNL d   1      57.086  -0.414  31.456  0.00  0.00     0.041 A 
ATOM     13  C   UNL d   1      56.920   0.355  31.717  0.00  0.00     0.005 A 
ATOM     14  C   UNL d   1      56.427   0.459  32.368  0.00  0.00     0.024 A 
ATOM     15  C   UNL d   1      56.100  -0.193  32.759  0.00  0.00     0.127 A 
ATOM     16  C   UNL d   1      56.274  -0.961  32.488  0.00  0.00     0.024 A 
ATOM     17  C   UNL d   1      56.767  -1.066  31.837  0.00  0.00     0.005 A 
BRANCH  15  18
ATOM     18  N   UNL d   1      55.607  -0.081  33.411  0.00  0.00    -0.114 N 
ATOM     19  O   UNL d   1      54.814  -0.296  33.376  0.00  0.00    -0.532 OA
ATOM     20  O   UNL d   1      55.909   0.251  34.107  0.00  0.00    -0.532 OA
ENDBRANCH  15  18
ENDBRANCH   4  12
TORSDOF 2
ENDMDL
MODEL 6
REMARK VINA RESULT:      -3.0      2.344      5.105
REMARK  2 active torsions:
REMARK  status: ('A' for Active; 'I' for Inactive)
REMARK    1  A    between atoms: C_9  and  C_4 
REMARK    2  A    between atoms: N_6  and  C_8 
ROOT
ATOM      1  N   UNL d   1      55.278   0.461  33.428  0.00  0.00    -0.211 NA
ATOM      2  C   UNL d   1      54.842   0.571  34.120  0.00  0.00     0.140 A 
ATOM      3  C   UNL d   1      55.227   0.571  34.844  0.00  0.00     0.051 A 
ATOM      4  C   UNL d   1      56.093   0.352  33.462  0.00  0.00     0.183 A 
ATOM      5  C   UNL d   1      56.047   0.461  34.888  0.00  0.00     0.104 A 
ATOM      6  O   UNL d   1      56.486   0.350  34.188  0.00  0.00    -0.289 OA
ATOM      7  S   UNL d   1      54.028   0.681  34.084  0.00  0.00    -0.057 SA
ATOM      8  C   UNL d   1      54.795   0.680  35.537  0.00  0.00     0.004 A 
ATOM      9  C   UNL d   1      56.432   0.460  35.611  0.00  0.00     0.025 A 
ATOM     10  C   UNL d   1      55.176   0.681  36.272  0.00  0.00     0.000 A 
ATOM     11  C   UNL d   1      55.991   0.571  36.305  0.00  0.00     0.002 A 
ENDROOT
BRANCH   4  12
ATOM     12  C   UNL d   1      56.522   0.242  32.762  0.00  0.00     0.041 A 
ATOM     13  C   UNL d   1      57.214   0.682  32.642  0.00  0.00     0.005 A 
ATOM     14  C   UNL d   1      57.642   0.574  31.947  0.00  0.00     0.024 A 
ATOM     15  C   UNL d   1      57.387   0.034  31.373  0.00  0.00     0.127 A 
ATOM     16  C   UNL d   1      56.690  -0.402  31.505  0.00  0.00     0.024 A 
ATOM     17  C   UNL d   1      56.262  -0.294  32.200  0.00  0.00     0.005 A 
BRANCH  15  18
ATOM     18  N   UNL d   1      57.821  -0.069  30.679  0.00  0.00    -0.114 N 
ATOM     19  O   UNL d   1      57.752  -0.763  30.243  0.00  0.00    -0.532 OA
ATOM     20  O   UNL d   1      58.331   0.528  30.416  0.00  0.00    -0.532 OA
ENDBRANCH  15  18
ENDBRANCH   4  12
TORSDOF 2
ENDMDL
