MODEL 1
REMARK VINA RESULT:       9.2      0.000      0.000
REMARK  9 active torsions:
REMARK  status: ('A' for Active; 'I' for Inactive)
REMARK    1  A    between atoms: C_5  and  C_1 
REMARK    2  A    between atoms: N_6  and  C_2 
REMARK    3  A    between atoms: C_7  and  C_5 
REMARK    4  A    between atoms: C_8  and  C_5 
REMARK    5  A    between atoms: O_13  and  C_7 
REMARK    6  A    between atoms: C_17  and  N_12 
REMARK    7  A    between atoms: C_20  and  O_13 
REMARK    8  A    between atoms: C_21  and  C_17 
REMARK    9  A    between atoms: C_24  and  C_20 
ROOT
ATOM      1  C   UNL d   1     -42.007-122.307 -49.712  0.00  0.00     0.117 A 
ATOM      2  C   UNL d   1     -41.523-122.941 -49.908  0.00  0.00     0.145 A 
ATOM      3  N   UNL d   1     -41.235-123.446 -49.317  0.00  0.00    -0.230 NA
ATOM      4  N   UNL d   1     -42.209-122.173 -48.920  0.00  0.00    -0.241 NA
ATOM      5  C   UNL d   1     -41.437-123.312 -48.525  0.00  0.00     0.100 A 
ATOM      6  C   UNL d   1     -41.929-122.669 -48.331  0.00  0.00     0.099 A 
ATOM      7  C   UNL d   1     -41.152-123.814 -47.932  0.00  0.00     0.021 A 
ATOM      8  C   UNL d   1     -42.127-122.538 -47.548  0.00  0.00     0.021 A 
ATOM      9  C   UNL d   1     -41.357-123.674 -47.150  0.00  0.00     0.002 A 
ATOM     10  C   UNL d   1     -41.847-123.035 -46.949  0.00  0.00     0.002 A 
ENDROOT
BRANCH   2  11
ATOM     11  N   UNL d   1     -41.415-122.939 -50.729  0.00  0.00    -0.189 NA
ATOM     12  C   UNL d   1     -41.368-123.096 -51.377  0.00  0.00     0.076 A 
ATOM     13  C   UNL d   1     -41.123-122.528 -52.209  0.00  0.00     0.093 A 
ATOM     14  N   UNL d   1     -41.211-123.204 -52.782  0.00  0.00    -0.301 N 
ATOM     15  C   UNL d   1     -41.248-123.011 -52.142  0.00  0.00     0.093 A 
ATOM     16  C   UNL d   1     -41.505-123.588 -51.235  0.00  0.00     0.076 A 
BRANCH  14  17
ATOM     17  C   UNL d   1     -41.232-123.665 -53.471  0.00  0.00     0.080 C 
BRANCH  17  18
ATOM     18  C   UNL d   1     -41.464-123.323 -54.185  0.00  0.00     0.018 A 
ATOM     19  C   UNL d   1     -42.002-122.701 -54.183  0.00  0.00     0.002 A 
ATOM     20  C   UNL d   1     -42.231-122.362 -54.899  0.00  0.00     0.000 A 
ATOM     21  C   UNL d   1     -41.923-122.645 -55.611  0.00  0.00     0.000 A 
ATOM     22  C   UNL d   1     -41.385-123.269 -55.604  0.00  0.00     0.000 A 
ATOM     23  C   UNL d   1     -41.155-123.608 -54.889  0.00  0.00     0.002 A 
ENDBRANCH  17  18
ENDBRANCH  14  17
ENDBRANCH   2  11
BRANCH   1  24
ATOM     24  C   UNL d   1     -42.203-121.909 -50.410  0.00  0.00     0.104 C 
BRANCH  24  25
ATOM     25  C   UNL d   1     -42.964-121.867 -50.752  0.00  0.00     0.303 C 
ATOM     26  O   UNL d   1     -43.045-121.690 -51.554  0.00  0.00    -0.259 OA
BRANCH  25  27
ATOM     27  O   UNL d   1     -43.633-122.004 -50.284  0.00  0.00    -0.271 OA
BRANCH  27  28
ATOM     28  C   UNL d   1     -44.355-121.660 -50.481  0.00  0.00     0.126 C 
BRANCH  28  29
ATOM     29  C   UNL d   1     -45.047-121.900 -50.103  0.00  0.00     0.025 C 
ATOM     30  C   UNL d   1     -45.590-121.339 -49.846  0.00  0.00     0.002 C 
ATOM     31  C   UNL d   1     -45.194-122.704 -49.982  0.00  0.00     0.002 C 
ENDBRANCH  28  29
ENDBRANCH  27  28
ENDBRANCH  25  27
ENDBRANCH  24  25
BRANCH  24  32
ATOM     32  C   UNL d   1     -41.521-121.561 -50.710  0.00  0.00     0.129 C 
ATOM     33  N   UNL d   1     -41.282-120.771 -50.607  0.00  0.00    -0.146 N 
ENDBRANCH  24  32
ENDBRANCH   1  24
TORSDOF 9
ENDMDL
