MODEL 1
REMARK VINA RESULT:      -6.1      0.000      0.000
REMARK  1 active torsions:
REMARK  status: ('A' for Active; 'I' for Inactive)
REMARK    1  A    between atoms: C_11  and  C_9 
ROOT
ATOM      1  N   UNL d   1     -41.415-122.555 -52.263  0.00  0.00    -0.253 N 
ATOM      2  C   UNL d   1     -41.610-123.287 -51.948  0.00  0.00     0.182 A 
ATOM      3  C   UNL d   1     -41.325-121.899 -51.740  0.00  0.00     0.267 A 
ATOM      4  N   UNL d   1     -41.664-123.817 -52.552  0.00  0.00    -0.221 NA
ATOM      5  S   UNL d   1     -41.718-123.396 -51.145  0.00  0.00    -0.050 SA
ATOM      6  C   UNL d   1     -41.428-121.987 -50.936  0.00  0.00     0.068 A 
ATOM      7  C   UNL d   1     -41.351-122.645 -53.065  0.00  0.00     0.086 A 
ATOM      8  C   UNL d   1     -41.502-123.424 -53.271  0.00  0.00     0.100 A 
ATOM      9  C   UNL d   1     -41.631-122.760 -50.630  0.00  0.00     0.037 A 
ATOM     10  O   UNL d   1     -41.123-121.127 -52.043  0.00  0.00    -0.267 OA
ATOM     11  C   UNL d   1     -41.164-122.085 -53.674  0.00  0.00     0.019 A 
ATOM     12  C   UNL d   1     -41.475-123.669 -54.044  0.00  0.00     0.021 A 
ATOM     13  C   UNL d   1     -41.140-122.345 -54.450  0.00  0.00     0.002 A 
ATOM     14  C   UNL d   1     -41.289-123.111 -54.642  0.00  0.00     0.002 A 
ENDROOT
BRANCH   9  15
ATOM     15  C   UNL d   1     -41.760-122.962 -49.825  0.00  0.00     0.006 A 
ATOM     16  C   UNL d   1     -41.123-123.144 -49.334  0.00  0.00     0.001 A 
ATOM     17  C   UNL d   1     -41.248-123.347 -48.528  0.00  0.00     0.000 A 
ATOM     18  C   UNL d   1     -42.012-123.362 -48.232  0.00  0.00     0.000 A 
ATOM     19  C   UNL d   1     -42.667-123.179 -48.726  0.00  0.00     0.000 A 
ATOM     20  C   UNL d   1     -42.543-122.980 -49.517  0.00  0.00     0.001 A 
ENDBRANCH   9  15
TORSDOF 1
ENDMDL
MODEL 2
REMARK VINA RESULT:      -5.0      0.923      4.087
REMARK  1 active torsions:
REMARK  status: ('A' for Active; 'I' for Inactive)
REMARK    1  A    between atoms: C_11  and  C_9 
ROOT
ATOM      1  N   UNL d   1     -41.389-122.359 -51.564  0.00  0.00    -0.253 N 
ATOM      2  C   UNL d   1     -41.569-123.013 -52.024  0.00  0.00     0.182 A 
ATOM      3  C   UNL d   1     -41.310-121.607 -51.940  0.00  0.00     0.267 A 
ATOM      4  N   UNL d   1     -41.615-123.658 -51.543  0.00  0.00    -0.221 NA
ATOM      5  S   UNL d   1     -41.674-122.957 -52.834  0.00  0.00    -0.050 SA
ATOM      6  C   UNL d   1     -41.410-121.529 -52.746  0.00  0.00     0.068 A 
ATOM      7  C   UNL d   1     -41.325-122.611 -50.798  0.00  0.00     0.086 A 
ATOM      8  C   UNL d   1     -41.462-123.419 -50.758  0.00  0.00     0.100 A 
ATOM      9  C   UNL d   1     -41.598-122.226 -53.206  0.00  0.00     0.037 A 
ATOM     10  O   UNL d   1     -41.123-120.911 -51.483  0.00  0.00    -0.267 OA
ATOM     11  C   UNL d   1     -41.150-122.186 -50.085  0.00  0.00     0.019 A 
ATOM     12  C   UNL d   1     -41.433-123.818 -50.052  0.00  0.00     0.021 A 
ATOM     13  C   UNL d   1     -41.123-122.599 -49.380  0.00  0.00     0.002 A 
ATOM     14  C   UNL d   1     -41.259-123.391 -49.350  0.00  0.00     0.002 A 
ENDROOT
BRANCH   9  15
ATOM     15  C   UNL d   1     -41.721-122.260 -54.036  0.00  0.00     0.006 A 
ATOM     16  C   UNL d   1     -42.357-121.864 -54.379  0.00  0.00     0.001 A 
ATOM     17  C   UNL d   1     -42.483-121.895 -55.210  0.00  0.00     0.000 A 
ATOM     18  C   UNL d   1     -41.967-122.326 -55.678  0.00  0.00     0.000 A 
ATOM     19  C   UNL d   1     -41.316-122.734 -55.336  0.00  0.00     0.000 A 
ATOM     20  C   UNL d   1     -41.193-122.701 -54.521  0.00  0.00     0.001 A 
ENDBRANCH   9  15
TORSDOF 1
ENDMDL
MODEL 3
REMARK VINA RESULT:      -3.4      1.290      1.791
REMARK  1 active torsions:
REMARK  status: ('A' for Active; 'I' for Inactive)
REMARK    1  A    between atoms: C_11  and  C_9 
ROOT
ATOM      1  N   UNL d   1     -41.803-122.508 -53.408  0.00  0.00    -0.253 N 
ATOM      2  C   UNL d   1     -42.121-121.919 -52.934  0.00  0.00     0.182 A 
ATOM      3  C   UNL d   1     -41.465-123.188 -53.039  0.00  0.00     0.267 A 
ATOM      4  N   UNL d   1     -42.406-121.335 -53.411  0.00  0.00    -0.221 NA
ATOM      5  S   UNL d   1     -42.118-121.972 -52.118  0.00  0.00    -0.050 SA
ATOM      6  C   UNL d   1     -41.453-123.261 -52.228  0.00  0.00     0.068 A 
ATOM      7  C   UNL d   1     -41.898-122.277 -54.179  0.00  0.00     0.086 A 
ATOM      8  C   UNL d   1     -42.272-121.548 -54.208  0.00  0.00     0.100 A 
ATOM      9  C   UNL d   1     -41.790-122.633 -51.753  0.00  0.00     0.037 A 
ATOM     10  O   UNL d   1     -41.129-123.815 -53.511  0.00  0.00    -0.267 OA
ATOM     11  C   UNL d   1     -41.679-122.659 -54.903  0.00  0.00     0.019 A 
ATOM     12  C   UNL d   1     -42.436-121.186 -54.915  0.00  0.00     0.021 A 
ATOM     13  C   UNL d   1     -41.851-122.284 -55.610  0.00  0.00     0.002 A 
ATOM     14  C   UNL d   1     -42.218-121.568 -55.628  0.00  0.00     0.002 A 
ENDROOT
BRANCH   9  15
ATOM     15  C   UNL d   1     -41.830-122.605 -50.914  0.00  0.00     0.006 A 
ATOM     16  C   UNL d   1     -41.151-122.718 -50.461  0.00  0.00     0.001 A 
ATOM     17  C   UNL d   1     -41.187-122.691 -49.622  0.00  0.00     0.000 A 
ATOM     18  C   UNL d   1     -41.906-122.550 -49.255  0.00  0.00     0.000 A 
ATOM     19  C   UNL d   1     -42.604-122.434 -49.710  0.00  0.00     0.000 A 
ATOM     20  C   UNL d   1     -42.567-122.461 -50.534  0.00  0.00     0.001 A 
ENDBRANCH   9  15
TORSDOF 1
ENDMDL
