MODEL 1
REMARK VINA RESULT:     -10.3      0.000      0.000
REMARK  4 active torsions:
REMARK  status: ('A' for Active; 'I' for Inactive)
REMARK    1  A    between atoms: C_16  and  N_3 
REMARK    2  A    between atoms: S_12  and  C_6 
REMARK    3  A    between atoms: C_10  and  C_14 
REMARK       I    between atoms: N_11  and  C_10 
REMARK    4  A    between atoms: C_14  and  S_12 
ROOT
ATOM      1  C   UNL d   1      53.698  32.717  54.202  0.00  0.00     0.155 A 
ATOM      2  C   UNL d   1      53.020  32.638  53.728  0.00  0.00     0.107 A 
ATOM      3  N   UNL d   1      53.386  34.084  54.428  0.00  0.00    -0.252 N 
ATOM      4  C   UNL d   1      53.874  33.433  54.545  0.00  0.00     0.285 A 
ATOM      5  N   UNL d   1      52.532  33.290  53.611  0.00  0.00    -0.220 NA
ATOM      6  C   UNL d   1      52.714  34.013  53.960  0.00  0.00     0.182 A 
ATOM      7  N   UNL d   1      54.071  31.984  54.218  0.00  0.00    -0.239 NA
ATOM      8  C   UNL d   1      52.987  31.866  53.462  0.00  0.00     0.037 A 
ATOM      9  C   UNL d   1      53.633  31.458  53.762  0.00  0.00     0.083 A 
ATOM     10  O   UNL d   1      54.553  33.503  55.017  0.00  0.00    -0.265 OA
ATOM     11  C   UNL d   1      52.444  31.481  52.981  0.00  0.00     0.003 A 
ATOM     12  C   UNL d   1      53.737  30.666  53.580  0.00  0.00     0.019 A 
ATOM     13  C   UNL d   1      52.548  30.689  52.800  0.00  0.00     0.000 A 
ATOM     14  C   UNL d   1      53.201  30.285  53.104  0.00  0.00     0.002 A 
ENDROOT
BRANCH   6  15
ATOM     15  S   UNL d   1      50.425  34.118  52.478  0.00  0.00    -0.044 SA
BRANCH  15  16
ATOM     16  C   UNL d   1      49.729  34.681  52.730  0.00  0.00     0.099 C 
BRANCH  16  17
ATOM     17  C   UNL d   1      49.053  34.876  52.121  0.00  0.00     0.272 C 
ATOM     18  N   UNL d   1      48.374  35.457  52.351  0.00  0.00    -0.267 N 
ATOM     19  C   UNL d   1      47.714  35.648  51.759  0.00  0.00     0.110 A 
ATOM     20  C   UNL d   1      48.378  35.838  53.186  0.00  0.00     0.110 A 
ATOM     21  C   UNL d   1      47.028  36.233  51.986  0.00  0.00     0.142 A 
ATOM     22  O   UNL d   1      47.022  36.620  52.819  0.00  0.00    -0.300 OA
ATOM     23  C   UNL d   1      47.700  36.424  53.427  0.00  0.00     0.142 A 
ATOM     24  O   UNL d   1      49.052  34.491  51.282  0.00  0.00    -0.266 OA
ENDBRANCH  16  17
ENDBRANCH  15  16
ENDBRANCH   6  15
BRANCH   3  25
ATOM     25  C   UNL d   1      53.593  34.900  54.823  0.00  0.00     0.085 C 
ATOM     26  C   UNL d   1      53.092  35.649  54.622  0.00  0.00     0.021 C 
ENDBRANCH   3  25
TORSDOF 4
ENDMDL
MODEL 2
REMARK VINA RESULT:      -8.0      0.760      2.592
REMARK  4 active torsions:
REMARK  status: ('A' for Active; 'I' for Inactive)
REMARK    1  A    between atoms: C_16  and  N_3 
REMARK    2  A    between atoms: S_12  and  C_6 
REMARK    3  A    between atoms: C_10  and  C_14 
REMARK       I    between atoms: N_11  and  C_10 
REMARK    4  A    between atoms: C_14  and  S_12 
ROOT
ATOM      1  C   UNL d   1      53.409  32.950  54.022  0.00  0.00     0.155 A 
ATOM      2  C   UNL d   1      52.865  33.501  53.720  0.00  0.00     0.107 A 
ATOM      3  N   UNL d   1      52.854  31.940  53.192  0.00  0.00    -0.252 N 
ATOM      4  C   UNL d   1      53.400  32.181  53.758  0.00  0.00     0.285 A 
ATOM      5  N   UNL d   1      52.319  33.259  53.154  0.00  0.00    -0.220 NA
ATOM      6  C   UNL d   1      52.313  32.480  52.890  0.00  0.00     0.182 A 
ATOM      7  N   UNL d   1      53.878  33.346  54.570  0.00  0.00    -0.239 NA
ATOM      8  C   UNL d   1      53.005  34.219  54.084  0.00  0.00     0.037 A 
ATOM      9  C   UNL d   1      53.629  34.129  54.609  0.00  0.00     0.083 A 
ATOM     10  O   UNL d   1      53.947  31.638  54.063  0.00  0.00    -0.265 OA
ATOM     11  C   UNL d   1      52.639  34.949  54.001  0.00  0.00     0.003 A 
ATOM     12  C   UNL d   1      53.887  34.769  55.052  0.00  0.00     0.019 A 
ATOM     13  C   UNL d   1      52.897  35.589  54.444  0.00  0.00     0.000 A 
ATOM     14  C   UNL d   1      53.526  35.491  54.970  0.00  0.00     0.002 A 
ENDROOT
BRANCH   6  15
ATOM     15  S   UNL d   1      50.394  34.004  51.689  0.00  0.00    -0.044 SA
BRANCH  15  16
ATOM     16  C   UNL d   1      49.717  34.390  52.197  0.00  0.00     0.099 C 
BRANCH  16  17
ATOM     17  C   UNL d   1      48.974  34.755  51.771  0.00  0.00     0.272 C 
ATOM     18  N   UNL d   1      48.427  35.349  52.218  0.00  0.00    -0.267 N 
ATOM     19  C   UNL d   1      47.703  35.706  51.804  0.00  0.00     0.110 A 
ATOM     20  C   UNL d   1      48.628  35.572  53.086  0.00  0.00     0.110 A 
ATOM     21  C   UNL d   1      47.149  36.305  52.250  0.00  0.00     0.142 A 
ATOM     22  O   UNL d   1      47.340  36.534  53.118  0.00  0.00    -0.300 OA
ATOM     23  C   UNL d   1      48.083  36.168  53.544  0.00  0.00     0.142 A 
ATOM     24  O   UNL d   1      48.776  34.529  50.899  0.00  0.00    -0.266 OA
ENDBRANCH  16  17
ENDBRANCH  15  16
ENDBRANCH   6  15
BRANCH   3  25
ATOM     25  C   UNL d   1      52.848  31.059  52.893  0.00  0.00     0.085 C 
ATOM     26  C   UNL d   1      52.093  30.540  53.006  0.00  0.00     0.021 C 
ENDBRANCH   3  25
TORSDOF 4
ENDMDL
