MODEL 1
REMARK VINA RESULT:      52.0      0.000      0.000
REMARK  3 active torsions:
REMARK  status: ('A' for Active; 'I' for Inactive)
REMARK    1  A    between atoms: C_5  and  C_1 
REMARK    2  A    between atoms: N_6  and  C_5 
REMARK    3  A    between atoms: C_8  and  C_5 
ROOT
ATOM      1  C   UNL d   1      14.171  13.343  -2.759  0.00  0.00     0.083 C 
ENDROOT
BRANCH   1   2
ATOM      2  C   UNL d   1      14.473  12.889  -2.102  0.00  0.00     0.037 A 
ATOM      3  C   UNL d   1      15.275  12.706  -1.978  0.00  0.00     0.083 A 
ATOM      4  N   UNL d   1      15.322  12.267  -1.292  0.00  0.00    -0.245 NA
ATOM      5  C   UNL d   1      15.915  12.936  -2.472  0.00  0.00     0.021 C 
ATOM      6  C   UNL d   1      14.568  12.166  -0.980  0.00  0.00     0.081 A 
ATOM      7  C   UNL d   1      14.030  12.560  -1.492  0.00  0.00     0.021 A 
ATOM      8  C   UNL d   1      14.292  11.779  -0.311  0.00  0.00     0.019 A 
ATOM      9  C   UNL d   1      13.229  12.558  -1.325  0.00  0.00     0.002 A 
ATOM     10  C   UNL d   1      12.946  12.160  -0.638  0.00  0.00     0.000 A 
ATOM     11  C   UNL d   1      13.461  11.782  -0.146  0.00  0.00     0.002 A 
ENDBRANCH   1   2
BRANCH   1  12
ATOM     12  N   UNL d   1      14.274  14.170  -2.788  0.00  0.00    -0.302 N 
ATOM     13  C   UNL d   1      14.062  14.586  -3.469  0.00  0.00     0.080 A 
ATOM     14  C   UNL d   1      14.165  15.402  -3.492  0.00  0.00     0.019 A 
ATOM     15  C   UNL d   1      14.479  15.803  -2.842  0.00  0.00     0.003 A 
ATOM     16  C   UNL d   1      14.692  15.391  -2.163  0.00  0.00     0.019 A 
ATOM     17  C   UNL d   1      14.583  16.631  -2.871  0.00  0.00     0.000 C 
ATOM     18  C   UNL d   1      14.588  14.574  -2.139  0.00  0.00     0.080 A 
ENDBRANCH   1  12
BRANCH   1  19
ATOM     19  C   UNL d   1      13.763  12.945  -3.386  0.00  0.00     0.098 A 
ATOM     20  N   UNL d   1      13.965  12.173  -3.589  0.00  0.00    -0.243 NA
ATOM     21  C   UNL d   1      13.574  11.783  -4.195  0.00  0.00     0.099 A 
ATOM     22  C   UNL d   1      12.973  12.171  -4.602  0.00  0.00     0.021 A 
ATOM     23  C   UNL d   1      12.769  12.945  -4.400  0.00  0.00     0.003 A 
ATOM     24  C   UNL d   1      13.162  13.351  -3.784  0.00  0.00     0.021 A 
ENDBRANCH   1  19
TORSDOF 3
ENDMDL
MODEL 2
REMARK VINA RESULT:      54.3      0.883      2.890
REMARK  3 active torsions:
REMARK  status: ('A' for Active; 'I' for Inactive)
REMARK    1  A    between atoms: C_5  and  C_1 
REMARK    2  A    between atoms: N_6  and  C_5 
REMARK    3  A    between atoms: C_8  and  C_5 
ROOT
ATOM      1  C   UNL d   1      14.058  13.290  -2.186  0.00  0.00     0.083 C 
ENDROOT
BRANCH   1   2
ATOM      2  C   UNL d   1      14.185  12.854  -1.463  0.00  0.00     0.037 A 
ATOM      3  C   UNL d   1      13.598  12.685  -0.900  0.00  0.00     0.083 A 
ATOM      4  N   UNL d   1      13.950  12.262  -0.298  0.00  0.00    -0.245 NA
ATOM      5  C   UNL d   1      12.789  12.912  -0.948  0.00  0.00     0.021 C 
ATOM      6  C   UNL d   1      14.749  12.159  -0.468  0.00  0.00     0.081 A 
ATOM      7  C   UNL d   1      14.898  12.534  -1.206  0.00  0.00     0.021 A 
ATOM      8  C   UNL d   1      15.357  11.784  -0.067  0.00  0.00     0.019 A 
ATOM      9  C   UNL d   1      15.652  12.526  -1.524  0.00  0.00     0.002 A 
ATOM     10  C   UNL d   1      16.277  12.140  -1.111  0.00  0.00     0.000 A 
ATOM     11  C   UNL d   1      16.134  11.780  -0.404  0.00  0.00     0.002 A 
ENDBRANCH   1   2
BRANCH   1  12
ATOM     12  N   UNL d   1      13.747  12.914  -2.862  0.00  0.00    -0.302 N 
ATOM     13  C   UNL d   1      13.315  12.215  -2.781  0.00  0.00     0.080 A 
ATOM     14  C   UNL d   1      13.011  11.848  -3.452  0.00  0.00     0.019 A 
ATOM     15  C   UNL d   1      13.136  12.174  -4.200  0.00  0.00     0.003 A 
ATOM     16  C   UNL d   1      13.566  12.870  -4.284  0.00  0.00     0.019 A 
ATOM     17  C   UNL d   1      12.825  11.797  -4.877  0.00  0.00     0.000 C 
ATOM     18  C   UNL d   1      13.871  13.237  -3.613  0.00  0.00     0.080 A 
ENDBRANCH   1  12
BRANCH   1  19
ATOM     19  C   UNL d   1      14.251  14.115  -2.213  0.00  0.00     0.098 A 
ATOM     20  N   UNL d   1      14.576  14.488  -1.555  0.00  0.00    -0.243 NA
ATOM     21  C   UNL d   1      14.765  15.285  -1.574  0.00  0.00     0.099 A 
ATOM     22  C   UNL d   1      14.627  15.714  -2.262  0.00  0.00     0.021 A 
ATOM     23  C   UNL d   1      14.302  15.343  -2.924  0.00  0.00     0.003 A 
ATOM     24  C   UNL d   1      14.106  14.530  -2.913  0.00  0.00     0.021 A 
ENDBRANCH   1  19
TORSDOF 3
ENDMDL
MODEL 3
REMARK VINA RESULT:      54.9      0.877      3.496
REMARK  3 active torsions:
REMARK  status: ('A' for Active; 'I' for Inactive)
REMARK    1  A    between atoms: C_5  and  C_1 
REMARK    2  A    between atoms: N_6  and  C_5 
REMARK    3  A    between atoms: C_8  and  C_5 
ROOT
ATOM      1  C   UNL d   1      14.006  13.175  -2.692  0.00  0.00     0.083 C 
ENDROOT
BRANCH   1   2
ATOM      2  C   UNL d   1      13.589  12.696  -3.262  0.00  0.00     0.037 A 
ATOM      3  C   UNL d   1      13.040  12.101  -3.073  0.00  0.00     0.083 A 
ATOM      4  N   UNL d   1      12.773  11.782  -3.774  0.00  0.00    -0.245 NA
ATOM      5  C   UNL d   1      12.806  11.875  -2.297  0.00  0.00     0.021 C 
ATOM      6  C   UNL d   1      13.142  12.162  -4.405  0.00  0.00     0.081 A 
ATOM      7  C   UNL d   1      13.658  12.741  -4.080  0.00  0.00     0.021 A 
ATOM      8  C   UNL d   1      13.086  12.069  -5.218  0.00  0.00     0.019 A 
ATOM      9  C   UNL d   1      14.106  13.213  -4.576  0.00  0.00     0.002 A 
ATOM     10  C   UNL d   1      14.048  13.117  -5.411  0.00  0.00     0.000 A 
ATOM     11  C   UNL d   1      13.553  12.562  -5.722  0.00  0.00     0.002 A 
ENDBRANCH   1   2
BRANCH   1  12
ATOM     12  N   UNL d   1      14.358  12.829  -2.020  0.00  0.00    -0.302 N 
ATOM     13  C   UNL d   1      13.987  12.887  -1.285  0.00  0.00     0.080 A 
ATOM     14  C   UNL d   1      14.340  12.543  -0.626  0.00  0.00     0.019 A 
ATOM     15  C   UNL d   1      15.059  12.144  -0.697  0.00  0.00     0.003 A 
ATOM     16  C   UNL d   1      15.432  12.085  -1.427  0.00  0.00     0.019 A 
ATOM     17  C   UNL d   1      15.413  11.798  -0.025  0.00  0.00     0.000 C 
ATOM     18  C   UNL d   1      15.078  12.429  -2.088  0.00  0.00     0.080 A 
ENDBRANCH   1  12
BRANCH   1  19
ATOM     19  C   UNL d   1      14.060  14.012  -2.814  0.00  0.00     0.098 A 
ATOM     20  N   UNL d   1      13.576  14.384  -3.367  0.00  0.00    -0.243 NA
ATOM     21  C   UNL d   1      13.623  15.193  -3.490  0.00  0.00     0.099 A 
ATOM     22  C   UNL d   1      14.162  15.635  -3.052  0.00  0.00     0.021 A 
ATOM     23  C   UNL d   1      14.648  15.266  -2.497  0.00  0.00     0.003 A 
ATOM     24  C   UNL d   1      14.607  14.441  -2.365  0.00  0.00     0.021 A 
ENDBRANCH   1  19
TORSDOF 3
ENDMDL
