MODEL 1
REMARK VINA RESULT:      10.3      0.000      0.000
REMARK  0 active torsions:
REMARK  status: ('A' for Active; 'I' for Inactive)
ROOT
ATOM      1  C   UNL d   1      43.727 -15.196  37.105  0.00  0.00     0.086 A 
ATOM      2  S   UNL d   1      44.315 -14.682  37.357  0.00  0.00    -0.081 SA
ATOM      3  C   UNL d   1      43.924 -15.829  36.583  0.00  0.00     0.090 A 
ATOM      4  N   UNL d   1      44.700 -15.923  36.334  0.00  0.00    -0.244 NA
ATOM      5  C   UNL d   1      45.091 -14.776  37.108  0.00  0.00     0.047 A 
ATOM      6  C   UNL d   1      45.283 -15.395  36.598  0.00  0.00     0.087 A 
ATOM      7  C   UNL d   1      42.933 -15.108  37.354  0.00  0.00     0.203 A 
ATOM      8  O   UNL d   1      42.737 -14.475  37.876  0.00  0.00    -0.286 OA
ATOM      9  C   UNL d   1      43.318 -16.349  36.331  0.00  0.00     0.020 A 
ATOM     10  C   UNL d   1      42.346 -15.622  37.102  0.00  0.00     0.043 A 
ATOM     11  C   UNL d   1      42.538 -16.241  36.591  0.00  0.00     0.005 A 
ATOM     12  C   UNL d   1      45.679 -14.262  37.361  0.00  0.00     0.008 A 
ATOM     13  C   UNL d   1      46.060 -15.492  36.346  0.00  0.00     0.020 A 
ATOM     14  C   UNL d   1      46.460 -14.372  37.098  0.00  0.00     0.001 A 
ATOM     15  C   UNL d   1      46.647 -14.975  36.601  0.00  0.00     0.002 A 
ENDROOT
TORSDOF 0
ENDMDL
MODEL 2
REMARK VINA RESULT:      11.3      1.155      1.497
REMARK  0 active torsions:
REMARK  status: ('A' for Active; 'I' for Inactive)
ROOT
ATOM      1  C   UNL d   1      44.094 -15.929  36.579  0.00  0.00     0.086 A 
ATOM      2  S   UNL d   1      44.907 -16.004  36.661  0.00  0.00    -0.081 SA
ATOM      3  C   UNL d   1      43.735 -15.169  36.661  0.00  0.00     0.090 A 
ATOM      4  N   UNL d   1      44.204 -14.515  36.823  0.00  0.00    -0.244 NA
ATOM      5  C   UNL d   1      45.375 -15.350  36.823  0.00  0.00     0.047 A 
ATOM      6  C   UNL d   1      45.024 -14.608  36.904  0.00  0.00     0.087 A 
ATOM      7  C   UNL d   1      43.609 -16.590  36.413  0.00  0.00     0.203 A 
ATOM      8  O   UNL d   1      43.967 -17.349  36.331  0.00  0.00    -0.286 OA
ATOM      9  C   UNL d   1      42.906 -15.102  36.576  0.00  0.00     0.020 A 
ATOM     10  C   UNL d   1      42.797 -16.515  36.331  0.00  0.00     0.043 A 
ATOM     11  C   UNL d   1      42.446 -15.773  36.412  0.00  0.00     0.005 A 
ATOM     12  C   UNL d   1      46.188 -15.425  36.906  0.00  0.00     0.008 A 
ATOM     13  C   UNL d   1      45.491 -13.950  37.067  0.00  0.00     0.020 A 
ATOM     14  C   UNL d   1      46.647 -14.751  37.070  0.00  0.00     0.001 A 
ATOM     15  C   UNL d   1      46.305 -14.029  37.149  0.00  0.00     0.002 A 
ENDROOT
TORSDOF 0
ENDMDL
