MODEL 1
REMARK VINA RESULT:      41.4      0.000      0.000
REMARK  5 active torsions:
REMARK  status: ('A' for Active; 'I' for Inactive)
REMARK    1  A    between atoms: C_4  and  C_1 
REMARK    2  A    between atoms: C_10  and  C_2 
REMARK    3  A    between atoms: C_8  and  C_4 
REMARK    4  A    between atoms: C_9  and  C_4 
REMARK    5  A    between atoms: N_5  and  C_9 
ROOT
ATOM      1  C   UNL d   1      14.467  13.469  -1.852  0.00  0.00     0.023 A 
ATOM      2  C   UNL d   1      14.149  13.728  -2.578  0.00  0.00     0.081 A 
ATOM      3  N   UNL d   1      14.231  14.540  -2.616  0.00  0.00    -0.246 NA
ATOM      4  C   UNL d   1      14.745  14.132  -1.448  0.00  0.00     0.019 A 
ATOM      5  C   UNL d   1      14.601  14.801  -1.916  0.00  0.00     0.081 A 
ATOM      6  C   UNL d   1      15.110  14.219  -0.714  0.00  0.00     0.002 A 
ATOM      7  C   UNL d   1      14.818  15.548  -1.659  0.00  0.00     0.019 A 
ATOM      8  C   UNL d   1      15.329  14.969  -0.453  0.00  0.00     0.000 A 
ATOM      9  C   UNL d   1      15.188  15.628  -0.915  0.00  0.00     0.002 A 
ENDROOT
BRANCH   1  10
ATOM     10  C   UNL d   1      14.501  12.687  -1.579  0.00  0.00     0.048 C 
BRANCH  10  11
ATOM     11  C   UNL d   1      13.936  12.403  -1.058  0.00  0.00     0.102 A 
ATOM     12  O   UNL d   1      13.116  12.520  -1.110  0.00  0.00    -0.305 OA
ATOM     13  C   UNL d   1      12.771  12.139  -0.472  0.00  0.00     0.123 A 
ATOM     14  C   UNL d   1      13.373  11.780  -0.016  0.00  0.00     0.029 A 
ATOM     15  C   UNL d   1      14.081  11.949  -0.385  0.00  0.00     0.027 A 
ENDBRANCH  10  11
BRANCH  10  16
ATOM     16  C   UNL d   1      15.115  12.191  -1.840  0.00  0.00     0.150 C 
BRANCH  16  17
ATOM     17  N   UNL d   1      15.751  12.035  -1.338  0.00  0.00    -0.112 N 
ATOM     18  O   UNL d   1      16.491  11.826  -1.641  0.00  0.00    -0.532 OA
ATOM     19  O   UNL d   1      15.659  12.087  -0.504  0.00  0.00    -0.532 OA
ENDBRANCH  16  17
ENDBRANCH  10  16
ENDBRANCH   1  10
BRANCH   2  20
ATOM     20  C   UNL d   1      13.810  13.245  -3.155  0.00  0.00     0.018 A 
ATOM     21  C   UNL d   1      13.350  13.578  -3.765  0.00  0.00     0.002 A 
ATOM     22  C   UNL d   1      13.010  13.099  -4.344  0.00  0.00     0.000 A 
ATOM     23  C   UNL d   1      13.125  12.281  -4.321  0.00  0.00     0.000 A 
ATOM     24  C   UNL d   1      13.582  11.940  -3.715  0.00  0.00     0.000 A 
ATOM     25  C   UNL d   1      12.786  11.804  -4.897  0.00  0.00     0.000 C 
ATOM     26  C   UNL d   1      13.922  12.431  -3.134  0.00  0.00     0.002 A 
ENDBRANCH   2  20
TORSDOF 5
ENDMDL
MODEL 2
REMARK VINA RESULT:      43.3      0.819      1.492
REMARK  5 active torsions:
REMARK  status: ('A' for Active; 'I' for Inactive)
REMARK    1  A    between atoms: C_4  and  C_1 
REMARK    2  A    between atoms: C_10  and  C_2 
REMARK    3  A    between atoms: C_8  and  C_4 
REMARK    4  A    between atoms: C_9  and  C_4 
REMARK    5  A    between atoms: N_5  and  C_9 
ROOT
ATOM      1  C   UNL d   1      14.351  13.571  -1.761  0.00  0.00     0.023 A 
ATOM      2  C   UNL d   1      14.069  13.798  -2.512  0.00  0.00     0.081 A 
ATOM      3  N   UNL d   1      14.168  14.606  -2.588  0.00  0.00    -0.246 NA
ATOM      4  C   UNL d   1      14.623  14.249  -1.378  0.00  0.00     0.019 A 
ATOM      5  C   UNL d   1      14.512  14.895  -1.886  0.00  0.00     0.081 A 
ATOM      6  C   UNL d   1      14.957  14.367  -0.635  0.00  0.00     0.002 A 
ATOM      7  C   UNL d   1      14.732  15.651  -1.658  0.00  0.00     0.019 A 
ATOM      8  C   UNL d   1      15.179  15.127  -0.403  0.00  0.00     0.000 A 
ATOM      9  C   UNL d   1      15.070  15.763  -0.903  0.00  0.00     0.002 A 
ENDROOT
BRANCH   1  10
ATOM     10  C   UNL d   1      14.359  12.803  -1.448  0.00  0.00     0.048 C 
BRANCH  10  11
ATOM     11  C   UNL d   1      15.066  12.401  -1.353  0.00  0.00     0.102 A 
ATOM     12  O   UNL d   1      15.581  12.161  -1.958  0.00  0.00    -0.305 OA
ATOM     13  C   UNL d   1      16.215  11.779  -1.606  0.00  0.00     0.123 A 
ATOM     14  C   UNL d   1      16.102  11.779  -0.777  0.00  0.00     0.029 A 
ATOM     15  C   UNL d   1      15.396  12.162  -0.635  0.00  0.00     0.027 A 
ENDBRANCH  10  11
BRANCH  10  16
ATOM     16  C   UNL d   1      13.641  12.444  -1.232  0.00  0.00     0.150 C 
BRANCH  16  17
ATOM     17  N   UNL d   1      13.513  12.238  -0.443  0.00  0.00    -0.112 N 
ATOM     18  O   UNL d   1      14.067  11.790  -0.025  0.00  0.00    -0.532 OA
ATOM     19  O   UNL d   1      12.812  12.481  -0.048  0.00  0.00    -0.532 OA
ENDBRANCH  16  17
ENDBRANCH  10  16
ENDBRANCH   1  10
BRANCH   2  20
ATOM     20  C   UNL d   1      13.747  13.292  -3.079  0.00  0.00     0.018 A 
ATOM     21  C   UNL d   1      13.656  13.547  -3.867  0.00  0.00     0.002 A 
ATOM     22  C   UNL d   1      13.334  13.044  -4.436  0.00  0.00     0.000 A 
ATOM     23  C   UNL d   1      13.099  12.280  -4.226  0.00  0.00     0.000 A 
ATOM     24  C   UNL d   1      13.186  12.018  -3.441  0.00  0.00     0.000 A 
ATOM     25  C   UNL d   1      12.779  11.780  -4.792  0.00  0.00     0.000 C 
ATOM     26  C   UNL d   1      13.512  12.532  -2.872  0.00  0.00     0.002 A 
ENDBRANCH   2  20
TORSDOF 5
ENDMDL
