MODEL 1
REMARK VINA RESULT:      85.9      0.000      0.000
REMARK  4 active torsions:
REMARK  status: ('A' for Active; 'I' for Inactive)
REMARK    1  A    between atoms: C_4  and  N_1 
REMARK    2  A    between atoms: S_8  and  C_5 
REMARK    3  A    between atoms: C_10  and  C_7 
REMARK    4  A    between atoms: C_9  and  S_8 
ROOT
ATOM      1  N   UNL d   1      59.941  48.844  50.843  0.00  0.00    -0.241 N 
ATOM      2  C   UNL d   1      59.793  49.331  51.487  0.00  0.00     0.268 A 
ATOM      3  C   UNL d   1      59.309  48.914  50.313  0.00  0.00     0.273 A 
ATOM      4  C   UNL d   1      58.772  49.446  50.634  0.00  0.00     0.091 A 
ATOM      5  C   UNL d   1      59.067  49.706  51.360  0.00  0.00     0.072 A 
ATOM      6  O   UNL d   1      60.281  49.430  52.146  0.00  0.00    -0.267 OA
ATOM      7  O   UNL d   1      59.233  48.520  49.593  0.00  0.00    -0.266 OA
ENDROOT
BRANCH   1   8
ATOM      8  C   UNL d   1      60.603  48.370  50.743  0.00  0.00     0.070 A 
ATOM      9  C   UNL d   1      60.560  47.553  50.880  0.00  0.00     0.016 A 
ATOM     10  C   UNL d   1      61.231  47.079  50.778  0.00  0.00     0.001 A 
ATOM     11  C   UNL d   1      59.848  47.221  51.116  0.00  0.00     0.001 A 
ATOM     12  C   UNL d   1      61.187  46.274  50.913  0.00  0.00     0.000 A 
ATOM     13  C   UNL d   1      61.940  47.415  50.542  0.00  0.00     0.000 A 
ATOM     14  C   UNL d   1      60.473  45.930  51.152  0.00  0.00     0.000 A 
ATOM     15  C   UNL d   1      59.803  46.409  51.252  0.00  0.00     0.000 A 
ATOM     16  C   UNL d   1      61.991  48.231  50.404  0.00  0.00     0.002 A 
ATOM     17  C   UNL d   1      61.322  48.705  50.505  0.00  0.00     0.018 A 
ENDBRANCH   1   8
BRANCH   4  18
ATOM     18  S   UNL d   1      58.054  49.683  50.291  0.00  0.00    -0.082 SA
BRANCH  18  19
ATOM     19  C   UNL d   1      57.399  49.565  50.770  0.00  0.00     0.035 A 
ATOM     20  C   UNL d   1      56.690  49.312  50.436  0.00  0.00     0.070 A 
ATOM     21  C   UNL d   1      56.033  49.195  50.920  0.00  0.00     0.007 A 
ATOM     22  C   UNL d   1      56.084  49.329  51.729  0.00  0.00     0.000 A 
ATOM     23  C   UNL d   1      56.793  49.582  52.057  0.00  0.00     0.001 A 
ATOM     24  C   UNL d   1      57.446  49.701  51.589  0.00  0.00     0.007 A 
BRANCH  20  25
ATOM     25  C   UNL d   1      56.641  49.177  49.625  0.00  0.00     0.211 C 
ATOM     26  O   UNL d   1      57.006  48.514  49.297  0.00  0.00    -0.644 OA
ATOM     27  O   UNL d   1      56.228  49.706  49.145  0.00  0.00    -0.644 OA
ENDBRANCH  20  25
ENDBRANCH  18  19
ENDBRANCH   4  18
TORSDOF 4
ENDMDL
