MODEL 1
REMARK VINA RESULT:      -1.7      0.000      0.000
REMARK  4 active torsions:
REMARK  status: ('A' for Active; 'I' for Inactive)
REMARK    1  A    between atoms: S_5  and  C_3 
REMARK    2  A    between atoms: C_13  and  S_5 
REMARK    3  A    between atoms: C_23  and  N_7 
REMARK    4  A    between atoms: C_29  and  C_23 
ROOT
ATOM      1  C   UNL d   1      32.868  20.732 -22.390  0.00  0.00     0.155 A 
ATOM      2  C   UNL d   1      33.007  20.348 -21.688  0.00  0.00     0.092 A 
ATOM      3  C   UNL d   1      32.970  21.578 -21.003  0.00  0.00     0.124 A 
ATOM      4  N   UNL d   1      32.817  20.305 -23.089  0.00  0.00    -0.210 NA
ATOM      5  N   UNL d   1      33.045  19.111 -22.371  0.00  0.00    -0.258 N 
ATOM      6  N   UNL d   1      32.780  21.535 -22.404  0.00  0.00    -0.273 N 
ATOM      7  C   UNL d   1      32.905  19.504 -23.079  0.00  0.00     0.152 A 
ATOM      8  C   UNL d   1      32.830  21.967 -21.713  0.00  0.00     0.181 A 
ATOM      9  C   UNL d   1      33.097  19.534 -21.675  0.00  0.00     0.269 A 
ATOM     10  C   UNL d   1      33.059  20.767 -20.993  0.00  0.00     0.022 A 
ATOM     11  C   UNL d   1      32.854  19.076 -23.778  0.00  0.00     0.035 A 
ATOM     12  C   UNL d   1      33.133  18.295 -22.370  0.00  0.00     0.084 A 
ATOM     13  N   UNL d   1      32.739  22.788 -21.732  0.00  0.00    -0.128 N 
ATOM     14  O   UNL d   1      33.239  19.137 -20.959  0.00  0.00    -0.266 OA
ATOM     15  C   UNL d   1      33.082  17.874 -23.065  0.00  0.00     0.019 A 
ATOM     16  C   UNL d   1      32.941  18.267 -23.773  0.00  0.00     0.005 A 
ATOM     17  C   UNL d   1      32.711  19.473 -24.494  0.00  0.00     0.003 C 
ENDROOT
BRANCH   3  18
ATOM     18  S   UNL d   1      33.021  22.009 -20.301  0.00  0.00     0.213 S 
ATOM     19  O   UNL d   1      33.158  22.710 -20.729  0.00  0.00    -0.217 OA
ATOM     20  O   UNL d   1      32.887  21.321 -19.868  0.00  0.00    -0.217 OA
BRANCH  18  21
ATOM     21  C   UNL d   1      33.071  22.435 -19.589  0.00  0.00     0.088 A 
ATOM     22  C   UNL d   1      33.002  23.257 -19.591  0.00  0.00     0.014 A 
ATOM     23  C   UNL d   1      33.052  23.682 -18.877  0.00  0.00     0.030 A 
ATOM     24  C   UNL d   1      33.171  23.282 -18.165  0.00  0.00     0.140 A 
ATOM     25  C   UNL d   1      33.240  22.447 -18.169  0.00  0.00     0.030 A 
ATOM     26  F   UNL d   1      33.222  23.697 -17.452  0.00  0.00    -0.204 F 
ATOM     27  C   UNL d   1      33.190  22.026 -18.880  0.00  0.00     0.014 A 
ENDBRANCH  18  21
ENDBRANCH   3  18
BRANCH   6  28
ATOM     28  C   UNL d   1      32.637  21.930 -23.126  0.00  0.00     0.083 C 
BRANCH  28  29
ATOM     29  C   UNL d   1      33.113  22.580 -23.340  0.00  0.00     0.019 C 
ATOM     30  C   UNL d   1      33.117  22.859 -24.124  0.00  0.00     0.002 C 
ENDBRANCH  28  29
ENDBRANCH   6  28
TORSDOF 4
ENDMDL
MODEL 2
REMARK VINA RESULT:      -1.7      2.135      4.673
REMARK  4 active torsions:
REMARK  status: ('A' for Active; 'I' for Inactive)
REMARK    1  A    between atoms: S_5  and  C_3 
REMARK    2  A    between atoms: C_13  and  S_5 
REMARK    3  A    between atoms: C_23  and  N_7 
REMARK    4  A    between atoms: C_29  and  C_23 
ROOT
ATOM      1  C   UNL d   1      33.207  21.666 -21.411  0.00  0.00     0.155 A 
ATOM      2  C   UNL d   1      33.204  20.932 -21.062  0.00  0.00     0.092 A 
ATOM      3  C   UNL d   1      33.188  20.324 -22.333  0.00  0.00     0.124 A 
ATOM      4  N   UNL d   1      33.217  22.341 -20.945  0.00  0.00    -0.210 NA
ATOM      5  N   UNL d   1      33.220  21.538 -19.785  0.00  0.00    -0.258 N 
ATOM      6  N   UNL d   1      33.201  21.734 -22.216  0.00  0.00    -0.273 N 
ATOM      7  C   UNL d   1      33.223  22.278 -20.142  0.00  0.00     0.152 A 
ATOM      8  C   UNL d   1      33.191  21.066 -22.686  0.00  0.00     0.181 A 
ATOM      9  C   UNL d   1      33.211  20.864 -20.247  0.00  0.00     0.269 A 
ATOM     10  C   UNL d   1      33.195  20.260 -21.520  0.00  0.00     0.022 A 
ATOM     11  C   UNL d   1      33.233  22.954 -19.676  0.00  0.00     0.035 A 
ATOM     12  C   UNL d   1      33.227  21.482 -18.966  0.00  0.00     0.084 A 
ATOM     13  N   UNL d   1      33.185  21.140 -23.509  0.00  0.00    -0.128 N 
ATOM     14  O   UNL d   1      33.208  20.116 -19.886  0.00  0.00    -0.266 OA
ATOM     15  C   UNL d   1      33.236  22.154 -18.507  0.00  0.00     0.019 A 
ATOM     16  C   UNL d   1      33.239  22.894 -18.865  0.00  0.00     0.005 A 
ATOM     17  C   UNL d   1      33.235  23.702 -20.037  0.00  0.00     0.003 C 
ENDROOT
BRANCH   3  18
ATOM     18  S   UNL d   1      33.179  19.646 -22.802  0.00  0.00     0.213 S 
ATOM     19  O   UNL d   1      33.198  20.111 -23.493  0.00  0.00    -0.217 OA
ATOM     20  O   UNL d   1      33.159  19.177 -22.125  0.00  0.00    -0.217 OA
BRANCH  18  21
ATOM     21  C   UNL d   1      33.169  18.956 -23.267  0.00  0.00     0.088 A 
ATOM     22  C   UNL d   1      33.095  18.216 -22.910  0.00  0.00     0.014 A 
ATOM     23  C   UNL d   1      33.085  17.527 -23.376  0.00  0.00     0.030 A 
ATOM     24  C   UNL d   1      33.149  17.582 -24.197  0.00  0.00     0.140 A 
ATOM     25  C   UNL d   1      33.224  18.336 -24.554  0.00  0.00     0.030 A 
ATOM     26  F   UNL d   1      33.141  16.902 -24.667  0.00  0.00    -0.204 F 
ATOM     27  C   UNL d   1      33.233  19.020 -24.089  0.00  0.00     0.014 A 
ENDBRANCH  18  21
ENDBRANCH   3  18
BRANCH   6  28
ATOM     28  C   UNL d   1      33.204  22.488 -22.574  0.00  0.00     0.083 C 
BRANCH  28  29
ATOM     29  C   UNL d   1      32.505  22.782 -22.921  0.00  0.00     0.019 C 
ATOM     30  C   UNL d   1      32.532  23.435 -23.435  0.00  0.00     0.002 C 
ENDBRANCH  28  29
ENDBRANCH   6  28
TORSDOF 4
ENDMDL
MODEL 3
REMARK VINA RESULT:      -0.6      1.162      2.496
REMARK  4 active torsions:
REMARK  status: ('A' for Active; 'I' for Inactive)
REMARK    1  A    between atoms: S_5  and  C_3 
REMARK    2  A    between atoms: C_13  and  S_5 
REMARK    3  A    between atoms: C_23  and  N_7 
REMARK    4  A    between atoms: C_29  and  C_23 
ROOT
ATOM      1  C   UNL d   1      33.069  21.411 -22.287  0.00  0.00     0.155 A 
ATOM      2  C   UNL d   1      32.992  22.215 -22.196  0.00  0.00     0.092 A 
ATOM      3  C   UNL d   1      32.957  22.056 -20.796  0.00  0.00     0.124 A 
ATOM      4  N   UNL d   1      33.125  21.087 -23.039  0.00  0.00    -0.210 NA
ATOM      5  N   UNL d   1      33.026  22.379 -23.600  0.00  0.00    -0.258 N 
ATOM      6  N   UNL d   1      33.091  20.928 -21.640  0.00  0.00    -0.273 N 
ATOM      7  C   UNL d   1      33.104  21.565 -23.688  0.00  0.00     0.152 A 
ATOM      8  C   UNL d   1      33.035  21.243 -20.889  0.00  0.00     0.181 A 
ATOM      9  C   UNL d   1      32.970  22.703 -22.852  0.00  0.00     0.269 A 
ATOM     10  C   UNL d   1      32.936  22.540 -21.453  0.00  0.00     0.022 A 
ATOM     11  C   UNL d   1      33.160  21.241 -24.439  0.00  0.00     0.035 A 
ATOM     12  C   UNL d   1      33.005  22.858 -24.265  0.00  0.00     0.084 A 
ATOM     13  N   UNL d   1      33.058  20.746 -20.230  0.00  0.00    -0.128 N 
ATOM     14  O   UNL d   1      32.891  23.525 -22.764  0.00  0.00    -0.266 OA
ATOM     15  C   UNL d   1      33.061  22.534 -25.009  0.00  0.00     0.019 A 
ATOM     16  C   UNL d   1      33.139  21.720 -25.097  0.00  0.00     0.005 A 
ATOM     17  C   UNL d   1      33.239  20.419 -24.528  0.00  0.00     0.003 C 
ENDROOT
BRANCH   3  18
ATOM     18  S   UNL d   1      32.901  22.380 -20.040  0.00  0.00     0.213 S 
ATOM     19  O   UNL d   1      33.233  23.094 -20.311  0.00  0.00    -0.217 OA
ATOM     20  O   UNL d   1      32.571  21.678 -19.763  0.00  0.00    -0.217 OA
BRANCH  18  21
ATOM     21  C   UNL d   1      32.840  22.699 -19.275  0.00  0.00     0.088 A 
ATOM     22  C   UNL d   1      32.400  23.384 -19.144  0.00  0.00     0.014 A 
ATOM     23  C   UNL d   1      32.340  23.702 -18.378  0.00  0.00     0.030 A 
ATOM     24  C   UNL d   1      32.721  23.332 -17.745  0.00  0.00     0.140 A 
ATOM     25  C   UNL d   1      33.166  22.637 -17.884  0.00  0.00     0.030 A 
ATOM     26  F   UNL d   1      32.666  23.642 -16.981  0.00  0.00    -0.204 F 
ATOM     27  C   UNL d   1      33.224  22.322 -18.647  0.00  0.00     0.014 A 
ENDBRANCH  18  21
ENDBRANCH   3  18
BRANCH   6  28
ATOM     28  C   UNL d   1      33.170  20.102 -21.734  0.00  0.00     0.083 C 
BRANCH  28  29
ATOM     29  C   UNL d   1      32.956  19.594 -21.109  0.00  0.00     0.019 C 
ATOM     30  C   UNL d   1      33.145  18.785 -21.140  0.00  0.00     0.002 C 
ENDBRANCH  28  29
ENDBRANCH   6  28
TORSDOF 4
ENDMDL
