MODEL 1
REMARK VINA RESULT:      -3.3      0.000      0.000
REMARK  3 active torsions:
REMARK  status: ('A' for Active; 'I' for Inactive)
REMARK    1  A    between atoms: N_3  and  S_1 
REMARK    2  A    between atoms: C_10  and  S_1 
REMARK    3  A    between atoms: C_2  and  N_3 
ROOT
ATOM      1  N   UNL d   1      33.045  21.095 -21.738  0.00  0.00     0.034 NA
ENDROOT
BRANCH   1   2
ATOM      2  C   UNL d   1      33.083  20.395 -22.171  0.00  0.00     0.760 A 
ATOM      3  N   UNL d   1      33.158  19.628 -21.873  0.00  0.00    -0.057 NA
ATOM      4  C   UNL d   1      33.175  19.106 -22.485  0.00  0.00     0.118 A 
ATOM      5  C   UNL d   1      33.240  18.284 -22.509  0.00  0.00     0.021 A 
ATOM      6  C   UNL d   1      33.110  19.535 -23.186  0.00  0.00     0.118 A 
ATOM      7  C   UNL d   1      33.240  17.914 -23.221  0.00  0.00     0.002 A 
ATOM      8  C   UNL d   1      33.176  18.344 -23.922  0.00  0.00     0.002 A 
ATOM      9  C   UNL d   1      33.111  19.143 -23.911  0.00  0.00     0.021 A 
ATOM     10  N   UNL d   1      33.055  20.316 -22.996  0.00  0.00    -0.057 NA
ENDBRANCH   1   2
BRANCH   1  11
ATOM     11  S   UNL d   1      32.384  21.254 -21.268  0.00  0.00     0.300 S 
ATOM     12  O   UNL d   1      31.721  21.412 -20.797  0.00  0.00    -0.198 OA
ATOM     13  O   UNL d   1      32.108  20.488 -21.398  0.00  0.00    -0.198 OA
BRANCH  11  14
ATOM     14  C   UNL d   1      32.661  22.022 -21.139  0.00  0.00     0.106 A 
ATOM     15  C   UNL d   1      32.628  22.579 -21.746  0.00  0.00     0.013 A 
ATOM     16  C   UNL d   1      32.906  23.348 -21.617  0.00  0.00     0.001 A 
ATOM     17  C   UNL d   1      33.215  23.556 -20.882  0.00  0.00     0.000 A 
ATOM     18  C   UNL d   1      33.237  22.988 -20.300  0.00  0.00     0.001 A 
ATOM     19  C   UNL d   1      32.971  22.230 -20.403  0.00  0.00     0.013 A 
ENDBRANCH  11  14
ENDBRANCH   1  11
TORSDOF 3
ENDMDL
MODEL 2
REMARK VINA RESULT:      -3.2      4.005      5.781
REMARK  3 active torsions:
REMARK  status: ('A' for Active; 'I' for Inactive)
REMARK    1  A    between atoms: N_3  and  S_1 
REMARK    2  A    between atoms: C_10  and  S_1 
REMARK    3  A    between atoms: C_2  and  N_3 
ROOT
ATOM      1  N   UNL d   1      30.288  17.078 -24.353  0.00  0.00     0.034 NA
ENDROOT
BRANCH   1   2
ATOM      2  C   UNL d   1      30.971  17.539 -24.337  0.00  0.00     0.760 A 
ATOM      3  N   UNL d   1      31.478  17.657 -23.696  0.00  0.00    -0.057 NA
ATOM      4  C   UNL d   1      32.078  18.145 -23.918  0.00  0.00     0.118 A 
ATOM      5  C   UNL d   1      32.729  18.444 -23.509  0.00  0.00     0.021 A 
ATOM      6  C   UNL d   1      31.961  18.346 -24.710  0.00  0.00     0.118 A 
ATOM      7  C   UNL d   1      33.241  18.928 -23.892  0.00  0.00     0.002 A 
ATOM      8  C   UNL d   1      33.124  19.129 -24.684  0.00  0.00     0.002 A 
ATOM      9  C   UNL d   1      32.495  18.845 -25.092  0.00  0.00     0.021 A 
ATOM     10  N   UNL d   1      31.290  17.979 -24.964  0.00  0.00    -0.057 NA
ENDBRANCH   1   2
BRANCH   1  11
ATOM     11  S   UNL d   1      30.336  16.273 -24.530  0.00  0.00     0.300 S 
ATOM     12  O   UNL d   1      30.387  15.466 -24.710  0.00  0.00    -0.198 OA
ATOM     13  O   UNL d   1      31.028  16.410 -24.958  0.00  0.00    -0.198 OA
BRANCH  11  14
ATOM     14  C   UNL d   1      29.643  16.137 -24.101  0.00  0.00     0.106 A 
ATOM     15  C   UNL d   1      29.671  15.700 -23.402  0.00  0.00     0.013 A 
ATOM     16  C   UNL d   1      28.978  15.564 -22.972  0.00  0.00     0.001 A 
ATOM     17  C   UNL d   1      28.259  15.864 -23.242  0.00  0.00     0.000 A 
ATOM     18  C   UNL d   1      28.259  16.291 -23.934  0.00  0.00     0.001 A 
ATOM     19  C   UNL d   1      28.925  16.438 -24.372  0.00  0.00     0.013 A 
ENDBRANCH  11  14
ENDBRANCH   1  11
TORSDOF 3
ENDMDL
MODEL 3
REMARK VINA RESULT:      -2.9      1.030      1.334
REMARK  3 active torsions:
REMARK  status: ('A' for Active; 'I' for Inactive)
REMARK    1  A    between atoms: N_3  and  S_1 
REMARK    2  A    between atoms: C_10  and  S_1 
REMARK    3  A    between atoms: C_2  and  N_3 
ROOT
ATOM      1  N   UNL d   1      32.823  20.245 -22.317  0.00  0.00     0.034 NA
ENDROOT
BRANCH   1   2
ATOM      2  C   UNL d   1      32.802  19.595 -22.823  0.00  0.00     0.760 A 
ATOM      3  N   UNL d   1      32.413  18.878 -22.699  0.00  0.00    -0.057 NA
ATOM      4  C   UNL d   1      32.534  18.395 -23.331  0.00  0.00     0.118 A 
ATOM      5  C   UNL d   1      32.280  17.628 -23.499  0.00  0.00     0.021 A 
ATOM      6  C   UNL d   1      33.007  18.801 -23.871  0.00  0.00     0.118 A 
ATOM      7  C   UNL d   1      32.499  17.289 -24.192  0.00  0.00     0.002 A 
ATOM      8  C   UNL d   1      32.972  17.695 -24.732  0.00  0.00     0.002 A 
ATOM      9  C   UNL d   1      33.225  18.441 -24.580  0.00  0.00     0.021 A 
ATOM     10  N   UNL d   1      33.170  19.528 -23.564  0.00  0.00    -0.057 NA
ENDBRANCH   1   2
BRANCH   1  11
ATOM     11  S   UNL d   1      33.006  20.141 -21.518  0.00  0.00     0.300 S 
ATOM     12  O   UNL d   1      33.190  20.033 -20.718  0.00  0.00    -0.198 OA
ATOM     13  O   UNL d   1      33.235  19.363 -21.673  0.00  0.00    -0.198 OA
BRANCH  11  14
ATOM     14  C   UNL d   1      32.777  20.919 -21.364  0.00  0.00     0.106 A 
ATOM     15  C   UNL d   1      33.224  21.546 -21.659  0.00  0.00     0.013 A 
ATOM     16  C   UNL d   1      32.995  22.326 -21.505  0.00  0.00     0.001 A 
ATOM     17  C   UNL d   1      32.319  22.476 -21.057  0.00  0.00     0.000 A 
ATOM     18  C   UNL d   1      31.896  21.840 -20.778  0.00  0.00     0.001 A 
ATOM     19  C   UNL d   1      32.101  21.069 -20.916  0.00  0.00     0.013 A 
ENDBRANCH  11  14
ENDBRANCH   1  11
TORSDOF 3
ENDMDL
MODEL 4
REMARK VINA RESULT:      -2.6      1.112      4.051
REMARK  3 active torsions:
REMARK  status: ('A' for Active; 'I' for Inactive)
REMARK    1  A    between atoms: N_3  and  S_1 
REMARK    2  A    between atoms: C_10  and  S_1 
REMARK    3  A    between atoms: C_2  and  N_3 
ROOT
ATOM      1  N   UNL d   1      32.934  19.948 -22.750  0.00  0.00     0.034 NA
ENDROOT
BRANCH   1   2
ATOM      2  C   UNL d   1      32.837  20.585 -22.237  0.00  0.00     0.760 A 
ATOM      3  N   UNL d   1      33.192  21.328 -22.292  0.00  0.00    -0.057 NA
ATOM      4  C   UNL d   1      32.947  21.787 -21.677  0.00  0.00     0.118 A 
ATOM      5  C   UNL d   1      33.122  22.563 -21.462  0.00  0.00     0.021 A 
ATOM      6  C   UNL d   1      32.429  21.338 -21.218  0.00  0.00     0.118 A 
ATOM      7  C   UNL d   1      32.782  22.871 -20.803  0.00  0.00     0.002 A 
ATOM      8  C   UNL d   1      32.264  22.422 -20.344  0.00  0.00     0.002 A 
ATOM      9  C   UNL d   1      32.086  21.666 -20.544  0.00  0.00     0.021 A 
ATOM     10  N   UNL d   1      32.362  20.610 -21.557  0.00  0.00    -0.057 NA
ENDBRANCH   1   2
BRANCH   1  11
ATOM     11  S   UNL d   1      33.069  19.191 -22.449  0.00  0.00     0.300 S 
ATOM     12  O   UNL d   1      33.206  18.433 -22.144  0.00  0.00    -0.198 OA
ATOM     13  O   UNL d   1      33.241  19.517 -21.710  0.00  0.00    -0.198 OA
BRANCH  11  14
ATOM     14  C   UNL d   1      32.897  18.866 -23.188  0.00  0.00     0.106 A 
ATOM     15  C   UNL d   1      33.225  19.196 -23.869  0.00  0.00     0.013 A 
ATOM     16  C   UNL d   1      33.053  18.871 -24.610  0.00  0.00     0.001 A 
ATOM     17  C   UNL d   1      32.554  18.216 -24.667  0.00  0.00     0.000 A 
ATOM     18  C   UNL d   1      32.245  17.909 -23.981  0.00  0.00     0.001 A 
ATOM     19  C   UNL d   1      32.399  18.211 -23.245  0.00  0.00     0.013 A 
ENDBRANCH  11  14
ENDBRANCH   1  11
TORSDOF 3
ENDMDL
MODEL 5
REMARK VINA RESULT:      -2.6      2.130      4.753
REMARK  3 active torsions:
REMARK  status: ('A' for Active; 'I' for Inactive)
REMARK    1  A    between atoms: N_3  and  S_1 
REMARK    2  A    between atoms: C_10  and  S_1 
REMARK    3  A    between atoms: C_2  and  N_3 
ROOT
ATOM      1  N   UNL d   1      32.851  18.148 -23.849  0.00  0.00     0.034 NA
ENDROOT
BRANCH   1   2
ATOM      2  C   UNL d   1      32.926  18.815 -23.371  0.00  0.00     0.760 A 
ATOM      3  N   UNL d   1      32.867  18.848 -22.548  0.00  0.00    -0.057 NA
ATOM      4  C   UNL d   1      32.977  19.607 -22.303  0.00  0.00     0.118 A 
ATOM      5  C   UNL d   1      32.976  19.952 -21.554  0.00  0.00     0.021 A 
ATOM      6  C   UNL d   1      33.109  20.071 -22.972  0.00  0.00     0.118 A 
ATOM      7  C   UNL d   1      33.106  20.741 -21.490  0.00  0.00     0.002 A 
ATOM      8  C   UNL d   1      33.238  21.206 -22.159  0.00  0.00     0.002 A 
ATOM      9  C   UNL d   1      33.241  20.881 -22.892  0.00  0.00     0.021 A 
ATOM     10  N   UNL d   1      33.078  19.592 -23.619  0.00  0.00    -0.057 NA
ENDBRANCH   1   2
BRANCH   1  11
ATOM     11  S   UNL d   1      32.116  17.953 -24.172  0.00  0.00     0.300 S 
ATOM     12  O   UNL d   1      31.378  17.759 -24.495  0.00  0.00    -0.198 OA
ATOM     13  O   UNL d   1      31.866  18.733 -24.074  0.00  0.00    -0.198 OA
BRANCH  11  14
ATOM     14  C   UNL d   1      32.367  17.172 -24.269  0.00  0.00     0.106 A 
ATOM     15  C   UNL d   1      32.972  16.997 -24.801  0.00  0.00     0.013 A 
ATOM     16  C   UNL d   1      33.224  16.215 -24.900  0.00  0.00     0.001 A 
ATOM     17  C   UNL d   1      32.869  15.611 -24.465  0.00  0.00     0.000 A 
ATOM     18  C   UNL d   1      32.275  15.809 -23.947  0.00  0.00     0.001 A 
ATOM     19  C   UNL d   1      32.012  16.567 -23.834  0.00  0.00     0.013 A 
ENDBRANCH  11  14
ENDBRANCH   1  11
TORSDOF 3
ENDMDL
MODEL 6
REMARK VINA RESULT:      -2.3      3.084      5.395
REMARK  3 active torsions:
REMARK  status: ('A' for Active; 'I' for Inactive)
REMARK    1  A    between atoms: N_3  and  S_1 
REMARK    2  A    between atoms: C_10  and  S_1 
REMARK    3  A    between atoms: C_2  and  N_3 
ROOT
ATOM      1  N   UNL d   1      31.845  17.123 -24.091  0.00  0.00     0.034 NA
ENDROOT
BRANCH   1   2
ATOM      2  C   UNL d   1      32.174  17.830 -23.826  0.00  0.00     0.760 A 
ATOM      3  N   UNL d   1      32.378  18.488 -24.283  0.00  0.00    -0.057 NA
ATOM      4  C   UNL d   1      32.682  19.060 -23.806  0.00  0.00     0.118 A 
ATOM      5  C   UNL d   1      32.969  19.817 -23.964  0.00  0.00     0.021 A 
ATOM      6  C   UNL d   1      32.676  18.773 -23.033  0.00  0.00     0.118 A 
ATOM      7  C   UNL d   1      33.241  20.264 -23.355  0.00  0.00     0.002 A 
ATOM      8  C   UNL d   1      33.235  19.977 -22.582  0.00  0.00     0.002 A 
ATOM      9  C   UNL d   1      32.958  19.243 -22.417  0.00  0.00     0.021 A 
ATOM     10  N   UNL d   1      32.369  18.028 -23.044  0.00  0.00    -0.057 NA
ENDBRANCH   1   2
BRANCH   1  11
ATOM     11  S   UNL d   1      32.051  16.410 -23.728  0.00  0.00     0.300 S 
ATOM     12  O   UNL d   1      32.260  15.696 -23.363  0.00  0.00    -0.198 OA
ATOM     13  O   UNL d   1      32.793  16.720 -23.542  0.00  0.00    -0.198 OA
BRANCH  11  14
ATOM     14  C   UNL d   1      31.309  16.101 -23.915  0.00  0.00     0.106 A 
ATOM     15  C   UNL d   1      30.770  15.931 -23.314  0.00  0.00     0.013 A 
ATOM     16  C   UNL d   1      30.026  15.621 -23.500  0.00  0.00     0.001 A 
ATOM     17  C   UNL d   1      29.824  15.481 -24.288  0.00  0.00     0.000 A 
ATOM     18  C   UNL d   1      30.372  15.657 -24.861  0.00  0.00     0.001 A 
ATOM     19  C   UNL d   1      31.106  15.961 -24.703  0.00  0.00     0.013 A 
ENDBRANCH  11  14
ENDBRANCH   1  11
TORSDOF 3
ENDMDL
MODEL 7
REMARK VINA RESULT:      -2.0      2.194      4.608
REMARK  3 active torsions:
REMARK  status: ('A' for Active; 'I' for Inactive)
REMARK    1  A    between atoms: N_3  and  S_1 
REMARK    2  A    between atoms: C_10  and  S_1 
REMARK    3  A    between atoms: C_2  and  N_3 
ROOT
ATOM      1  N   UNL d   1      32.987  22.313 -20.177  0.00  0.00     0.034 NA
ENDROOT
BRANCH   1   2
ATOM      2  C   UNL d   1      33.039  22.485 -19.373  0.00  0.00     0.760 A 
ATOM      3  N   UNL d   1      33.114  21.946 -18.752  0.00  0.00    -0.057 NA
ATOM      4  C   UNL d   1      33.147  22.345 -18.054  0.00  0.00     0.118 A 
ATOM      5  C   UNL d   1      33.220  22.091 -17.273  0.00  0.00     0.021 A 
ATOM      6  C   UNL d   1      33.093  23.151 -18.223  0.00  0.00     0.118 A 
ATOM      7  C   UNL d   1      33.237  22.637 -16.686  0.00  0.00     0.002 A 
ATOM      8  C   UNL d   1      33.183  23.443 -16.854  0.00  0.00     0.002 A 
ATOM      9  C   UNL d   1      33.112  23.702 -17.610  0.00  0.00     0.021 A 
ATOM     10  N   UNL d   1      33.028  23.236 -19.021  0.00  0.00    -0.057 NA
ENDBRANCH   1   2
BRANCH   1  11
ATOM     11  S   UNL d   1      32.388  22.652 -20.633  0.00  0.00     0.300 S 
ATOM     12  O   UNL d   1      31.786  22.994 -21.089  0.00  0.00    -0.198 OA
ATOM     13  O   UNL d   1      32.105  23.048 -19.967  0.00  0.00    -0.198 OA
BRANCH  11  14
ATOM     14  C   UNL d   1      32.671  22.256 -21.300  0.00  0.00     0.106 A 
ATOM     15  C   UNL d   1      32.743  21.434 -21.290  0.00  0.00     0.013 A 
ATOM     16  C   UNL d   1      33.027  21.036 -21.958  0.00  0.00     0.001 A 
ATOM     17  C   UNL d   1      33.237  21.462 -22.633  0.00  0.00     0.000 A 
ATOM     18  C   UNL d   1      33.156  22.270 -22.617  0.00  0.00     0.001 A 
ATOM     19  C   UNL d   1      32.881  22.681 -21.975  0.00  0.00     0.013 A 
ENDBRANCH  11  14
ENDBRANCH   1  11
TORSDOF 3
ENDMDL
