MODEL 1
REMARK VINA RESULT:      -1.2      0.000      0.000
REMARK  3 active torsions:
REMARK  status: ('A' for Active; 'I' for Inactive)
REMARK       I    between atoms: C_3  and  N_1 
REMARK    1  A    between atoms: C_5  and  C_3 
REMARK    2  A    between atoms: C_9  and  C_4 
REMARK    3  A    between atoms: C_14  and  C_6 
ROOT
ATOM      1  N   UNL d   1      58.700  -0.731  30.201  0.00  0.00    -0.193 N 
ATOM      2  N   UNL d   1      59.067  -1.290  29.703  0.00  0.00    -0.162 NA
ATOM      3  C   UNL d   1      59.027   0.001  30.379  0.00  0.00     0.303 C 
ATOM      4  C   UNL d   1      58.568  -1.952  29.662  0.00  0.00     0.109 A 
ATOM      5  C   UNL d   1      57.983  -1.065  30.453  0.00  0.00     0.088 A 
ATOM      6  C   UNL d   1      57.898  -1.812  30.125  0.00  0.00     0.041 A 
ATOM      7  O   UNL d   1      58.628   0.544  30.887  0.00  0.00    -0.263 OA
ENDROOT
BRANCH   3   8
ATOM      8  C   UNL d   1      59.731   0.229  30.081  0.00  0.00     0.158 A 
ATOM      9  O   UNL d   1      59.929   0.264  29.270  0.00  0.00    -0.296 OA
ATOM     10  C   UNL d   1      60.707   0.526  29.210  0.00  0.00     0.134 A 
ATOM     11 BR   UNL d   1      61.133   0.641  28.482  0.00  0.00    -0.022 Br
ATOM     12  C   UNL d   1      60.984   0.651  29.958  0.00  0.00     0.034 A 
ATOM     13  C   UNL d   1      60.401   0.474  30.494  0.00  0.00     0.032 A 
ENDBRANCH   3   8
BRANCH   5  14
ATOM     14  C   UNL d   1      57.727  -0.883  30.695  0.00  0.00     0.018 A 
ATOM     15  C   UNL d   1      57.242  -0.256  30.464  0.00  0.00     0.002 A 
ATOM     16  C   UNL d   1      56.741   0.068  31.018  0.00  0.00     0.000 A 
ATOM     17  C   UNL d   1      56.695  -0.194  31.785  0.00  0.00     0.000 A 
ATOM     18  C   UNL d   1      57.179  -0.821  32.015  0.00  0.00     0.000 A 
ATOM     19  C   UNL d   1      56.194   0.130  32.337  0.00  0.00     0.000 C 
ATOM     20  C   UNL d   1      57.695  -1.165  31.472  0.00  0.00     0.002 A 
ENDBRANCH   5  14
BRANCH   4  21
ATOM     21  C   UNL d   1      58.705  -2.644  29.232  0.00  0.00     0.049 A 
ATOM     22  S   UNL d   1      59.433  -2.999  29.185  0.00  0.00    -0.085 SA
ATOM     23  C   UNL d   1      59.324  -3.679  28.699  0.00  0.00     0.035 A 
ATOM     24  C   UNL d   1      58.535  -3.723  28.461  0.00  0.00     0.007 A 
ATOM     25  C   UNL d   1      58.167  -3.070  28.804  0.00  0.00     0.009 A 
ENDBRANCH   4  21
TORSDOF 3
ENDMDL
MODEL 2
REMARK VINA RESULT:       1.1      1.547      3.157
REMARK  3 active torsions:
REMARK  status: ('A' for Active; 'I' for Inactive)
REMARK       I    between atoms: C_3  and  N_1 
REMARK    1  A    between atoms: C_5  and  C_3 
REMARK    2  A    between atoms: C_9  and  C_4 
REMARK    3  A    between atoms: C_14  and  C_6 
ROOT
ATOM      1  N   UNL d   1      58.548  -1.293  29.667  0.00  0.00    -0.193 N 
ATOM      2  N   UNL d   1      58.133  -2.016  29.636  0.00  0.00    -0.162 NA
ATOM      3  C   UNL d   1      58.364  -0.687  30.189  0.00  0.00     0.303 C 
ATOM      4  C   UNL d   1      58.483  -2.480  29.043  0.00  0.00     0.109 A 
ATOM      5  C   UNL d   1      59.144  -1.332  29.090  0.00  0.00     0.088 A 
ATOM      6  C   UNL d   1      59.108  -2.056  28.706  0.00  0.00     0.041 A 
ATOM      7  O   UNL d   1      58.805   0.032  30.193  0.00  0.00    -0.263 OA
ENDROOT
BRANCH   3   8
ATOM      8  C   UNL d   1      57.763  -0.751  30.710  0.00  0.00     0.158 A 
ATOM      9  O   UNL d   1      57.324  -0.116  31.028  0.00  0.00    -0.296 OA
ATOM     10  C   UNL d   1      56.760  -0.428  31.541  0.00  0.00     0.134 A 
ATOM     11 BR   UNL d   1      56.194   0.024  31.985  0.00  0.00    -0.022 Br
ATOM     12  C   UNL d   1      56.847  -1.232  31.542  0.00  0.00     0.034 A 
ATOM     13  C   UNL d   1      57.451  -1.438  31.042  0.00  0.00     0.032 A 
ENDBRANCH   3   8
BRANCH   5  14
ATOM     14  C   UNL d   1      59.402  -1.040  29.019  0.00  0.00     0.018 A 
ATOM     15  C   UNL d   1      59.232  -0.378  28.557  0.00  0.00     0.002 A 
ATOM     16  C   UNL d   1      59.814   0.182  28.456  0.00  0.00     0.000 A 
ATOM     17  C   UNL d   1      60.553   0.122  28.786  0.00  0.00     0.000 A 
ATOM     18  C   UNL d   1      60.723  -0.540  29.248  0.00  0.00     0.000 A 
ATOM     19  C   UNL d   1      61.133   0.682  28.684  0.00  0.00     0.000 C 
ATOM     20  C   UNL d   1      60.150  -1.121  29.365  0.00  0.00     0.002 A 
ENDBRANCH   5  14
BRANCH   4  21
ATOM     21  C   UNL d   1      58.255  -3.240  28.815  0.00  0.00     0.049 A 
ATOM     22  S   UNL d   1      58.783  -3.845  28.704  0.00  0.00    -0.085 SA
ATOM     23  C   UNL d   1      58.321  -4.513  28.479  0.00  0.00     0.035 A 
ATOM     24  C   UNL d   1      57.525  -4.301  28.457  0.00  0.00     0.007 A 
ATOM     25  C   UNL d   1      57.505  -3.505  28.670  0.00  0.00     0.009 A 
ENDBRANCH   4  21
TORSDOF 3
ENDMDL
