MODEL 1
REMARK VINA RESULT:      28.3      0.000      0.000
REMARK  4 active torsions:
REMARK  status: ('A' for Active; 'I' for Inactive)
REMARK    1  A    between atoms: N_8  and  C_2 
REMARK    2  A    between atoms: C_9  and  C_3 
REMARK       I    between atoms: C_6  and  N_7 
REMARK    3  A    between atoms: C_10  and  C_6 
REMARK    4  A    between atoms: N_7  and  N_8 
ROOT
ATOM      1  C   UNL d   1     -55.408 -99.203 -43.873  0.00  0.00     0.297 C 
ATOM      2  N   UNL d   1     -56.116 -98.775 -44.042  0.00  0.00    -0.104 NA
ATOM      3  O   UNL d   1     -54.843 -98.877 -43.384  0.00  0.00    -0.264 OA
ENDROOT
BRANCH   2   4
ATOM      4  N   UNL d   1     -56.674 -99.103 -44.528  0.00  0.00    -0.119 NA
BRANCH   4   5
ATOM      5  C   UNL d   1     -57.447 -99.010 -44.357  0.00  0.00     0.214 A 
ATOM      6  N   UNL d   1     -57.857 -98.997 -43.632  0.00  0.00    -0.224 NA
ATOM      7  C   UNL d   1     -58.677 -98.879 -43.813  0.00  0.00     0.067 A 
ATOM      8  C   UNL d   1     -58.733 -98.825 -44.623  0.00  0.00     0.053 A 
ATOM      9  S   UNL d   1     -57.994 -98.904 -44.954  0.00  0.00    -0.045 SA
BRANCH   7  10
ATOM     10  C   UNL d   1     -59.313 -98.825 -43.274  0.00  0.00     0.036 C 
ATOM     11  C   UNL d   1     -59.956 -98.773 -42.749  0.00  0.00     0.006 C 
ATOM     12  C   UNL d   1     -59.840 -98.862 -43.912  0.00  0.00     0.006 C 
ATOM     13  C   UNL d   1     -58.765 -98.789 -42.645  0.00  0.00     0.006 C 
ENDBRANCH   7  10
ENDBRANCH   4   5
ENDBRANCH   2   4
BRANCH   1  14
ATOM     14  C   UNL d   1     -55.288 -99.970 -44.213  0.00  0.00     0.059 A 
ATOM     15  C   UNL d   1     -54.890-100.035 -44.942  0.00  0.00     0.005 A 
ATOM     16  C   UNL d   1     -54.784-100.763 -45.250  0.00  0.00     0.007 A 
ATOM     17  C   UNL d   1     -55.051-101.448 -44.876  0.00  0.00     0.035 A 
ATOM     18  C   UNL d   1     -55.443-101.386 -44.157  0.00  0.00     0.007 A 
ATOM     19 BR   UNL d   1     -54.929-102.181 -45.214  0.00  0.00    -0.049 Br
ATOM     20  C   UNL d   1     -55.558-100.645 -43.832  0.00  0.00     0.005 A 
ENDBRANCH   1  14
TORSDOF 4
ENDMDL
