MODEL 1
REMARK VINA RESULT:      -9.7      0.000      0.000
REMARK  0 active torsions:
REMARK  status: ('A' for Active; 'I' for Inactive)
ROOT
ATOM      1  C   UNL d   1      53.182  33.540  53.856  0.00  0.00     0.086 A 
ATOM      2  S   UNL d   1      53.583  32.854  54.061  0.00  0.00    -0.081 SA
ATOM      3  C   UNL d   1      52.565  33.507  53.281  0.00  0.00     0.090 A 
ATOM      4  N   UNL d   1      52.373  32.788  52.935  0.00  0.00    -0.244 NA
ATOM      5  C   UNL d   1      53.390  32.136  53.715  0.00  0.00     0.047 A 
ATOM      6  C   UNL d   1      52.787  32.103  53.153  0.00  0.00     0.087 A 
ATOM      7  C   UNL d   1      53.371  34.277  54.204  0.00  0.00     0.203 A 
ATOM      8  O   UNL d   1      53.988  34.311  54.778  0.00  0.00    -0.286 OA
ATOM      9  C   UNL d   1      52.161  34.211  53.078  0.00  0.00     0.020 A 
ATOM     10  C   UNL d   1      52.971  34.963  53.999  0.00  0.00     0.043 A 
ATOM     11  C   UNL d   1      52.367  34.930  53.438  0.00  0.00     0.005 A 
ATOM     12  C   UNL d   1      53.791  31.449  53.920  0.00  0.00     0.008 A 
ATOM     13  C   UNL d   1      52.592  31.384  52.804  0.00  0.00     0.020 A 
ATOM     14  C   UNL d   1      53.583  30.730  53.558  0.00  0.00     0.001 A 
ATOM     15  C   UNL d   1      52.995  30.698  53.012  0.00  0.00     0.002 A 
ENDROOT
TORSDOF 0
ENDMDL
MODEL 2
REMARK VINA RESULT:      -9.6      1.447      3.185
REMARK  0 active torsions:
REMARK  status: ('A' for Active; 'I' for Inactive)
ROOT
ATOM      1  C   UNL d   1      53.124  31.934  53.417  0.00  0.00     0.086 A 
ATOM      2  S   UNL d   1      53.093  32.750  53.494  0.00  0.00    -0.081 SA
ATOM      3  C   UNL d   1      53.613  31.485  53.938  0.00  0.00     0.090 A 
ATOM      4  N   UNL d   1      54.051  31.870  54.516  0.00  0.00    -0.244 NA
ATOM      5  C   UNL d   1      53.531  33.135  54.071  0.00  0.00     0.047 A 
ATOM      6  C   UNL d   1      54.009  32.696  54.580  0.00  0.00     0.087 A 
ATOM      7  C   UNL d   1      52.681  31.533  52.831  0.00  0.00     0.203 A 
ATOM      8  O   UNL d   1      52.193  31.981  52.311  0.00  0.00    -0.286 OA
ATOM      9  C   UNL d   1      53.639  30.653  53.853  0.00  0.00     0.020 A 
ATOM     10  C   UNL d   1      52.713  30.717  52.755  0.00  0.00     0.043 A 
ATOM     11  C   UNL d   1      53.191  30.278  53.264  0.00  0.00     0.005 A 
ATOM     12  C   UNL d   1      53.499  33.952  54.148  0.00  0.00     0.008 A 
ATOM     13  C   UNL d   1      54.449  33.080  55.160  0.00  0.00     0.020 A 
ATOM     14  C   UNL d   1      53.950  34.325  54.738  0.00  0.00     0.001 A 
ATOM     15  C   UNL d   1      54.415  33.898  55.234  0.00  0.00     0.002 A 
ENDROOT
TORSDOF 0
ENDMDL
MODEL 3
REMARK VINA RESULT:      -9.3      1.290      2.440
REMARK  0 active torsions:
REMARK  status: ('A' for Active; 'I' for Inactive)
ROOT
ATOM      1  C   UNL d   1      53.354  33.849  54.354  0.00  0.00     0.086 A 
ATOM      2  S   UNL d   1      52.801  34.367  54.039  0.00  0.00    -0.081 SA
ATOM      3  C   UNL d   1      53.372  33.047  54.091  0.00  0.00     0.090 A 
ATOM      4  N   UNL d   1      52.835  32.796  53.523  0.00  0.00    -0.244 NA
ATOM      5  C   UNL d   1      52.265  34.115  53.472  0.00  0.00     0.047 A 
ATOM      6  C   UNL d   1      52.282  33.332  53.214  0.00  0.00     0.087 A 
ATOM      7  C   UNL d   1      53.905  34.097  54.933  0.00  0.00     0.203 A 
ATOM      8  O   UNL d   1      53.887  34.897  55.197  0.00  0.00    -0.286 OA
ATOM      9  C   UNL d   1      53.939  32.526  54.417  0.00  0.00     0.020 A 
ATOM     10  C   UNL d   1      54.457  33.579  55.248  0.00  0.00     0.043 A 
ATOM     11  C   UNL d   1      54.474  32.795  54.990  0.00  0.00     0.005 A 
ATOM     12  C   UNL d   1      51.712  34.633  53.157  0.00  0.00     0.008 A 
ATOM     13  C   UNL d   1      51.745  33.076  52.645  0.00  0.00     0.020 A 
ATOM     14  C   UNL d   1      51.176  34.361  52.582  0.00  0.00     0.001 A 
ATOM     15  C   UNL d   1      51.193  33.598  52.332  0.00  0.00     0.002 A 
ENDROOT
TORSDOF 0
ENDMDL
MODEL 4
REMARK VINA RESULT:      -9.3      1.658      2.415
REMARK  0 active torsions:
REMARK  status: ('A' for Active; 'I' for Inactive)
ROOT
ATOM      1  C   UNL d   1      52.594  33.384  53.296  0.00  0.00     0.086 A 
ATOM      2  S   UNL d   1      53.201  32.936  53.620  0.00  0.00    -0.081 SA
ATOM      3  C   UNL d   1      52.468  34.173  53.568  0.00  0.00     0.090 A 
ATOM      4  N   UNL d   1      52.954  34.482  54.153  0.00  0.00    -0.244 NA
ATOM      5  C   UNL d   1      53.686  33.245  54.204  0.00  0.00     0.047 A 
ATOM      6  C   UNL d   1      53.563  34.016  54.470  0.00  0.00     0.087 A 
ATOM      7  C   UNL d   1      52.094  33.076  52.699  0.00  0.00     0.203 A 
ATOM      8  O   UNL d   1      52.220  32.288  52.428  0.00  0.00    -0.286 OA
ATOM      9  C   UNL d   1      51.848  34.623  53.233  0.00  0.00     0.020 A 
ATOM     10  C   UNL d   1      51.489  33.525  52.376  0.00  0.00     0.043 A 
ATOM     11  C   UNL d   1      51.366  34.296  52.642  0.00  0.00     0.005 A 
ATOM     12  C   UNL d   1      54.293  32.796  54.528  0.00  0.00     0.008 A 
ATOM     13  C   UNL d   1      54.048  34.329  55.056  0.00  0.00     0.020 A 
ATOM     14  C   UNL d   1      54.774  33.126  55.120  0.00  0.00     0.001 A 
ATOM     15  C   UNL d   1      54.655  33.877  55.378  0.00  0.00     0.002 A 
ENDROOT
TORSDOF 0
ENDMDL
MODEL 5
REMARK VINA RESULT:      -9.3      1.258      3.212
REMARK  0 active torsions:
REMARK  status: ('A' for Active; 'I' for Inactive)
ROOT
ATOM      1  C   UNL d   1      52.995  32.389  53.363  0.00  0.00     0.086 A 
ATOM      2  S   UNL d   1      52.669  33.115  53.163  0.00  0.00    -0.081 SA
ATOM      3  C   UNL d   1      53.509  32.332  54.030  0.00  0.00     0.090 A 
ATOM      4  N   UNL d   1      53.677  33.004  54.470  0.00  0.00    -0.244 NA
ATOM      5  C   UNL d   1      52.838  33.786  53.603  0.00  0.00     0.047 A 
ATOM      6  C   UNL d   1      53.340  33.731  54.254  0.00  0.00     0.087 A 
ATOM      7  C   UNL d   1      52.828  31.699  52.920  0.00  0.00     0.203 A 
ATOM      8  O   UNL d   1      52.315  31.755  52.254  0.00  0.00    -0.286 OA
ATOM      9  C   UNL d   1      53.836  31.588  54.227  0.00  0.00     0.020 A 
ATOM     10  C   UNL d   1      53.153  30.973  53.120  0.00  0.00     0.043 A 
ATOM     11  C   UNL d   1      53.656  30.918  53.772  0.00  0.00     0.005 A 
ATOM     12  C   UNL d   1      52.512  34.513  53.402  0.00  0.00     0.008 A 
ATOM     13  C   UNL d   1      53.511  34.403  54.697  0.00  0.00     0.020 A 
ATOM     14  C   UNL d   1      52.694  35.183  53.860  0.00  0.00     0.001 A 
ATOM     15  C   UNL d   1      53.183  35.129  54.494  0.00  0.00     0.002 A 
ENDROOT
TORSDOF 0
ENDMDL
MODEL 6
REMARK VINA RESULT:      -7.6      1.468      3.311
REMARK  0 active torsions:
REMARK  status: ('A' for Active; 'I' for Inactive)
ROOT
ATOM      1  C   UNL d   1      52.953  31.477  53.316  0.00  0.00     0.086 A 
ATOM      2  S   UNL d   1      52.568  32.198  53.246  0.00  0.00    -0.081 SA
ATOM      3  C   UNL d   1      53.743  31.454  53.611  0.00  0.00     0.090 A 
ATOM      4  N   UNL d   1      54.117  32.153  53.823  0.00  0.00    -0.244 NA
ATOM      5  C   UNL d   1      52.941  32.897  53.459  0.00  0.00     0.047 A 
ATOM      6  C   UNL d   1      53.714  32.874  53.746  0.00  0.00     0.087 A 
ATOM      7  C   UNL d   1      52.579  30.760  53.102  0.00  0.00     0.203 A 
ATOM      8  O   UNL d   1      51.790  30.783  52.808  0.00  0.00    -0.286 OA
ATOM      9  C   UNL d   1      54.129  30.714  53.679  0.00  0.00     0.020 A 
ATOM     10  C   UNL d   1      52.964  30.039  53.172  0.00  0.00     0.043 A 
ATOM     11  C   UNL d   1      53.737  30.017  53.460  0.00  0.00     0.005 A 
ATOM     12  C   UNL d   1      52.556  33.618  53.388  0.00  0.00     0.008 A 
ATOM     13  C   UNL d   1      54.091  33.573  53.960  0.00  0.00     0.020 A 
ATOM     14  C   UNL d   1      52.950  34.316  53.608  0.00  0.00     0.001 A 
ATOM     15  C   UNL d   1      53.702  34.294  53.889  0.00  0.00     0.002 A 
ENDROOT
TORSDOF 0
ENDMDL
