MODEL 1
REMARK VINA RESULT:      18.0      0.000      0.000
REMARK  3 active torsions:
REMARK  status: ('A' for Active; 'I' for Inactive)
REMARK    1  A    between atoms: N_2  and  S_1 
REMARK    2  A    between atoms: C_4  and  S_1 
REMARK    3  A    between atoms: C_3  and  N_2 
ROOT
ATOM      1  S   UNL d   1      45.903 -17.197  44.653  0.00  0.00     0.285 S 
ATOM      2  O   UNL d   1      45.163 -17.416  44.353  0.00  0.00    -0.198 OA
ATOM      3  O   UNL d   1      46.647 -16.976  44.955  0.00  0.00    -0.198 OA
ENDROOT
BRANCH   1   4
ATOM      4  N   UNL d   1      46.121 -17.999  44.703  0.00  0.00    -0.158 NA
BRANCH   4   5
ATOM      5  C   UNL d   1      46.252 -18.433  44.010  0.00  0.00     0.094 A 
ATOM      6  C   UNL d   1      46.330 -18.059  43.276  0.00  0.00     0.023 A 
ATOM      7  C   UNL d   1      46.458 -18.489  42.597  0.00  0.00     0.041 A 
ATOM      8  C   UNL d   1      46.530 -18.083  41.887  0.00  0.00     0.003 C 
ATOM      9  C   UNL d   1      46.515 -19.334  42.639  0.00  0.00     0.196 A 
ATOM     10  C   UNL d   1      46.438 -19.707  43.373  0.00  0.00     0.044 A 
ATOM     11  O   UNL d   1      46.647 -19.768  41.945  0.00  0.00    -0.287 OA
ATOM     12  C   UNL d   1      46.309 -19.255  44.045  0.00  0.00     0.022 A 
ATOM     13  C   UNL d   1      46.235 -19.638  44.763  0.00  0.00     0.002 C 
ENDBRANCH   4   5
ENDBRANCH   1   4
BRANCH   1  14
ATOM     14  C   UNL d   1      45.687 -16.393  44.604  0.00  0.00     0.105 A 
ATOM     15  C   UNL d   1      46.182 -15.874  44.213  0.00  0.00     0.013 A 
ATOM     16  C   UNL d   1      45.981 -15.094  44.162  0.00  0.00     0.001 A 
ATOM     17  C   UNL d   1      45.264 -14.809  44.508  0.00  0.00     0.000 A 
ATOM     18  C   UNL d   1      44.769 -15.336  44.901  0.00  0.00     0.001 A 
ATOM     19  C   UNL d   1      45.032 -13.992  44.466  0.00  0.00     0.000 C 
ATOM     20  C   UNL d   1      44.985 -16.136  44.949  0.00  0.00     0.013 A 
ENDBRANCH   1  14
TORSDOF 3
ENDMDL
