MODEL 1
REMARK VINA RESULT:      93.1      0.000      0.000
REMARK  5 active torsions:
REMARK  status: ('A' for Active; 'I' for Inactive)
REMARK    1  A    between atoms: C_16  and  N_5 
REMARK    2  A    between atoms: C_15  and  C_6 
REMARK    3  A    between atoms: C_19  and  C_16 
REMARK    4  A    between atoms: O_20  and  C_17 
REMARK    5  A    between atoms: C_22  and  C_19 
ROOT
ATOM      1  O   UNL d   1     -50.620  26.975  37.598  0.00  0.00    -0.326 OA
ATOM      2  C   UNL d   1     -50.290  26.962  36.835  0.00  0.00     0.118 C 
ATOM      3  C   UNL d   1     -50.951  26.985  38.356  0.00  0.00     0.181 C 
ENDROOT
BRANCH   2   4
ATOM      4  C   UNL d   1     -49.762  27.454  36.423  0.00  0.00     0.045 C 
BRANCH   4   5
ATOM      5  C   UNL d   1     -49.336  27.393  35.708  0.00  0.00     0.086 C 
BRANCH   5   6
ATOM      6  N   UNL d   1     -49.100  28.090  35.311  0.00  0.00    -0.258 N 
ATOM      7  C   UNL d   1     -48.659  28.662  35.706  0.00  0.00     0.272 A 
ATOM      8  C   UNL d   1     -48.429  29.347  35.310  0.00  0.00     0.137 A 
ATOM      9  O   UNL d   1     -48.446  28.550  36.493  0.00  0.00    -0.266 OA
ATOM     10  C   UNL d   1     -48.641  29.463  34.519  0.00  0.00     0.192 A 
ATOM     11  C   UNL d   1     -47.986  29.922  35.704  0.00  0.00     0.205 A 
ATOM     12  N   UNL d   1     -49.080  28.896  34.125  0.00  0.00    -0.204 NA
ATOM     13  O   UNL d   1     -48.410  30.148  34.131  0.00  0.00    -0.289 OA
ATOM     14  C   UNL d   1     -49.314  28.202  34.520  0.00  0.00     0.152 A 
ATOM     15  C   UNL d   1     -47.967  30.718  34.529  0.00  0.00     0.107 A 
ATOM     16  C   UNL d   1     -47.758  30.600  35.315  0.00  0.00     0.062 A 
ATOM     17  C   UNL d   1     -47.734  31.412  34.132  0.00  0.00     0.049 A 
ATOM     18  C   UNL d   1     -47.314  31.173  35.714  0.00  0.00     0.007 A 
ATOM     19  C   UNL d   1     -47.085  31.860  35.318  0.00  0.00     0.024 A 
ATOM     20  C   UNL d   1     -47.293  31.979  34.532  0.00  0.00     0.096 A 
ATOM     21  O   UNL d   1     -47.777  29.804  36.491  0.00  0.00    -0.286 OA
BRANCH  14  22
ATOM     22  C   UNL d   1     -49.757  27.632  34.122  0.00  0.00     0.035 A 
ATOM     23  C   UNL d   1     -49.369  26.987  33.778  0.00  0.00     0.003 A 
ATOM     24  C   UNL d   1     -49.811  26.421  33.382  0.00  0.00     0.000 A 
ATOM     25  C   UNL d   1     -50.630  26.490  33.327  0.00  0.00     0.000 A 
ATOM     26  C   UNL d   1     -51.012  27.134  33.672  0.00  0.00     0.000 A 
ATOM     27  C   UNL d   1     -50.574  27.701  34.068  0.00  0.00     0.003 A 
ENDBRANCH  14  22
BRANCH  20  28
ATOM     28  O   UNL d   1     -47.060  32.662  34.151  0.00  0.00    -0.328 OA
ATOM     29  C   UNL d   1     -47.502  32.946  33.518  0.00  0.00     0.181 C 
ENDBRANCH  20  28
ENDBRANCH   5   6
ENDBRANCH   4   5
ENDBRANCH   2   4
TORSDOF 5
ENDMDL
