MODEL 1
REMARK VINA RESULT:      -2.5      0.000      0.000
REMARK  5 active torsions:
REMARK  status: ('A' for Active; 'I' for Inactive)
REMARK    1  A    between atoms: C_3  and  N_1 
REMARK    2  A    between atoms: C_4  and  N_1 
REMARK    3  A    between atoms: N_7  and  C_3 
REMARK    4  A    between atoms: C_10  and  N_7 
REMARK    5  A    between atoms: C_8  and  C_10 
ROOT
ATOM      1  N   UNL d   1      31.051  16.349 -24.240  0.00  0.00    -0.198 NA
ENDROOT
BRANCH   1   2
ATOM      2  C   UNL d   1      31.699  16.538 -23.755  0.00  0.00     0.222 C 
ATOM      3  S   UNL d   1      32.137  15.965 -23.437  0.00  0.00    -0.037 SA
BRANCH   2   4
ATOM      4  N   UNL d   1      31.876  17.303 -23.614  0.00  0.00    -0.216 NA
BRANCH   4   5
ATOM      5  C   UNL d   1      32.655  17.560 -23.657  0.00  0.00     0.101 C 
BRANCH   5   6
ATOM      6  C   UNL d   1      32.833  18.372 -23.568  0.00  0.00     0.019 C 
ATOM      7  C   UNL d   1      32.876  18.705 -22.814  0.00  0.00     0.002 C 
ATOM      8  C   UNL d   1      32.966  18.839 -24.235  0.00  0.00     0.002 C 
ENDBRANCH   5   6
ENDBRANCH   4   5
ENDBRANCH   2   4
ENDBRANCH   1   2
BRANCH   1   9
ATOM      9  C   UNL d   1      30.311  16.221 -23.900  0.00  0.00     0.167 A 
ATOM     10  N   UNL d   1      29.681  16.724 -24.077  0.00  0.00    -0.206 NA
ATOM     11  C   UNL d   1      28.940  16.596 -23.738  0.00  0.00     0.185 A 
ATOM     12  N   UNL d   1      28.322  17.104 -23.921  0.00  0.00    -0.127 N 
ATOM     13  C   UNL d   1      28.830  15.965 -23.222  0.00  0.00     0.041 A 
ATOM     14  C   UNL d   1      29.460  15.455 -23.040  0.00  0.00     0.006 A 
ATOM     15  C   UNL d   1      30.204  15.588 -23.384  0.00  0.00     0.039 A 
ENDBRANCH   1   9
TORSDOF 5
ENDMDL
MODEL 2
REMARK VINA RESULT:      -2.4      0.962      3.671
REMARK  5 active torsions:
REMARK  status: ('A' for Active; 'I' for Inactive)
REMARK    1  A    between atoms: C_3  and  N_1 
REMARK    2  A    between atoms: C_4  and  N_1 
REMARK    3  A    between atoms: N_7  and  C_3 
REMARK    4  A    between atoms: C_10  and  N_7 
REMARK    5  A    between atoms: C_8  and  C_10 
ROOT
ATOM      1  N   UNL d   1      31.930  16.541 -23.917  0.00  0.00    -0.198 NA
ENDROOT
BRANCH   1   2
ATOM      2  C   UNL d   1      31.159  16.413 -24.203  0.00  0.00     0.222 C 
ATOM      3  S   UNL d   1      31.036  16.300 -24.973  0.00  0.00    -0.037 SA
BRANCH   2   4
ATOM      4  N   UNL d   1      30.546  16.406 -23.692  0.00  0.00    -0.216 NA
BRANCH   4   5
ATOM      5  C   UNL d   1      29.957  15.838 -23.765  0.00  0.00     0.101 C 
BRANCH   5   6
ATOM      6  C   UNL d   1      29.322  15.822 -23.221  0.00  0.00     0.019 C 
ATOM      7  C   UNL d   1      29.416  15.453 -22.489  0.00  0.00     0.002 C 
ATOM      8  C   UNL d   1      28.604  16.176 -23.418  0.00  0.00     0.002 C 
ENDBRANCH   5   6
ENDBRANCH   4   5
ENDBRANCH   2   4
ENDBRANCH   1   2
BRANCH   1   9
ATOM      9  C   UNL d   1      32.247  17.302 -23.924  0.00  0.00     0.167 A 
ATOM     10  N   UNL d   1      32.404  17.693 -23.214  0.00  0.00    -0.206 NA
ATOM     11  C   UNL d   1      32.721  18.454 -23.220  0.00  0.00     0.185 A 
ATOM     12  N   UNL d   1      32.873  18.831 -22.507  0.00  0.00    -0.127 N 
ATOM     13  C   UNL d   1      32.881  18.824 -23.937  0.00  0.00     0.041 A 
ATOM     14  C   UNL d   1      32.725  18.437 -24.656  0.00  0.00     0.006 A 
ATOM     15  C   UNL d   1      32.406  17.670 -24.643  0.00  0.00     0.039 A 
ENDBRANCH   1   9
TORSDOF 5
ENDMDL
MODEL 3
REMARK VINA RESULT:      -1.9      3.766      5.584
REMARK  5 active torsions:
REMARK  status: ('A' for Active; 'I' for Inactive)
REMARK    1  A    between atoms: C_3  and  N_1 
REMARK    2  A    between atoms: C_4  and  N_1 
REMARK    3  A    between atoms: N_7  and  C_3 
REMARK    4  A    between atoms: C_10  and  N_7 
REMARK    5  A    between atoms: C_8  and  C_10 
ROOT
ATOM      1  N   UNL d   1      33.239  21.118 -21.951  0.00  0.00    -0.198 NA
ENDROOT
BRANCH   1   2
ATOM      2  C   UNL d   1      33.060  20.319 -21.809  0.00  0.00     0.222 C 
ATOM      3  S   UNL d   1      33.217  19.996 -21.108  0.00  0.00    -0.037 SA
BRANCH   2   4
ATOM      4  N   UNL d   1      32.729  19.881 -22.388  0.00  0.00    -0.216 NA
BRANCH   4   5
ATOM      5  C   UNL d   1      33.096  19.192 -22.643  0.00  0.00     0.101 C 
BRANCH   5   6
ATOM      6  C   UNL d   1      32.816  18.798 -23.326  0.00  0.00     0.019 C 
ATOM      7  C   UNL d   1      32.830  19.180 -24.058  0.00  0.00     0.002 C 
ATOM      8  C   UNL d   1      32.528  18.028 -23.266  0.00  0.00     0.002 C 
ENDBRANCH   5   6
ENDBRANCH   4   5
ENDBRANCH   2   4
ENDBRANCH   1   2
BRANCH   1   9
ATOM      9  C   UNL d   1      32.811  21.708 -21.565  0.00  0.00     0.167 A 
ATOM     10  N   UNL d   1      32.612  22.404 -21.962  0.00  0.00    -0.206 NA
ATOM     11  C   UNL d   1      32.184  22.993 -21.576  0.00  0.00     0.185 A 
ATOM     12  N   UNL d   1      31.992  23.680 -21.982  0.00  0.00    -0.127 N 
ATOM     13  C   UNL d   1      31.956  22.887 -20.793  0.00  0.00     0.041 A 
ATOM     14  C   UNL d   1      32.154  22.189 -20.388  0.00  0.00     0.006 A 
ATOM     15  C   UNL d   1      32.585  21.599 -20.781  0.00  0.00     0.039 A 
ENDBRANCH   1   9
TORSDOF 5
ENDMDL
MODEL 4
REMARK VINA RESULT:      -1.7      1.904      4.332
REMARK  5 active torsions:
REMARK  status: ('A' for Active; 'I' for Inactive)
REMARK    1  A    between atoms: C_3  and  N_1 
REMARK    2  A    between atoms: C_4  and  N_1 
REMARK    3  A    between atoms: N_7  and  C_3 
REMARK    4  A    between atoms: C_10  and  N_7 
REMARK    5  A    between atoms: C_8  and  C_10 
ROOT
ATOM      1  N   UNL d   1      33.187  18.399 -22.960  0.00  0.00    -0.198 NA
ENDROOT
BRANCH   1   2
ATOM      2  C   UNL d   1      32.741  18.209 -23.636  0.00  0.00     0.222 C 
ATOM      3  S   UNL d   1      32.969  18.465 -24.345  0.00  0.00    -0.037 SA
BRANCH   2   4
ATOM      4  N   UNL d   1      32.081  17.766 -23.562  0.00  0.00    -0.216 NA
BRANCH   4   5
ATOM      5  C   UNL d   1      31.973  17.107 -24.040  0.00  0.00     0.101 C 
BRANCH   5   6
ATOM      6  C   UNL d   1      31.295  16.628 -23.943  0.00  0.00     0.019 C 
ATOM      7  C   UNL d   1      31.365  15.876 -23.610  0.00  0.00     0.002 C 
ATOM      8  C   UNL d   1      30.557  16.909 -24.180  0.00  0.00     0.002 C 
ENDBRANCH   5   6
ENDBRANCH   4   5
ENDBRANCH   2   4
ENDBRANCH   1   2
BRANCH   1   9
ATOM      9  C   UNL d   1      33.204  19.177 -22.687  0.00  0.00     0.167 A 
ATOM     10  N   UNL d   1      33.204  19.332 -21.876  0.00  0.00    -0.206 NA
ATOM     11  C   UNL d   1      33.221  20.110 -21.603  0.00  0.00     0.185 A 
ATOM     12  N   UNL d   1      33.220  20.251 -20.795  0.00  0.00    -0.127 N 
ATOM     13  C   UNL d   1      33.240  20.732 -22.141  0.00  0.00     0.041 A 
ATOM     14  C   UNL d   1      33.241  20.582 -22.959  0.00  0.00     0.006 A 
ATOM     15  C   UNL d   1      33.223  19.797 -23.228  0.00  0.00     0.039 A 
ENDBRANCH   1   9
TORSDOF 5
ENDMDL
MODEL 5
REMARK VINA RESULT:      -1.5      2.652      3.337
REMARK  5 active torsions:
REMARK  status: ('A' for Active; 'I' for Inactive)
REMARK    1  A    between atoms: C_3  and  N_1 
REMARK    2  A    between atoms: C_4  and  N_1 
REMARK    3  A    between atoms: N_7  and  C_3 
REMARK    4  A    between atoms: C_10  and  N_7 
REMARK    5  A    between atoms: C_8  and  C_10 
ROOT
ATOM      1  N   UNL d   1      32.270  18.325 -23.326  0.00  0.00    -0.198 NA
ENDROOT
BRANCH   1   2
ATOM      2  C   UNL d   1      32.833  18.934 -23.278  0.00  0.00     0.222 C 
ATOM      3  S   UNL d   1      33.191  19.196 -23.930  0.00  0.00    -0.037 SA
BRANCH   2   4
ATOM      4  N   UNL d   1      33.010  19.253 -22.568  0.00  0.00    -0.216 NA
BRANCH   4   5
ATOM      5  C   UNL d   1      32.989  20.068 -22.466  0.00  0.00     0.101 C 
BRANCH   5   6
ATOM      6  C   UNL d   1      33.157  20.400 -21.718  0.00  0.00     0.019 C 
ATOM      7  C   UNL d   1      33.241  19.911 -21.058  0.00  0.00     0.002 C 
ATOM      8  C   UNL d   1      33.239  21.217 -21.641  0.00  0.00     0.002 C 
ENDBRANCH   5   6
ENDBRANCH   4   5
ENDBRANCH   2   4
ENDBRANCH   1   2
BRANCH   1   9
ATOM      9  C   UNL d   1      32.491  17.585 -23.612  0.00  0.00     0.167 A 
ATOM     10  N   UNL d   1      32.757  17.001 -23.092  0.00  0.00    -0.206 NA
ATOM     11  C   UNL d   1      32.979  16.260 -23.379  0.00  0.00     0.185 A 
ATOM     12  N   UNL d   1      33.241  15.689 -22.851  0.00  0.00    -0.127 N 
ATOM     13  C   UNL d   1      32.935  16.103 -24.185  0.00  0.00     0.041 A 
ATOM     14  C   UNL d   1      32.668  16.687 -24.714  0.00  0.00     0.006 A 
ATOM     15  C   UNL d   1      32.446  17.431 -24.420  0.00  0.00     0.039 A 
ENDBRANCH   1   9
TORSDOF 5
ENDMDL
MODEL 6
REMARK VINA RESULT:      -0.9      2.908      4.521
REMARK  5 active torsions:
REMARK  status: ('A' for Active; 'I' for Inactive)
REMARK    1  A    between atoms: C_3  and  N_1 
REMARK    2  A    between atoms: C_4  and  N_1 
REMARK    3  A    between atoms: N_7  and  C_3 
REMARK    4  A    between atoms: C_10  and  N_7 
REMARK    5  A    between atoms: C_8  and  C_10 
ROOT
ATOM      1  N   UNL d   1      33.240  19.752 -22.281  0.00  0.00    -0.198 NA
ENDROOT
BRANCH   1   2
ATOM      2  C   UNL d   1      33.041  20.558 -22.308  0.00  0.00     0.222 C 
ATOM      3  S   UNL d   1      33.236  20.994 -22.934  0.00  0.00    -0.037 SA
BRANCH   2   4
ATOM      4  N   UNL d   1      32.650  20.888 -21.695  0.00  0.00    -0.216 NA
BRANCH   4   5
ATOM      5  C   UNL d   1      32.779  21.676 -21.501  0.00  0.00     0.101 C 
BRANCH   5   6
ATOM      6  C   UNL d   1      32.597  21.952 -20.733  0.00  0.00     0.019 C 
ATOM      7  C   UNL d   1      31.861  21.787 -20.399  0.00  0.00     0.002 C 
ATOM      8  C   UNL d   1      33.155  22.390 -20.312  0.00  0.00     0.002 C 
ENDBRANCH   5   6
ENDBRANCH   4   5
ENDBRANCH   2   4
ENDBRANCH   1   2
BRANCH   1   9
ATOM      9  C   UNL d   1      33.053  19.263 -22.918  0.00  0.00     0.167 A 
ATOM     10  N   UNL d   1      32.736  18.513 -22.786  0.00  0.00    -0.206 NA
ATOM     11  C   UNL d   1      32.549  18.024 -23.423  0.00  0.00     0.185 A 
ATOM     12  N   UNL d   1      32.233  17.280 -23.279  0.00  0.00    -0.127 N 
ATOM     13  C   UNL d   1      32.679  18.285 -24.192  0.00  0.00     0.041 A 
ATOM     14  C   UNL d   1      32.999  19.040 -24.332  0.00  0.00     0.006 A 
ATOM     15  C   UNL d   1      33.186  19.528 -23.687  0.00  0.00     0.039 A 
ENDBRANCH   1   9
TORSDOF 5
ENDMDL
