MODEL 1
REMARK VINA RESULT:      58.3      0.000      0.000
REMARK  11 active torsions:
REMARK  status: ('A' for Active; 'I' for Inactive)
REMARK    1  A    between atoms: C_8  and  S_1 
REMARK    2  A    between atoms: N_19  and  S_1 
REMARK    3  A    between atoms: S_2  and  C_9 
REMARK    4  A    between atoms: N_20  and  S_2 
REMARK    5  A    between atoms: N_14  and  C_5 
REMARK    6  A    between atoms: C_24  and  N_19 
REMARK    7  A    between atoms: C_25  and  N_20 
REMARK    8  A    between atoms: C_29  and  C_24 
REMARK    9  A    between atoms: C_28  and  C_25 
REMARK   10  A    between atoms: O_26  and  C_29 
REMARK   11  A    between atoms: O_27  and  C_28 
ROOT
ATOM      1  C   UNL d   1      14.217  16.855  -5.045  0.00  0.00     0.021 A 
ATOM      2  C   UNL d   1      14.009  15.716  -4.565  0.00  0.00     0.021 A 
ATOM      3  C   UNL d   1      14.407  16.337  -4.436  0.00  0.00     0.111 A 
ATOM      4  C   UNL d   1      13.672  16.483  -5.546  0.00  0.00     0.002 A 
ATOM      5  C   UNL d   1      13.526  15.729  -5.239  0.00  0.00     0.002 A 
ATOM      6  C   UNL d   1      14.178  18.009  -5.876  0.00  0.00     0.105 A 
ATOM      7  C   UNL d   1      13.575  14.394  -4.274  0.00  0.00     0.105 A 
ATOM      8  C   UNL d   1      14.032  15.046  -4.084  0.00  0.00     0.015 A 
ATOM      9  C   UNL d   1      14.468  17.617  -5.213  0.00  0.00     0.015 A 
ATOM     10  C   UNL d   1      13.068  15.068  -5.426  0.00  0.00     0.001 A 
ATOM     11  C   UNL d   1      13.380  16.874  -6.210  0.00  0.00     0.001 A 
ATOM     12  C   UNL d   1      13.088  14.398  -4.947  0.00  0.00     0.013 A 
ATOM     13  C   UNL d   1      13.641  17.640  -6.366  0.00  0.00     0.013 A 
ENDROOT
BRANCH   6  14
ATOM     14  S   UNL d   1      14.324  18.763  -6.182  0.00  0.00     0.285 S 
ATOM     15  O   UNL d   1      13.533  18.971  -6.058  0.00  0.00    -0.198 OA
ATOM     16  O   UNL d   1      15.109  18.548  -6.302  0.00  0.00    -0.198 OA
BRANCH  14  17
ATOM     17  N   UNL d   1      14.063  19.518  -6.386  0.00  0.00    -0.155 NA
BRANCH  17  18
ATOM     18  C   UNL d   1      14.589  20.152  -6.381  0.00  0.00     0.138 C 
BRANCH  18  19
ATOM     19  C   UNL d   1      14.613  20.677  -5.738  0.00  0.00     0.138 C 
BRANCH  19  20
ATOM     20  O   UNL d   1      15.159  21.284  -5.715  0.00  0.00    -0.325 OA
ATOM     21  C   UNL d   1      15.308  21.742  -6.386  0.00  0.00     0.182 C 
ENDBRANCH  19  20
ENDBRANCH  18  19
ENDBRANCH  17  18
ENDBRANCH  14  17
ENDBRANCH   6  14
BRANCH   3  22
ATOM     22  N   UNL d   1      14.932  16.488  -3.815  0.00  0.00    -0.096 NA
ATOM     23  O   UNL d   1      15.739  16.311  -3.915  0.00  0.00    -0.061 OA
ENDBRANCH   3  22
BRANCH   7  24
ATOM     24  S   UNL d   1      13.429  13.640  -3.968  0.00  0.00     0.285 S 
ATOM     25  O   UNL d   1      12.778  13.562  -4.471  0.00  0.00    -0.198 OA
ATOM     26  O   UNL d   1      14.081  13.718  -3.464  0.00  0.00    -0.198 OA
BRANCH  24  27
ATOM     27  N   UNL d   1      13.630  13.028  -3.451  0.00  0.00    -0.155 NA
BRANCH  27  28
ATOM     28  C   UNL d   1      13.102  12.404  -3.330  0.00  0.00     0.138 C 
BRANCH  28  29
ATOM     29  C   UNL d   1      13.190  11.915  -2.672  0.00  0.00     0.138 C 
BRANCH  29  30
ATOM     30  O   UNL d   1      13.930  11.853  -2.293  0.00  0.00    -0.325 OA
ATOM     31  C   UNL d   1      13.965  11.784  -1.479  0.00  0.00     0.182 C 
ENDBRANCH  29  30
ENDBRANCH  28  29
ENDBRANCH  27  28
ENDBRANCH  24  27
ENDBRANCH   7  24
TORSDOF 11
ENDMDL
MODEL 2
REMARK VINA RESULT:      61.1      2.098      6.399
REMARK  11 active torsions:
REMARK  status: ('A' for Active; 'I' for Inactive)
REMARK    1  A    between atoms: C_8  and  S_1 
REMARK    2  A    between atoms: N_19  and  S_1 
REMARK    3  A    between atoms: S_2  and  C_9 
REMARK    4  A    between atoms: N_20  and  S_2 
REMARK    5  A    between atoms: N_14  and  C_5 
REMARK    6  A    between atoms: C_24  and  N_19 
REMARK    7  A    between atoms: C_25  and  N_20 
REMARK    8  A    between atoms: C_29  and  C_24 
REMARK    9  A    between atoms: C_28  and  C_25 
REMARK   10  A    between atoms: O_26  and  C_29 
REMARK   11  A    between atoms: O_27  and  C_28 
ROOT
ATOM      1  C   UNL d   1      14.630  15.024  -2.398  0.00  0.00     0.021 A 
ATOM      2  C   UNL d   1      14.625  15.760  -3.412  0.00  0.00     0.021 A 
ATOM      3  C   UNL d   1      14.445  15.065  -3.198  0.00  0.00     0.111 A 
ATOM      4  C   UNL d   1      14.935  15.757  -2.160  0.00  0.00     0.002 A 
ATOM      5  C   UNL d   1      14.937  16.253  -2.822  0.00  0.00     0.002 A 
ATOM      6  C   UNL d   1      14.797  14.536  -1.073  0.00  0.00     0.105 A 
ATOM      7  C   UNL d   1      14.742  16.814  -4.359  0.00  0.00     0.105 A 
ATOM      8  C   UNL d   1      14.529  16.044  -4.181  0.00  0.00     0.015 A 
ATOM      9  C   UNL d   1      14.563  14.416  -1.852  0.00  0.00     0.015 A 
ATOM     10  C   UNL d   1      15.150  17.028  -3.007  0.00  0.00     0.001 A 
ATOM     11  C   UNL d   1      15.170  15.878  -1.379  0.00  0.00     0.001 A 
ATOM     12  C   UNL d   1      15.055  17.314  -3.774  0.00  0.00     0.013 A 
ATOM     13  C   UNL d   1      15.096  15.258  -0.842  0.00  0.00     0.013 A 
ENDROOT
BRANCH   6  14
ATOM     14  S   UNL d   1      14.795  14.039  -0.411  0.00  0.00     0.285 S 
ATOM     15  O   UNL d   1      15.340  13.538  -0.781  0.00  0.00    -0.198 OA
ATOM     16  O   UNL d   1      14.253  14.543  -0.051  0.00  0.00    -0.198 OA
BRANCH  14  17
ATOM     17  N   UNL d   1      15.060  13.364  -0.019  0.00  0.00    -0.155 NA
BRANCH  17  18
ATOM     18  C   UNL d   1      15.008  12.627  -0.385  0.00  0.00     0.138 C 
BRANCH  18  19
ATOM     19  C   UNL d   1      14.600  12.003  -0.021  0.00  0.00     0.138 C 
BRANCH  19  20
ATOM     20  O   UNL d   1      13.859  11.780  -0.282  0.00  0.00    -0.325 OA
ATOM     21  C   UNL d   1      13.183  12.172  -0.014  0.00  0.00     0.182 C 
ENDBRANCH  19  20
ENDBRANCH  18  19
ENDBRANCH  17  18
ENDBRANCH  14  17
ENDBRANCH   6  14
BRANCH   3  22
ATOM     22  N   UNL d   1      14.127  14.455  -3.656  0.00  0.00    -0.096 NA
ATOM     23  O   UNL d   1      13.443  14.602  -4.107  0.00  0.00    -0.061 OA
ENDBRANCH   3  22
BRANCH   7  24
ATOM     24  S   UNL d   1      14.744  17.310  -5.021  0.00  0.00     0.285 S 
ATOM     25  O   UNL d   1      15.549  17.459  -4.907  0.00  0.00    -0.198 OA
ATOM     26  O   UNL d   1      13.938  17.161  -5.135  0.00  0.00    -0.198 OA
BRANCH  24  27
ATOM     27  N   UNL d   1      14.342  17.664  -5.649  0.00  0.00    -0.155 NA
BRANCH  27  28
ATOM     28  C   UNL d   1      14.535  18.433  -5.878  0.00  0.00     0.138 C 
BRANCH  28  29
ATOM     29  C   UNL d   1      14.028  19.057  -5.691  0.00  0.00     0.138 C 
BRANCH  29  30
ATOM     30  O   UNL d   1      14.328  19.745  -5.330  0.00  0.00    -0.325 OA
ATOM     31  C   UNL d   1      13.976  20.468  -5.479  0.00  0.00     0.182 C 
ENDBRANCH  29  30
ENDBRANCH  28  29
ENDBRANCH  27  28
ENDBRANCH  24  27
ENDBRANCH   7  24
TORSDOF 11
ENDMDL
