MODEL 1
REMARK VINA RESULT:      -5.9      0.000      0.000
REMARK  8 active torsions:
REMARK  status: ('A' for Active; 'I' for Inactive)
REMARK    1  A    between atoms: C_6  and  N_1 
REMARK    2  A    between atoms: C_7  and  C_2 
REMARK    3  A    between atoms: C_8  and  C_6 
REMARK    4  A    between atoms: O_14  and  C_8 
REMARK    5  A    between atoms: O_15  and  C_8 
REMARK    6  A    between atoms: O_18  and  C_11 
REMARK    7  A    between atoms: C_20  and  O_14 
REMARK    8  A    between atoms: C_19  and  O_15 
ROOT
ATOM      1  N   UNL d   1     -48.984  14.053  23.214  0.00  0.00    -0.286 N 
ATOM      2  C   UNL d   1     -48.309  14.514  23.084  0.00  0.00     0.148 A 
ATOM      3  N   UNL d   1     -48.568  15.297  23.079  0.00  0.00    -0.227 NA
ATOM      4  C   UNL d   1     -49.623  14.536  23.285  0.00  0.00     0.083 A 
ATOM      5  C   UNL d   1     -49.363  15.316  23.201  0.00  0.00     0.099 A 
ATOM      6  C   UNL d   1     -50.425  14.376  23.418  0.00  0.00     0.019 A 
ATOM      7  C   UNL d   1     -49.912  15.912  23.251  0.00  0.00     0.021 A 
ATOM      8  C   UNL d   1     -50.938  14.994  23.461  0.00  0.00     0.002 A 
ATOM      9  C   UNL d   1     -50.678  15.774  23.377  0.00  0.00     0.002 A 
ENDROOT
BRANCH   1  10
ATOM     10  C   UNL d   1     -48.991  13.246  23.261  0.00  0.00     0.133 C 
BRANCH  10  11
ATOM     11  C   UNL d   1     -49.525  12.826  22.774  0.00  0.00     0.222 C 
BRANCH  11  12
ATOM     12  O   UNL d   1     -49.446  12.838  21.950  0.00  0.00    -0.282 OA
BRANCH  12  13
ATOM     13  C   UNL d   1     -49.668  12.569  21.214  0.00  0.00     0.125 C 
ATOM     14  C   UNL d   1     -49.110  12.185  20.734  0.00  0.00     0.029 C 
ENDBRANCH  12  13
ENDBRANCH  11  12
BRANCH  11  15
ATOM     15  O   UNL d   1     -50.158  12.379  23.115  0.00  0.00    -0.282 OA
BRANCH  15  16
ATOM     16  C   UNL d   1     -50.238  11.731  23.616  0.00  0.00     0.125 C 
ATOM     17  C   UNL d   1     -50.965  11.353  23.698  0.00  0.00     0.029 C 
ENDBRANCH  15  16
ENDBRANCH  11  15
ENDBRANCH  10  11
ENDBRANCH   1  10
BRANCH   2  18
ATOM     18  C   UNL d   1     -47.536  14.244  22.980  0.00  0.00     0.035 A 
ATOM     19  C   UNL d   1     -47.232  13.662  23.485  0.00  0.00     0.005 A 
ATOM     20  C   UNL d   1     -46.459  13.393  23.381  0.00  0.00     0.024 A 
ATOM     21  C   UNL d   1     -45.990  13.706  22.773  0.00  0.00     0.094 A 
ATOM     22  C   UNL d   1     -46.296  14.286  22.272  0.00  0.00     0.024 A 
ATOM     23  C   UNL d   1     -47.069  14.555  22.376  0.00  0.00     0.005 A 
BRANCH  21  24
ATOM     24  O   UNL d   1     -45.217  13.437  22.669  0.00  0.00    -0.328 OA
ATOM     25  C   UNL d   1     -45.080  12.708  22.298  0.00  0.00     0.181 C 
ENDBRANCH  21  24
ENDBRANCH   2  18
TORSDOF 8
ENDMDL
MODEL 2
REMARK VINA RESULT:      -5.1      0.514      1.391
REMARK  8 active torsions:
REMARK  status: ('A' for Active; 'I' for Inactive)
REMARK    1  A    between atoms: C_6  and  N_1 
REMARK    2  A    between atoms: C_7  and  C_2 
REMARK    3  A    between atoms: C_8  and  C_6 
REMARK    4  A    between atoms: O_14  and  C_8 
REMARK    5  A    between atoms: O_15  and  C_8 
REMARK    6  A    between atoms: O_18  and  C_11 
REMARK    7  A    between atoms: C_20  and  O_14 
REMARK    8  A    between atoms: C_19  and  O_15 
ROOT
ATOM      1  N   UNL d   1     -48.622  13.936  23.077  0.00  0.00    -0.286 N 
ATOM      2  C   UNL d   1     -47.885  14.284  22.941  0.00  0.00     0.148 A 
ATOM      3  N   UNL d   1     -48.020  15.098  22.915  0.00  0.00    -0.227 NA
ATOM      4  C   UNL d   1     -49.180  14.513  23.132  0.00  0.00     0.083 A 
ATOM      5  C   UNL d   1     -48.803  15.241  23.031  0.00  0.00     0.099 A 
ATOM      6  C   UNL d   1     -49.997  14.482  23.263  0.00  0.00     0.019 A 
ATOM      7  C   UNL d   1     -49.254  15.916  23.063  0.00  0.00     0.021 A 
ATOM      8  C   UNL d   1     -50.409  15.172  23.288  0.00  0.00     0.002 A 
ATOM      9  C   UNL d   1     -50.032  15.900  23.187  0.00  0.00     0.002 A 
ENDROOT
BRANCH   1  10
ATOM     10  C   UNL d   1     -48.754  13.141  23.143  0.00  0.00     0.133 C 
BRANCH  10  11
ATOM     11  C   UNL d   1     -49.327  12.792  22.645  0.00  0.00     0.222 C 
BRANCH  11  12
ATOM     12  O   UNL d   1     -49.955  12.355  22.962  0.00  0.00    -0.282 OA
BRANCH  12  13
ATOM     13  C   UNL d   1     -50.264  11.651  23.231  0.00  0.00     0.125 C 
ATOM     14  C   UNL d   1     -49.787  11.142  23.681  0.00  0.00     0.029 C 
ENDBRANCH  12  13
ENDBRANCH  11  12
BRANCH  11  15
ATOM     15  O   UNL d   1     -49.276  12.877  21.804  0.00  0.00    -0.282 OA
BRANCH  15  16
ATOM     16  C   UNL d   1     -49.512  12.454  21.140  0.00  0.00     0.125 C 
ATOM     17  C   UNL d   1     -48.988  12.325  20.518  0.00  0.00     0.029 C 
ENDBRANCH  15  16
ENDBRANCH  11  15
ENDBRANCH  10  11
ENDBRANCH   1  10
BRANCH   2  18
ATOM     18  C   UNL d   1     -47.162  13.897  22.849  0.00  0.00     0.035 A 
ATOM     19  C   UNL d   1     -46.816  13.511  23.495  0.00  0.00     0.005 A 
ATOM     20  C   UNL d   1     -46.094  13.123  23.403  0.00  0.00     0.024 A 
ATOM     21  C   UNL d   1     -45.717  13.122  22.665  0.00  0.00     0.094 A 
ATOM     22  C   UNL d   1     -46.064  13.507  22.023  0.00  0.00     0.024 A 
ATOM     23  C   UNL d   1     -46.786  13.895  22.115  0.00  0.00     0.005 A 
BRANCH  21  24
ATOM     24  O   UNL d   1     -44.994  12.735  22.573  0.00  0.00    -0.328 OA
ATOM     25  C   UNL d   1     -44.506  12.920  21.929  0.00  0.00     0.181 C 
ENDBRANCH  21  24
ENDBRANCH   2  18
TORSDOF 8
ENDMDL
MODEL 3
REMARK VINA RESULT:      -5.0      1.186      2.449
REMARK  8 active torsions:
REMARK  status: ('A' for Active; 'I' for Inactive)
REMARK    1  A    between atoms: C_6  and  N_1 
REMARK    2  A    between atoms: C_7  and  C_2 
REMARK    3  A    between atoms: C_8  and  C_6 
REMARK    4  A    between atoms: O_14  and  C_8 
REMARK    5  A    between atoms: O_15  and  C_8 
REMARK    6  A    between atoms: O_18  and  C_11 
REMARK    7  A    between atoms: C_20  and  O_14 
REMARK    8  A    between atoms: C_19  and  O_15 
ROOT
ATOM      1  N   UNL d   1     -48.849  13.002  23.291  0.00  0.00    -0.286 N 
ATOM      2  C   UNL d   1     -48.209  12.490  23.181  0.00  0.00     0.148 A 
ATOM      3  N   UNL d   1     -48.515  11.727  23.260  0.00  0.00    -0.227 NA
ATOM      4  C   UNL d   1     -49.513  12.569  23.430  0.00  0.00     0.083 A 
ATOM      5  C   UNL d   1     -49.304  11.770  23.411  0.00  0.00     0.099 A 
ATOM      6  C   UNL d   1     -50.297  12.790  23.576  0.00  0.00     0.019 A 
ATOM      7  C   UNL d   1     -49.884  11.216  23.537  0.00  0.00     0.021 A 
ATOM      8  C   UNL d   1     -50.844  12.213  23.696  0.00  0.00     0.002 A 
ATOM      9  C   UNL d   1     -50.635  11.414  23.676  0.00  0.00     0.002 A 
ENDROOT
BRANCH   1  10
ATOM     10  C   UNL d   1     -48.807  13.809  23.262  0.00  0.00     0.133 C 
BRANCH  10  11
ATOM     11  C   UNL d   1     -49.438  14.225  22.906  0.00  0.00     0.222 C 
BRANCH  11  12
ATOM     12  O   UNL d   1     -49.561  14.190  22.088  0.00  0.00    -0.282 OA
BRANCH  12  13
ATOM     13  C   UNL d   1     -49.769  14.549  21.387  0.00  0.00     0.125 C 
ATOM     14  C   UNL d   1     -49.427  14.288  20.678  0.00  0.00     0.029 C 
ENDBRANCH  12  13
ENDBRANCH  11  12
BRANCH  11  15
ATOM     15  O   UNL d   1     -49.964  14.694  23.376  0.00  0.00    -0.282 OA
BRANCH  15  16
ATOM     16  C   UNL d   1     -49.973  15.451  23.698  0.00  0.00     0.125 C 
ATOM     17  C   UNL d   1     -50.646  15.922  23.640  0.00  0.00     0.029 C 
ENDBRANCH  15  16
ENDBRANCH  11  15
ENDBRANCH  10  11
ENDBRANCH   1  10
BRANCH   2  18
ATOM     18  C   UNL d   1     -47.427  12.699  23.025  0.00  0.00     0.035 A 
ATOM     19  C   UNL d   1     -46.989  13.112  23.595  0.00  0.00     0.005 A 
ATOM     20  C   UNL d   1     -46.207  13.322  23.438  0.00  0.00     0.024 A 
ATOM     21  C   UNL d   1     -45.862  13.117  22.713  0.00  0.00     0.094 A 
ATOM     22  C   UNL d   1     -46.300  12.706  22.148  0.00  0.00     0.024 A 
ATOM     23  C   UNL d   1     -47.082  12.497  22.304  0.00  0.00     0.005 A 
BRANCH  21  24
ATOM     24  O   UNL d   1     -45.079  13.327  22.557  0.00  0.00    -0.328 OA
ATOM     25  C   UNL d   1     -44.791  13.300  21.779  0.00  0.00     0.181 C 
ENDBRANCH  21  24
ENDBRANCH   2  18
TORSDOF 8
ENDMDL
MODEL 4
REMARK VINA RESULT:      -4.6      9.296     10.693
REMARK  8 active torsions:
REMARK  status: ('A' for Active; 'I' for Inactive)
REMARK    1  A    between atoms: C_6  and  N_1 
REMARK    2  A    between atoms: C_7  and  C_2 
REMARK    3  A    between atoms: C_8  and  C_6 
REMARK    4  A    between atoms: O_14  and  C_8 
REMARK    5  A    between atoms: O_15  and  C_8 
REMARK    6  A    between atoms: O_18  and  C_11 
REMARK    7  A    between atoms: C_20  and  O_14 
REMARK    8  A    between atoms: C_19  and  O_15 
ROOT
ATOM      1  N   UNL d   1     -39.761  15.542  18.085  0.00  0.00    -0.286 N 
ATOM      2  C   UNL d   1     -39.973  15.524  18.884  0.00  0.00     0.148 A 
ATOM      3  N   UNL d   1     -40.789  15.642  18.904  0.00  0.00    -0.227 NA
ATOM      4  C   UNL d   1     -40.420  15.666  17.640  0.00  0.00     0.083 A 
ATOM      5  C   UNL d   1     -41.064  15.729  18.153  0.00  0.00     0.099 A 
ATOM      6  C   UNL d   1     -40.530  15.733  16.823  0.00  0.00     0.019 A 
ATOM      7  C   UNL d   1     -41.800  15.856  17.833  0.00  0.00     0.021 A 
ATOM      8  C   UNL d   1     -41.274  15.859  16.544  0.00  0.00     0.002 A 
ATOM      9  C   UNL d   1     -41.918  15.922  17.057  0.00  0.00     0.002 A 
ENDROOT
BRANCH   1  10
ATOM     10  C   UNL d   1     -39.009  15.449  17.803  0.00  0.00     0.133 C 
BRANCH  10  11
ATOM     11  C   UNL d   1     -38.885  14.911  17.177  0.00  0.00     0.222 C 
BRANCH  11  12
ATOM     12  O   UNL d   1     -38.937  14.094  17.303  0.00  0.00    -0.282 OA
BRANCH  12  13
ATOM     13  C   UNL d   1     -38.834  13.329  17.042  0.00  0.00     0.125 C 
ATOM     14  C   UNL d   1     -38.469  12.774  17.540  0.00  0.00     0.029 C 
ENDBRANCH  12  13
ENDBRANCH  11  12
BRANCH  11  15
ATOM     15  O   UNL d   1     -38.702  15.190  16.399  0.00  0.00    -0.282 OA
BRANCH  15  16
ATOM     16  C   UNL d   1     -38.038  15.234  15.914  0.00  0.00     0.125 C 
ATOM     17  C   UNL d   1     -37.940  15.866  15.396  0.00  0.00     0.029 C 
ENDBRANCH  15  16
ENDBRANCH  11  15
ENDBRANCH  10  11
ENDBRANCH   1  10
BRANCH   2  18
ATOM     18  C   UNL d   1     -39.471  15.410  19.529  0.00  0.00     0.035 A 
ATOM     19  C   UNL d   1     -39.607  14.781  20.052  0.00  0.00     0.005 A 
ATOM     20  C   UNL d   1     -39.105  14.668  20.696  0.00  0.00     0.024 A 
ATOM     21  C   UNL d   1     -38.467  15.183  20.819  0.00  0.00     0.094 A 
ATOM     22  C   UNL d   1     -38.334  15.808  20.297  0.00  0.00     0.024 A 
ATOM     23  C   UNL d   1     -38.836  15.921  19.652  0.00  0.00     0.005 A 
BRANCH  21  24
ATOM     24  O   UNL d   1     -37.965  15.069  21.463  0.00  0.00    -0.328 OA
ATOM     25  C   UNL d   1     -38.283  14.985  22.224  0.00  0.00     0.181 C 
ENDBRANCH  21  24
ENDBRANCH   2  18
TORSDOF 8
ENDMDL
MODEL 5
REMARK VINA RESULT:      -3.4      1.414      2.039
REMARK  8 active torsions:
REMARK  status: ('A' for Active; 'I' for Inactive)
REMARK    1  A    between atoms: C_6  and  N_1 
REMARK    2  A    between atoms: C_7  and  C_2 
REMARK    3  A    between atoms: C_8  and  C_6 
REMARK    4  A    between atoms: O_14  and  C_8 
REMARK    5  A    between atoms: O_15  and  C_8 
REMARK    6  A    between atoms: O_18  and  C_11 
REMARK    7  A    between atoms: C_20  and  O_14 
REMARK    8  A    between atoms: C_19  and  O_15 
ROOT
ATOM      1  N   UNL d   1     -47.741  13.268  23.156  0.00  0.00    -0.286 N 
ATOM      2  C   UNL d   1     -46.922  13.170  23.107  0.00  0.00     0.148 A 
ATOM      3  N   UNL d   1     -46.620  13.904  22.882  0.00  0.00    -0.227 NA
ATOM      4  C   UNL d   1     -47.928  14.028  22.969  0.00  0.00     0.083 A 
ATOM      5  C   UNL d   1     -47.225  14.427  22.797  0.00  0.00     0.099 A 
ATOM      6  C   UNL d   1     -48.653  14.424  22.928  0.00  0.00     0.019 A 
ATOM      7  C   UNL d   1     -47.269  15.211  22.590  0.00  0.00     0.021 A 
ATOM      8  C   UNL d   1     -48.655  15.201  22.720  0.00  0.00     0.002 A 
ATOM      9  C   UNL d   1     -47.953  15.600  22.548  0.00  0.00     0.002 A 
ENDROOT
BRANCH   1  10
ATOM     10  C   UNL d   1     -48.266  12.687  23.360  0.00  0.00     0.133 C 
BRANCH  10  11
ATOM     11  C   UNL d   1     -48.926  12.558  22.865  0.00  0.00     0.222 C 
BRANCH  11  12
ATOM     12  O   UNL d   1     -48.826  12.330  22.075  0.00  0.00    -0.282 OA
BRANCH  12  13
ATOM     13  C   UNL d   1     -49.127  12.221  21.326  0.00  0.00     0.125 C 
ATOM     14  C   UNL d   1     -48.710  11.752  20.783  0.00  0.00     0.029 C 
ENDBRANCH  12  13
ENDBRANCH  11  12
BRANCH  11  15
ATOM     15  O   UNL d   1     -49.713  12.658  23.161  0.00  0.00    -0.282 OA
BRANCH  15  16
ATOM     16  C   UNL d   1     -50.316  12.176  23.444  0.00  0.00     0.125 C 
ATOM     17  C   UNL d   1     -51.028  12.502  23.697  0.00  0.00     0.029 C 
ENDBRANCH  15  16
ENDBRANCH  11  15
ENDBRANCH  10  11
ENDBRANCH   1  10
BRANCH   2  18
ATOM     18  C   UNL d   1     -46.494  12.480  23.254  0.00  0.00     0.035 A 
ATOM     19  C   UNL d   1     -46.881  11.810  23.551  0.00  0.00     0.005 A 
ATOM     20  C   UNL d   1     -46.454  11.120  23.697  0.00  0.00     0.024 A 
ATOM     21  C   UNL d   1     -45.639  11.099  23.546  0.00  0.00     0.094 A 
ATOM     22  C   UNL d   1     -45.256  11.767  23.251  0.00  0.00     0.024 A 
ATOM     23  C   UNL d   1     -45.684  12.458  23.104  0.00  0.00     0.005 A 
BRANCH  21  24
ATOM     24  O   UNL d   1     -45.211  10.409  23.693  0.00  0.00    -0.328 OA
ATOM     25  C   UNL d   1     -44.734  10.085  23.098  0.00  0.00     0.181 C 
ENDBRANCH  21  24
ENDBRANCH   2  18
TORSDOF 8
ENDMDL
MODEL 6
REMARK VINA RESULT:      -3.2      7.747     10.036
REMARK  8 active torsions:
REMARK  status: ('A' for Active; 'I' for Inactive)
REMARK    1  A    between atoms: C_6  and  N_1 
REMARK    2  A    between atoms: C_7  and  C_2 
REMARK    3  A    between atoms: C_8  and  C_6 
REMARK    4  A    between atoms: O_14  and  C_8 
REMARK    5  A    between atoms: O_15  and  C_8 
REMARK    6  A    between atoms: O_18  and  C_11 
REMARK    7  A    between atoms: C_20  and  O_14 
REMARK    8  A    between atoms: C_19  and  O_15 
ROOT
ATOM      1  N   UNL d   1     -40.135  14.743  19.820  0.00  0.00    -0.286 N 
ATOM      2  C   UNL d   1     -40.267  14.472  19.050  0.00  0.00     0.148 A 
ATOM      3  N   UNL d   1     -40.974  14.048  19.078  0.00  0.00    -0.227 NA
ATOM      4  C   UNL d   1     -40.736  14.493  20.294  0.00  0.00     0.083 A 
ATOM      5  C   UNL d   1     -41.262  14.058  19.829  0.00  0.00     0.099 A 
ATOM      6  C   UNL d   1     -40.886  14.602  21.101  0.00  0.00     0.019 A 
ATOM      7  C   UNL d   1     -41.921  13.744  20.184  0.00  0.00     0.021 A 
ATOM      8  C   UNL d   1     -41.549  14.276  21.417  0.00  0.00     0.002 A 
ATOM      9  C   UNL d   1     -42.075  13.840  20.951  0.00  0.00     0.002 A 
ENDROOT
BRANCH   1  10
ATOM     10  C   UNL d   1     -39.501  15.187  20.053  0.00  0.00     0.133 C 
BRANCH  10  11
ATOM     11  C   UNL d   1     -39.066  14.936  20.721  0.00  0.00     0.222 C 
BRANCH  11  12
ATOM     12  O   UNL d   1     -38.635  14.230  20.705  0.00  0.00    -0.282 OA
BRANCH  12  13
ATOM     13  C   UNL d   1     -37.940  13.822  20.822  0.00  0.00     0.125 C 
ATOM     14  C   UNL d   1     -37.942  13.136  21.290  0.00  0.00     0.029 C 
ENDBRANCH  12  13
ENDBRANCH  11  12
BRANCH  11  15
ATOM     15  O   UNL d   1     -39.057  15.401  21.429  0.00  0.00    -0.282 OA
BRANCH  15  16
ATOM     16  C   UNL d   1     -38.493  15.688  21.954  0.00  0.00     0.125 C 
ATOM     17  C   UNL d   1     -38.709  15.922  22.713  0.00  0.00     0.029 C 
ENDBRANCH  15  16
ENDBRANCH  11  15
ENDBRANCH  10  11
ENDBRANCH   1  10
BRANCH   2  18
ATOM     18  C   UNL d   1     -39.789  14.600  18.390  0.00  0.00     0.035 A 
ATOM     19  C   UNL d   1     -39.683  15.369  18.101  0.00  0.00     0.005 A 
ATOM     20  C   UNL d   1     -39.205  15.497  17.441  0.00  0.00     0.024 A 
ATOM     21  C   UNL d   1     -38.833  14.856  17.070  0.00  0.00     0.094 A 
ATOM     22  C   UNL d   1     -38.940  14.092  17.360  0.00  0.00     0.024 A 
ATOM     23  C   UNL d   1     -39.418  13.963  18.020  0.00  0.00     0.005 A 
BRANCH  21  24
ATOM     24  O   UNL d   1     -38.355  14.984  16.410  0.00  0.00    -0.328 OA
ATOM     25  C   UNL d   1     -38.452  14.517  15.732  0.00  0.00     0.181 C 
ENDBRANCH  21  24
ENDBRANCH   2  18
TORSDOF 8
ENDMDL
