MODEL 1
REMARK VINA RESULT:      -2.5      0.000      0.000
REMARK  4 active torsions:
REMARK  status: ('A' for Active; 'I' for Inactive)
REMARK    1  A    between atoms: N_2  and  S_1 
REMARK    2  A    between atoms: C_3  and  S_1 
REMARK    3  A    between atoms: O_15  and  C_11 
REMARK    4  A    between atoms: O_17  and  C_13 
ROOT
ATOM      1  C   UNL d   1      31.535  17.020 -23.992  0.00  0.00     0.128 A 
ATOM      2  C   UNL d   1      31.695  17.755 -23.641  0.00  0.00     0.039 A 
ATOM      3  C   UNL d   1      32.137  16.601 -24.356  0.00  0.00     0.106 A 
ATOM      4  C   UNL d   1      32.904  16.914 -24.372  0.00  0.00     0.027 A 
ATOM      5  C   UNL d   1      32.454  18.062 -23.658  0.00  0.00     0.095 A 
ATOM      6  C   UNL d   1      33.061  17.641 -24.024  0.00  0.00     0.026 A 
ENDROOT
BRANCH   1   7
ATOM      7  S   UNL d   1      30.771  16.705 -23.978  0.00  0.00     0.274 S 
ATOM      8  O   UNL d   1      30.621  17.015 -24.725  0.00  0.00    -0.199 OA
ATOM      9  O   UNL d   1      30.920  16.394 -23.228  0.00  0.00    -0.199 OA
BRANCH   7  10
ATOM     10  N   UNL d   1      30.018  16.391 -23.956  0.00  0.00    -0.213 N 
ATOM     11  C   UNL d   1      29.372  16.734 -24.272  0.00  0.00     0.157 A 
ATOM     12  N   UNL d   1      28.709  16.237 -24.132  0.00  0.00    -0.224 NA
ATOM     13  C   UNL d   1      29.273  17.446 -24.682  0.00  0.00     0.041 C 
ATOM     14  C   UNL d   1      28.996  15.588 -23.719  0.00  0.00     0.120 A 
ATOM     15  C   UNL d   1      29.827  15.691 -23.610  0.00  0.00     0.114 A 
ENDBRANCH   7  10
ENDBRANCH   1   7
BRANCH   3  16
ATOM     16  O   UNL d   1      31.978  15.867 -24.707  0.00  0.00    -0.327 OA
ATOM     17  C   UNL d   1      32.581  15.463 -25.094  0.00  0.00     0.181 C 
ENDBRANCH   3  16
BRANCH   5  18
ATOM     18  O   UNL d   1      32.612  18.794 -23.309  0.00  0.00    -0.328 OA
ATOM     19  C   UNL d   1      33.239  19.251 -23.585  0.00  0.00     0.181 C 
ENDBRANCH   5  18
TORSDOF 4
ENDMDL
MODEL 2
REMARK VINA RESULT:      -2.4      1.636      3.285
REMARK  4 active torsions:
REMARK  status: ('A' for Active; 'I' for Inactive)
REMARK    1  A    between atoms: N_2  and  S_1 
REMARK    2  A    between atoms: C_3  and  S_1 
REMARK    3  A    between atoms: O_15  and  C_11 
REMARK    4  A    between atoms: O_17  and  C_13 
ROOT
ATOM      1  C   UNL d   1      31.727  16.871 -24.149  0.00  0.00     0.128 A 
ATOM      2  C   UNL d   1      30.976  16.855 -23.798  0.00  0.00     0.039 A 
ATOM      3  C   UNL d   1      32.052  16.184 -24.454  0.00  0.00     0.106 A 
ATOM      4  C   UNL d   1      31.626  15.475 -24.409  0.00  0.00     0.027 A 
ATOM      5  C   UNL d   1      30.557  16.152 -23.755  0.00  0.00     0.095 A 
ATOM      6  C   UNL d   1      30.883  15.459 -24.061  0.00  0.00     0.026 A 
ENDROOT
BRANCH   1   7
ATOM      7  S   UNL d   1      32.154  17.578 -24.195  0.00  0.00     0.274 S 
ATOM      8  O   UNL d   1      32.644  17.332 -23.582  0.00  0.00    -0.199 OA
ATOM      9  O   UNL d   1      31.663  17.827 -24.811  0.00  0.00    -0.199 OA
BRANCH   7  10
ATOM     10  N   UNL d   1      32.570  18.279 -24.248  0.00  0.00    -0.213 N 
ATOM     11  C   UNL d   1      32.841  18.694 -23.624  0.00  0.00     0.157 A 
ATOM     12  N   UNL d   1      33.238  19.377 -23.910  0.00  0.00    -0.224 NA
ATOM     13  C   UNL d   1      32.791  18.559 -22.810  0.00  0.00     0.041 C 
ATOM     14  C   UNL d   1      33.187  19.343 -24.729  0.00  0.00     0.120 A 
ATOM     15  C   UNL d   1      32.762  18.644 -24.938  0.00  0.00     0.114 A 
ENDBRANCH   7  10
ENDBRANCH   1   7
BRANCH   3  16
ATOM     16  O   UNL d   1      32.803  16.200 -24.805  0.00  0.00    -0.327 OA
ATOM     17  C   UNL d   1      33.129  15.504 -25.097  0.00  0.00     0.181 C 
ENDBRANCH   3  16
BRANCH   5  18
ATOM     18  O   UNL d   1      29.809  16.137 -23.405  0.00  0.00    -0.328 OA
ATOM     19  C   UNL d   1      29.590  15.494 -22.940  0.00  0.00     0.181 C 
ENDBRANCH   5  18
TORSDOF 4
ENDMDL
MODEL 3
REMARK VINA RESULT:      -1.7      1.334      1.970
REMARK  4 active torsions:
REMARK  status: ('A' for Active; 'I' for Inactive)
REMARK    1  A    between atoms: N_2  and  S_1 
REMARK    2  A    between atoms: C_3  and  S_1 
REMARK    3  A    between atoms: O_15  and  C_11 
REMARK    4  A    between atoms: O_17  and  C_13 
ROOT
ATOM      1  C   UNL d   1      30.765  16.339 -24.185  0.00  0.00     0.128 A 
ATOM      2  C   UNL d   1      31.392  15.861 -23.930  0.00  0.00     0.039 A 
ATOM      3  C   UNL d   1      30.917  17.072 -24.517  0.00  0.00     0.106 A 
ATOM      4  C   UNL d   1      31.700  17.331 -24.596  0.00  0.00     0.027 A 
ATOM      5  C   UNL d   1      32.165  16.119 -24.010  0.00  0.00     0.095 A 
ATOM      6  C   UNL d   1      32.321  16.857 -24.344  0.00  0.00     0.026 A 
ENDROOT
BRANCH   1   7
ATOM      7  S   UNL d   1      29.982  16.083 -24.107  0.00  0.00     0.274 S 
ATOM      8  O   UNL d   1      30.056  15.626 -24.788  0.00  0.00    -0.199 OA
ATOM      9  O   UNL d   1      29.907  16.542 -23.425  0.00  0.00    -0.199 OA
BRANCH   7  10
ATOM     10  N   UNL d   1      29.209  15.836 -24.023  0.00  0.00    -0.213 N 
ATOM     11  C   UNL d   1      28.850  15.697 -23.325  0.00  0.00     0.157 A 
ATOM     12  N   UNL d   1      28.060  15.453 -23.474  0.00  0.00    -0.224 NA
ATOM     13  C   UNL d   1      29.122  15.754 -22.546  0.00  0.00     0.041 C 
ATOM     14  C   UNL d   1      27.973  15.455 -24.291  0.00  0.00     0.120 A 
ATOM     15  C   UNL d   1      28.704  15.699 -24.634  0.00  0.00     0.114 A 
ENDBRANCH   7  10
ENDBRANCH   1   7
BRANCH   3  16
ATOM     16  O   UNL d   1      30.291  17.551 -24.772  0.00  0.00    -0.327 OA
ATOM     17  C   UNL d   1      30.450  18.290 -25.097  0.00  0.00     0.181 C 
ENDBRANCH   3  16
BRANCH   5  18
ATOM     18  O   UNL d   1      32.790  15.642 -23.756  0.00  0.00    -0.328 OA
ATOM     19  C   UNL d   1      33.240  15.871 -23.106  0.00  0.00     0.181 C 
ENDBRANCH   5  18
TORSDOF 4
ENDMDL
MODEL 4
REMARK VINA RESULT:      -1.6      1.677      3.460
REMARK  4 active torsions:
REMARK  status: ('A' for Active; 'I' for Inactive)
REMARK    1  A    between atoms: N_2  and  S_1 
REMARK    2  A    between atoms: C_3  and  S_1 
REMARK    3  A    between atoms: O_15  and  C_11 
REMARK    4  A    between atoms: O_17  and  C_13 
ROOT
ATOM      1  C   UNL d   1      30.452  16.327 -24.318  0.00  0.00     0.128 A 
ATOM      2  C   UNL d   1      29.858  15.810 -24.060  0.00  0.00     0.039 A 
ATOM      3  C   UNL d   1      30.258  17.082 -24.568  0.00  0.00     0.106 A 
ATOM      4  C   UNL d   1      29.466  17.325 -24.562  0.00  0.00     0.027 A 
ATOM      5  C   UNL d   1      29.075  16.052 -24.054  0.00  0.00     0.095 A 
ATOM      6  C   UNL d   1      28.877  16.812 -24.306  0.00  0.00     0.026 A 
ENDROOT
BRANCH   1   7
ATOM      7  S   UNL d   1      31.244  16.087 -24.325  0.00  0.00     0.274 S 
ATOM      8  O   UNL d   1      31.136  15.726 -25.056  0.00  0.00    -0.199 OA
ATOM      9  O   UNL d   1      31.353  16.450 -23.591  0.00  0.00    -0.199 OA
BRANCH   7  10
ATOM     10  N   UNL d   1      32.027  15.855 -24.324  0.00  0.00    -0.213 N 
ATOM     11  C   UNL d   1      32.450  15.687 -23.669  0.00  0.00     0.157 A 
ATOM     12  N   UNL d   1      33.227  15.471 -23.902  0.00  0.00    -0.224 NA
ATOM     13  C   UNL d   1      32.248  15.695 -22.867  0.00  0.00     0.041 C 
ATOM     14  C   UNL d   1      33.241  15.521 -24.722  0.00  0.00     0.120 A 
ATOM     15  C   UNL d   1      32.476  15.765 -24.984  0.00  0.00     0.114 A 
ENDBRANCH   7  10
ENDBRANCH   1   7
BRANCH   3  16
ATOM     16  O   UNL d   1      30.852  17.600 -24.826  0.00  0.00    -0.327 OA
ATOM     17  C   UNL d   1      30.649  18.355 -25.082  0.00  0.00     0.181 C 
ENDBRANCH   3  16
BRANCH   5  18
ATOM     18  O   UNL d   1      28.484  15.536 -23.797  0.00  0.00    -0.328 OA
ATOM     19  C   UNL d   1      27.756  15.838 -23.558  0.00  0.00     0.181 C 
ENDBRANCH   5  18
TORSDOF 4
ENDMDL
MODEL 5
REMARK VINA RESULT:      -1.4      2.040      3.204
REMARK  4 active torsions:
REMARK  status: ('A' for Active; 'I' for Inactive)
REMARK    1  A    between atoms: N_2  and  S_1 
REMARK    2  A    between atoms: C_3  and  S_1 
REMARK    3  A    between atoms: O_15  and  C_11 
REMARK    4  A    between atoms: O_17  and  C_13 
ROOT
ATOM      1  C   UNL d   1      32.731  19.221 -23.376  0.00  0.00     0.128 A 
ATOM      2  C   UNL d   1      32.782  19.248 -22.549  0.00  0.00     0.039 A 
ATOM      3  C   UNL d   1      32.935  19.877 -23.821  0.00  0.00     0.106 A 
ATOM      4  C   UNL d   1      33.191  20.567 -23.441  0.00  0.00     0.027 A 
ATOM      5  C   UNL d   1      33.036  19.931 -22.175  0.00  0.00     0.095 A 
ATOM      6  C   UNL d   1      33.241  20.594 -22.622  0.00  0.00     0.026 A 
ENDROOT
BRANCH   1   7
ATOM      7  S   UNL d   1      32.476  18.533 -23.759  0.00  0.00     0.274 S 
ATOM      8  O   UNL d   1      33.236  18.400 -24.045  0.00  0.00    -0.199 OA
ATOM      9  O   UNL d   1      31.712  18.666 -23.473  0.00  0.00    -0.199 OA
BRANCH   7  10
ATOM     10  N   UNL d   1      32.215  17.856 -24.133  0.00  0.00    -0.213 N 
ATOM     11  C   UNL d   1      32.433  17.115 -23.937  0.00  0.00     0.157 A 
ATOM     12  N   UNL d   1      32.045  16.577 -24.452  0.00  0.00    -0.224 NA
ATOM     13  C   UNL d   1      32.941  16.830 -23.350  0.00  0.00     0.041 C 
ATOM     14  C   UNL d   1      31.590  17.036 -24.958  0.00  0.00     0.120 A 
ATOM     15  C   UNL d   1      31.701  17.846 -24.752  0.00  0.00     0.114 A 
ENDBRANCH   7  10
ENDBRANCH   1   7
BRANCH   3  16
ATOM     16  O   UNL d   1      32.884  19.850 -24.648  0.00  0.00    -0.327 OA
ATOM     17  C   UNL d   1      33.227  20.448 -25.096  0.00  0.00     0.181 C 
ENDBRANCH   3  16
BRANCH   5  18
ATOM     18  O   UNL d   1      33.086  19.958 -21.351  0.00  0.00    -0.328 OA
ATOM     19  C   UNL d   1      32.864  20.643 -20.951  0.00  0.00     0.181 C 
ENDBRANCH   5  18
TORSDOF 4
ENDMDL
MODEL 6
REMARK VINA RESULT:      -1.4      4.855      6.698
REMARK  4 active torsions:
REMARK  status: ('A' for Active; 'I' for Inactive)
REMARK    1  A    between atoms: N_2  and  S_1 
REMARK    2  A    between atoms: C_3  and  S_1 
REMARK    3  A    between atoms: O_15  and  C_11 
REMARK    4  A    between atoms: O_17  and  C_13 
ROOT
ATOM      1  C   UNL d   1      32.702  22.345 -20.658  0.00  0.00     0.128 A 
ATOM      2  C   UNL d   1      32.982  22.353 -19.878  0.00  0.00     0.039 A 
ATOM      3  C   UNL d   1      32.332  23.006 -20.968  0.00  0.00     0.106 A 
ATOM      4  C   UNL d   1      32.239  23.681 -20.498  0.00  0.00     0.027 A 
ATOM      5  C   UNL d   1      32.888  23.023 -19.415  0.00  0.00     0.095 A 
ATOM      6  C   UNL d   1      32.515  23.690 -19.725  0.00  0.00     0.026 A 
ENDROOT
BRANCH   1   7
ATOM      7  S   UNL d   1      32.795  21.671 -21.130  0.00  0.00     0.274 S 
ATOM      8  O   UNL d   1      32.350  21.228 -20.597  0.00  0.00    -0.199 OA
ATOM      9  O   UNL d   1      33.241  22.115 -21.664  0.00  0.00    -0.199 OA
BRANCH   7  10
ATOM     10  N   UNL d   1      32.891  21.012 -21.601  0.00  0.00    -0.213 N 
ATOM     11  C   UNL d   1      33.086  20.287 -21.334  0.00  0.00     0.157 A 
ATOM     12  N   UNL d   1      33.130  19.763 -21.990  0.00  0.00    -0.224 NA
ATOM     13  C   UNL d   1      33.238  20.004 -20.572  0.00  0.00     0.041 C 
ATOM     14  C   UNL d   1      32.952  20.214 -22.652  0.00  0.00     0.120 A 
ATOM     15  C   UNL d   1      32.800  21.005 -22.400  0.00  0.00     0.114 A 
ENDBRANCH   7  10
ENDBRANCH   1   7
BRANCH   3  16
ATOM     16  O   UNL d   1      32.053  22.997 -21.749  0.00  0.00    -0.327 OA
ATOM     17  C   UNL d   1      31.729  23.681 -22.072  0.00  0.00     0.181 C 
ENDBRANCH   3  16
BRANCH   5  18
ATOM     18  O   UNL d   1      33.166  23.031 -18.637  0.00  0.00    -0.328 OA
ATOM     19  C   UNL d   1      32.683  23.316 -18.034  0.00  0.00     0.181 C 
ENDBRANCH   5  18
TORSDOF 4
ENDMDL
