MODEL 1
REMARK VINA RESULT:      -8.4      0.000      0.000
REMARK  4 active torsions:
REMARK  status: ('A' for Active; 'I' for Inactive)
REMARK    1  A    between atoms: N_10  and  C_3 
REMARK    2  A    between atoms: C_11  and  C_5 
REMARK    3  A    between atoms: C_12  and  N_10 
REMARK    4  A    between atoms: O_18  and  C_15 
ROOT
ATOM      1  N   UNL d   1      52.154  34.101  53.543  0.00  0.00    -0.184 N 
ATOM      2  C   UNL d   1      52.874  33.849  53.892  0.00  0.00     0.168 A 
ATOM      3  C   UNL d   1      51.694  33.560  53.119  0.00  0.00     0.217 A 
ATOM      4  N   UNL d   1      52.370  35.411  54.044  0.00  0.00    -0.162 NA
ATOM      5  C   UNL d   1      53.324  34.376  54.306  0.00  0.00     0.055 A 
ATOM      6  N   UNL d   1      53.108  33.065  53.805  0.00  0.00    -0.227 NA
ATOM      7  C   UNL d   1      51.938  32.790  53.042  0.00  0.00     0.066 A 
ATOM      8  C   UNL d   1      53.079  35.163  54.387  0.00  0.00     0.104 A 
ATOM      9  C   UNL d   1      52.657  32.530  53.388  0.00  0.00     0.087 A 
ATOM     10  C   UNL d   1      51.614  32.147  52.668  0.00  0.00     0.006 A 
ATOM     11  C   UNL d   1      53.541  35.691  54.808  0.00  0.00     0.023 C 
ATOM     12  C   UNL d   1      52.757  31.734  53.218  0.00  0.00     0.019 A 
ATOM     13  C   UNL d   1      52.101  31.498  52.767  0.00  0.00     0.002 A 
ENDROOT
BRANCH   3  14
ATOM     14  N   UNL d   1      50.966  33.811  52.765  0.00  0.00    -0.383 NA
BRANCH  14  15
ATOM     15  C   UNL d   1      50.279  34.197  52.465  0.00  0.00     0.135 A 
ATOM     16  C   UNL d   1      49.770  34.598  52.997  0.00  0.00     0.056 A 
ATOM     17  C   UNL d   1      49.069  34.993  52.697  0.00  0.00     0.097 A 
ATOM     18  C   UNL d   1      48.901  34.970  51.863  0.00  0.00     0.024 A 
ATOM     19  C   UNL d   1      49.420  34.564  51.338  0.00  0.00     0.005 A 
ATOM     20  C   UNL d   1      50.115  34.173  51.636  0.00  0.00     0.032 A 
BRANCH  17  21
ATOM     21  O   UNL d   1      48.557  35.395  53.219  0.00  0.00    -0.328 OA
ATOM     22  C   UNL d   1      48.222  36.141  53.001  0.00  0.00     0.181 C 
ENDBRANCH  17  21
ENDBRANCH  14  15
ENDBRANCH   3  14
BRANCH   5  23
ATOM     23  C   UNL d   1      54.029  34.129  54.647  0.00  0.00     0.004 A 
ATOM     24  C   UNL d   1      54.731  34.189  54.234  0.00  0.00     0.000 A 
ATOM     25  C   UNL d   1      55.445  33.939  54.580  0.00  0.00     0.000 A 
ATOM     26  C   UNL d   1      55.440  33.635  55.331  0.00  0.00     0.000 A 
ATOM     27  C   UNL d   1      54.733  33.574  55.752  0.00  0.00     0.000 A 
ATOM     28  C   UNL d   1      54.033  33.820  55.408  0.00  0.00     0.000 A 
ENDBRANCH   5  23
TORSDOF 4
ENDMDL
MODEL 2
REMARK VINA RESULT:      -6.9      1.838      3.441
REMARK  4 active torsions:
REMARK  status: ('A' for Active; 'I' for Inactive)
REMARK    1  A    between atoms: N_10  and  C_3 
REMARK    2  A    between atoms: C_11  and  C_5 
REMARK    3  A    between atoms: C_12  and  N_10 
REMARK    4  A    between atoms: O_18  and  C_15 
ROOT
ATOM      1  N   UNL d   1      52.606  31.758  53.454  0.00  0.00    -0.184 N 
ATOM      2  C   UNL d   1      53.041  31.152  53.838  0.00  0.00     0.168 A 
ATOM      3  C   UNL d   1      52.756  32.550  53.641  0.00  0.00     0.217 A 
ATOM      4  N   UNL d   1      51.892  30.779  52.717  0.00  0.00    -0.162 NA
ATOM      5  C   UNL d   1      52.895  30.379  53.657  0.00  0.00     0.055 A 
ATOM      6  N   UNL d   1      53.610  31.360  54.395  0.00  0.00    -0.227 NA
ATOM      7  C   UNL d   1      53.321  32.739  54.192  0.00  0.00     0.066 A 
ATOM      8  C   UNL d   1      52.320  30.182  53.095  0.00  0.00     0.104 A 
ATOM      9  C   UNL d   1      53.760  32.139  54.581  0.00  0.00     0.087 A 
ATOM     10  C   UNL d   1      53.586  33.448  54.485  0.00  0.00     0.006 A 
ATOM     11  C   UNL d   1      52.178  29.396  52.917  0.00  0.00     0.023 C 
ATOM     12  C   UNL d   1      54.284  32.493  55.102  0.00  0.00     0.019 A 
ATOM     13  C   UNL d   1      54.171  33.313  55.039  0.00  0.00     0.002 A 
ENDROOT
BRANCH   3  14
ATOM     14  N   UNL d   1      52.319  33.165  53.255  0.00  0.00    -0.383 NA
BRANCH  14  15
ATOM     15  C   UNL d   1      51.786  33.668  52.837  0.00  0.00     0.135 A 
ATOM     16  C   UNL d   1      51.047  33.859  53.184  0.00  0.00     0.056 A 
ATOM     17  C   UNL d   1      50.500  34.370  52.763  0.00  0.00     0.097 A 
ATOM     18  C   UNL d   1      50.718  34.676  51.999  0.00  0.00     0.024 A 
ATOM     19  C   UNL d   1      51.464  34.477  51.661  0.00  0.00     0.005 A 
ATOM     20  C   UNL d   1      52.005  33.970  52.079  0.00  0.00     0.032 A 
BRANCH  17  21
ATOM     21  O   UNL d   1      49.762  34.565  53.101  0.00  0.00    -0.328 OA
ATOM     22  C   UNL d   1      49.223  35.070  52.688  0.00  0.00     0.181 C 
ENDBRANCH  17  21
ENDBRANCH  14  15
ENDBRANCH   3  14
BRANCH   5  23
ATOM     23  C   UNL d   1      53.321  29.786  54.033  0.00  0.00     0.004 A 
ATOM     24  C   UNL d   1      54.033  29.531  53.725  0.00  0.00     0.000 A 
ATOM     25  C   UNL d   1      54.464  28.931  54.105  0.00  0.00     0.000 A 
ATOM     26  C   UNL d   1      54.173  28.598  54.785  0.00  0.00     0.000 A 
ATOM     27  C   UNL d   1      53.453  28.853  55.099  0.00  0.00     0.000 A 
ATOM     28  C   UNL d   1      53.032  29.444  54.721  0.00  0.00     0.000 A 
ENDBRANCH   5  23
TORSDOF 4
ENDMDL
MODEL 3
REMARK VINA RESULT:      -6.7      2.017      4.057
REMARK  4 active torsions:
REMARK  status: ('A' for Active; 'I' for Inactive)
REMARK    1  A    between atoms: N_10  and  C_3 
REMARK    2  A    between atoms: C_11  and  C_5 
REMARK    3  A    between atoms: C_12  and  N_10 
REMARK    4  A    between atoms: O_18  and  C_15 
ROOT
ATOM      1  N   UNL d   1      53.060  32.763  53.888  0.00  0.00    -0.184 N 
ATOM      2  C   UNL d   1      52.965  33.585  54.027  0.00  0.00     0.168 A 
ATOM      3  C   UNL d   1      52.466  32.343  53.495  0.00  0.00     0.217 A 
ATOM      4  N   UNL d   1      54.325  32.802  54.530  0.00  0.00    -0.162 NA
ATOM      5  C   UNL d   1      53.544  33.996  54.410  0.00  0.00     0.055 A 
ATOM      6  N   UNL d   1      52.278  33.957  53.768  0.00  0.00    -0.227 NA
ATOM      7  C   UNL d   1      51.794  32.724  53.246  0.00  0.00     0.066 A 
ATOM      8  C   UNL d   1      54.231  33.611  54.667  0.00  0.00     0.104 A 
ATOM      9  C   UNL d   1      51.691  33.546  53.381  0.00  0.00     0.087 A 
ATOM     10  C   UNL d   1      51.131  32.467  52.856  0.00  0.00     0.006 A 
ATOM     11  C   UNL d   1      54.813  34.035  55.054  0.00  0.00     0.023 C 
ATOM     12  C   UNL d   1      50.967  33.774  53.071  0.00  0.00     0.019 A 
ATOM     13  C   UNL d   1      50.620  33.094  52.742  0.00  0.00     0.002 A 
ENDROOT
BRANCH   3  14
ATOM     14  N   UNL d   1      52.559  31.513  53.353  0.00  0.00    -0.383 NA
BRANCH  14  15
ATOM     15  C   UNL d   1      52.756  30.693  53.320  0.00  0.00     0.135 A 
ATOM     16  C   UNL d   1      52.734  30.239  54.024  0.00  0.00     0.056 A 
ATOM     17  C   UNL d   1      52.933  29.404  53.998  0.00  0.00     0.097 A 
ATOM     18  C   UNL d   1      53.150  29.051  53.254  0.00  0.00     0.024 A 
ATOM     19  C   UNL d   1      53.168  29.518  52.553  0.00  0.00     0.005 A 
ATOM     20  C   UNL d   1      52.970  30.345  52.581  0.00  0.00     0.032 A 
BRANCH  17  21
ATOM     21  O   UNL d   1      52.915  28.945  54.694  0.00  0.00    -0.328 OA
ATOM     22  C   UNL d   1      53.599  28.512  54.940  0.00  0.00     0.181 C 
ENDBRANCH  17  21
ENDBRANCH  14  15
ENDBRANCH   3  14
BRANCH   5  23
ATOM     23  C   UNL d   1      53.450  34.800  54.546  0.00  0.00     0.004 A 
ATOM     24  C   UNL d   1      53.135  35.066  55.252  0.00  0.00     0.000 A 
ATOM     25  C   UNL d   1      53.040  35.880  55.389  0.00  0.00     0.000 A 
ATOM     26  C   UNL d   1      53.263  36.411  54.818  0.00  0.00     0.000 A 
ATOM     27  C   UNL d   1      53.582  36.147  54.105  0.00  0.00     0.000 A 
ATOM     28  C   UNL d   1      53.673  35.345  53.973  0.00  0.00     0.000 A 
ENDBRANCH   5  23
TORSDOF 4
ENDMDL
