MODEL 1
REMARK VINA RESULT:      42.7      0.000      0.000
REMARK  7 active torsions:
REMARK  status: ('A' for Active; 'I' for Inactive)
REMARK    1  A    between atoms: N_2  and  S_1 
REMARK    2  A    between atoms: C_5  and  S_1 
REMARK    3  A    between atoms: C_3  and  N_2 
REMARK    4  A    between atoms: C_4  and  C_3 
REMARK    5  A    between atoms: C_13  and  C_3 
REMARK    6  A    between atoms: C_9  and  C_8 
REMARK    7  A    between atoms: O_22  and  C_19 
ROOT
ATOM      1  C   UNL d   1      13.737  13.101  -2.996  0.00  0.00     0.105 A 
ATOM      2  C   UNL d   1      13.630  14.296  -4.124  0.00  0.00     0.000 A 
ATOM      3  C   UNL d   1      14.073  13.837  -2.845  0.00  0.00     0.013 A 
ATOM      4  C   UNL d   1      13.347  12.962  -3.710  0.00  0.00     0.013 A 
ATOM      5  C   UNL d   1      13.294  13.559  -4.273  0.00  0.00     0.001 A 
ATOM      6  C   UNL d   1      14.019  14.435  -3.410  0.00  0.00     0.001 A 
ENDROOT
BRANCH   1   7
ATOM      7  S   UNL d   1      13.789  12.493  -2.425  0.00  0.00     0.285 S 
ATOM      8  O   UNL d   1      13.395  11.974  -2.946  0.00  0.00    -0.198 OA
ATOM      9  O   UNL d   1      14.184  13.017  -1.909  0.00  0.00    -0.198 OA
BRANCH   7  10
ATOM     10  N   UNL d   1      13.842  11.891  -1.859  0.00  0.00    -0.152 NA
BRANCH  10  11
ATOM     11  C   UNL d   1      14.370  11.961  -1.221  0.00  0.00     0.158 C 
BRANCH  11  12
ATOM     12  C   UNL d   1      15.177  11.840  -1.342  0.00  0.00     0.230 C 
ATOM     13  O   UNL d   1      15.475  11.779  -2.106  0.00  0.00    -0.643 OA
ATOM     14  O   UNL d   1      15.685  11.779  -0.696  0.00  0.00    -0.643 OA
ENDBRANCH  11  12
BRANCH  11  15
ATOM     15  C   UNL d   1      14.088  12.151  -0.472  0.00  0.00     0.025 C 
ATOM     16  C   UNL d   1      13.403  11.779  -0.176  0.00  0.00     0.002 C 
ATOM     17  C   UNL d   1      14.485  12.710  -0.014  0.00  0.00     0.002 C 
ENDBRANCH  11  15
ENDBRANCH  10  11
ENDBRANCH   7  10
ENDBRANCH   1   7
BRANCH   2  18
ATOM     18  C   UNL d   1      13.577  14.893  -4.687  0.00  0.00     0.000 A 
ATOM     19  C   UNL d   1      14.189  15.005  -5.226  0.00  0.00     0.002 A 
ATOM     20  C   UNL d   1      14.139  15.607  -5.796  0.00  0.00     0.024 A 
ATOM     21  C   UNL d   1      13.467  16.098  -5.821  0.00  0.00     0.094 A 
ATOM     22  C   UNL d   1      12.851  15.983  -5.276  0.00  0.00     0.024 A 
ATOM     23  C   UNL d   1      12.904  15.385  -4.712  0.00  0.00     0.002 A 
BRANCH  21  24
ATOM     24  O   UNL d   1      13.411  16.700  -6.388  0.00  0.00    -0.328 OA
ATOM     25  C   UNL d   1      12.777  17.242  -6.362  0.00  0.00     0.181 C 
ENDBRANCH  21  24
ENDBRANCH   2  18
TORSDOF 7
ENDMDL
