MODEL 1
REMARK VINA RESULT:      -3.9      0.000      0.000
REMARK  10 active torsions:
REMARK  status: ('A' for Active; 'I' for Inactive)
REMARK    1  A    between atoms: N_11  and  C_1 
REMARK    2  A    between atoms: C_12  and  C_2 
REMARK    3  A    between atoms: C_4  and  S_15 
REMARK    4  A    between atoms: C_18  and  C_6 
REMARK       I    between atoms: C_16  and  N_11 
REMARK    5  A    between atoms: O_28  and  C_12 
REMARK       I    between atoms: C_13  and  N_17 
REMARK    6  A    between atoms: C_14  and  C_13 
REMARK    7  A    between atoms: S_15  and  C_26 
REMARK    8  A    between atoms: C_26  and  C_16 
REMARK    9  A    between atoms: N_17  and  C_18 
REMARK   10  A    between atoms: C_32  and  O_28 
ROOT
ATOM      1  C   UNL d   1     -39.538  15.310  20.105  0.00  0.00     0.101 C 
ENDROOT
BRANCH   1   2
ATOM      2  S   UNL d   1     -39.736  15.025  20.799  0.00  0.00    -0.043 SA
BRANCH   2   3
ATOM      3  C   UNL d   1     -40.547  14.856  20.912  0.00  0.00     0.202 A 
ATOM      4  N   UNL d   1     -40.787  14.096  21.136  0.00  0.00    -0.265 N 
ATOM      5  C   UNL d   1     -41.609  14.101  21.203  0.00  0.00     0.190 A 
ATOM      6  C   UNL d   1     -40.280  13.428  21.272  0.00  0.00     0.103 C 
ATOM      7  N   UNL d   1     -41.884  14.867  21.022  0.00  0.00    -0.126 NA
ATOM      8  N   UNL d   1     -41.229  15.333  20.842  0.00  0.00    -0.121 NA
BRANCH   5   9
ATOM      9  C   UNL d   1     -42.084  13.461  21.414  0.00  0.00     0.141 C 
BRANCH   9  10
ATOM     10  N   UNL d   1     -42.899  13.553  21.489  0.00  0.00    -0.202 NA
ATOM     11  C   UNL d   1     -43.362  12.941  21.792  0.00  0.00     0.302 C 
ATOM     12  O   UNL d   1     -43.002  12.231  22.020  0.00  0.00    -0.263 OA
BRANCH  11  13
ATOM     13  C   UNL d   1     -44.192  13.035  21.868  0.00  0.00     0.158 A 
ATOM     14  O   UNL d   1     -44.629  13.764  21.776  0.00  0.00    -0.300 OA
ATOM     15  C   UNL d   1     -45.449  13.594  21.903  0.00  0.00     0.123 A 
ATOM     16  C   UNL d   1     -45.527  12.763  22.073  0.00  0.00     0.029 A 
ATOM     17  C   UNL d   1     -44.754  12.419  22.052  0.00  0.00     0.032 A 
ENDBRANCH  11  13
ENDBRANCH   9  10
ENDBRANCH   5   9
ENDBRANCH   2   3
ENDBRANCH   1   2
BRANCH   1  18
ATOM     18  C   UNL d   1     -38.769  15.614  19.821  0.00  0.00     0.286 C 
ATOM     19  N   UNL d   1     -38.616  15.740  18.834  0.00  0.00    -0.201 NA
ATOM     20  O   UNL d   1     -38.194  15.790  20.338  0.00  0.00    -0.265 OA
BRANCH  19  21
ATOM     21  C   UNL d   1     -39.227  15.552  18.285  0.00  0.00     0.119 A 
ATOM     22  C   UNL d   1     -39.116  15.028  17.761  0.00  0.00     0.088 A 
ATOM     23  C   UNL d   1     -40.312  15.211  17.300  0.00  0.00     0.013 A 
ATOM     24  C   UNL d   1     -40.839  15.035  16.811  0.00  0.00     0.001 A 
ATOM     25  C   UNL d   1     -40.423  15.738  17.827  0.00  0.00     0.031 A 
ATOM     26  C   UNL d   1     -41.506  15.391  16.837  0.00  0.00     0.001 A 
ATOM     27  C   UNL d   1     -41.619  15.921  17.367  0.00  0.00     0.006 A 
ATOM     28  S   UNL d   1     -39.890  15.910  18.315  0.00  0.00    -0.068 SA
BRANCH  22  29
ATOM     29  C   UNL d   1     -38.503  14.555  17.574  0.00  0.00     0.302 C 
ATOM     30  O   UNL d   1     -37.948  14.831  17.202  0.00  0.00    -0.259 OA
BRANCH  29  31
ATOM     31  O   UNL d   1     -38.524  13.754  17.817  0.00  0.00    -0.271 OA
BRANCH  31  32
ATOM     32  C   UNL d   1     -38.162  13.039  17.583  0.00  0.00     0.126 C 
ATOM     33  C   UNL d   1     -38.270  12.244  17.756  0.00  0.00     0.029 C 
ENDBRANCH  31  32
ENDBRANCH  29  31
ENDBRANCH  22  29
ENDBRANCH  19  21
ENDBRANCH   1  18
TORSDOF 10
ENDMDL
MODEL 2
REMARK VINA RESULT:      -1.9      3.448      8.084
REMARK  10 active torsions:
REMARK  status: ('A' for Active; 'I' for Inactive)
REMARK    1  A    between atoms: N_11  and  C_1 
REMARK    2  A    between atoms: C_12  and  C_2 
REMARK    3  A    between atoms: C_4  and  S_15 
REMARK    4  A    between atoms: C_18  and  C_6 
REMARK       I    between atoms: C_16  and  N_11 
REMARK    5  A    between atoms: O_28  and  C_12 
REMARK       I    between atoms: C_13  and  N_17 
REMARK    6  A    between atoms: C_14  and  C_13 
REMARK    7  A    between atoms: S_15  and  C_26 
REMARK    8  A    between atoms: C_26  and  C_16 
REMARK    9  A    between atoms: N_17  and  C_18 
REMARK   10  A    between atoms: C_32  and  O_28 
ROOT
ATOM      1  C   UNL d   1     -46.300  13.166  22.586  0.00  0.00     0.101 C 
ENDROOT
BRANCH   1   2
ATOM      2  S   UNL d   1     -45.685  12.696  22.526  0.00  0.00    -0.043 SA
BRANCH   2   3
ATOM      3  C   UNL d   1     -45.060  12.966  22.040  0.00  0.00     0.202 A 
ATOM      4  N   UNL d   1     -44.317  12.603  22.077  0.00  0.00    -0.265 N 
ATOM      5  C   UNL d   1     -43.822  12.987  21.539  0.00  0.00     0.190 A 
ATOM      6  C   UNL d   1     -44.099  11.953  22.578  0.00  0.00     0.103 C 
ATOM      7  N   UNL d   1     -44.257  13.591  21.165  0.00  0.00    -0.126 NA
ATOM      8  N   UNL d   1     -45.021  13.578  21.474  0.00  0.00    -0.121 NA
BRANCH   5   9
ATOM      9  C   UNL d   1     -43.030  12.807  21.393  0.00  0.00     0.141 C 
BRANCH   9  10
ATOM     10  N   UNL d   1     -42.574  13.296  20.913  0.00  0.00    -0.202 NA
ATOM     11  C   UNL d   1     -41.766  13.385  21.056  0.00  0.00     0.302 C 
ATOM     12  O   UNL d   1     -41.416  12.977  21.686  0.00  0.00    -0.263 OA
BRANCH  11  13
ATOM     13  C   UNL d   1     -41.301  13.883  20.566  0.00  0.00     0.158 A 
ATOM     14  O   UNL d   1     -41.185  13.799  19.725  0.00  0.00    -0.300 OA
ATOM     15  C   UNL d   1     -40.676  14.426  19.468  0.00  0.00     0.123 A 
ATOM     16  C   UNL d   1     -40.474  14.901  20.145  0.00  0.00     0.029 A 
ATOM     17  C   UNL d   1     -40.859  14.567  20.821  0.00  0.00     0.032 A 
ENDBRANCH  11  13
ENDBRANCH   9  10
ENDBRANCH   5   9
ENDBRANCH   2   3
ENDBRANCH   1   2
BRANCH   1  18
ATOM     18  C   UNL d   1     -46.520  13.726  23.220  0.00  0.00     0.286 C 
ATOM     19  N   UNL d   1     -47.484  13.986  23.344  0.00  0.00    -0.201 NA
ATOM     20  O   UNL d   1     -45.961  14.028  23.696  0.00  0.00    -0.265 OA
BRANCH  19  21
ATOM     21  C   UNL d   1     -48.076  13.666  22.838  0.00  0.00     0.119 A 
ATOM     22  C   UNL d   1     -48.618  14.105  22.567  0.00  0.00     0.088 A 
ATOM     23  C   UNL d   1     -49.138  13.103  21.934  0.00  0.00     0.013 A 
ATOM     24  C   UNL d   1     -49.666  12.835  21.488  0.00  0.00     0.001 A 
ATOM     25  C   UNL d   1     -48.593  12.661  22.208  0.00  0.00     0.031 A 
ATOM     26  C   UNL d   1     -49.660  12.102  21.301  0.00  0.00     0.001 A 
ATOM     27  C   UNL d   1     -49.112  11.658  21.576  0.00  0.00     0.006 A 
ATOM     28  S   UNL d   1     -48.066  12.934  22.655  0.00  0.00    -0.068 SA
BRANCH  22  29
ATOM     29  C   UNL d   1     -48.794  14.879  22.644  0.00  0.00     0.302 C 
ATOM     30  O   UNL d   1     -48.566  15.342  22.138  0.00  0.00    -0.259 OA
BRANCH  29  31
ATOM     31  O   UNL d   1     -49.236  15.126  23.310  0.00  0.00    -0.271 OA
BRANCH  31  32
ATOM     32  C   UNL d   1     -49.712  15.781  23.515  0.00  0.00     0.126 C 
ATOM     33  C   UNL d   1     -50.515  15.917  23.602  0.00  0.00     0.029 C 
ENDBRANCH  31  32
ENDBRANCH  29  31
ENDBRANCH  22  29
ENDBRANCH  19  21
ENDBRANCH   1  18
TORSDOF 10
ENDMDL
MODEL 3
REMARK VINA RESULT:      -1.8      3.869      8.497
REMARK  10 active torsions:
REMARK  status: ('A' for Active; 'I' for Inactive)
REMARK    1  A    between atoms: N_11  and  C_1 
REMARK    2  A    between atoms: C_12  and  C_2 
REMARK    3  A    between atoms: C_4  and  S_15 
REMARK    4  A    between atoms: C_18  and  C_6 
REMARK       I    between atoms: C_16  and  N_11 
REMARK    5  A    between atoms: O_28  and  C_12 
REMARK       I    between atoms: C_13  and  N_17 
REMARK    6  A    between atoms: C_14  and  C_13 
REMARK    7  A    between atoms: S_15  and  C_26 
REMARK    8  A    between atoms: C_26  and  C_16 
REMARK    9  A    between atoms: N_17  and  C_18 
REMARK   10  A    between atoms: C_32  and  O_28 
ROOT
ATOM      1  C   UNL d   1     -47.071  12.429  23.190  0.00  0.00     0.101 C 
ENDROOT
BRANCH   1   2
ATOM      2  S   UNL d   1     -46.313  12.405  23.356  0.00  0.00    -0.043 SA
BRANCH   2   3
ATOM      3  C   UNL d   1     -45.800  12.753  22.794  0.00  0.00     0.202 A 
ATOM      4  N   UNL d   1     -45.085  12.384  22.597  0.00  0.00    -0.265 N 
ATOM      5  C   UNL d   1     -44.705  12.854  22.035  0.00  0.00     0.190 A 
ATOM      6  C   UNL d   1     -44.793  11.653  22.915  0.00  0.00     0.103 C 
ATOM      7  N   UNL d   1     -45.184  13.518  21.880  0.00  0.00    -0.126 NA
ATOM      8  N   UNL d   1     -45.859  13.456  22.348  0.00  0.00    -0.121 NA
BRANCH   5   9
ATOM      9  C   UNL d   1     -43.976  12.698  21.684  0.00  0.00     0.141 C 
BRANCH   9  10
ATOM     10  N   UNL d   1     -43.427  13.301  21.577  0.00  0.00    -0.202 NA
ATOM     11  C   UNL d   1     -42.710  13.152  21.198  0.00  0.00     0.302 C 
ATOM     12  O   UNL d   1     -42.544  12.387  20.926  0.00  0.00    -0.263 OA
BRANCH  11  13
ATOM     13  C   UNL d   1     -42.150  13.768  21.089  0.00  0.00     0.158 A 
ATOM     14  O   UNL d   1     -42.257  14.589  21.296  0.00  0.00    -0.300 OA
ATOM     15  C   UNL d   1     -41.549  15.005  21.086  0.00  0.00     0.123 A 
ATOM     16  C   UNL d   1     -41.001  14.447  20.749  0.00  0.00     0.029 A 
ATOM     17  C   UNL d   1     -41.371  13.685  20.751  0.00  0.00     0.032 A 
ENDBRANCH  11  13
ENDBRANCH   9  10
ENDBRANCH   5   9
ENDBRANCH   2   3
ENDBRANCH   1   2
BRANCH   1  18
ATOM     18  C   UNL d   1     -47.720  11.908  23.454  0.00  0.00     0.286 C 
ATOM     19  N   UNL d   1     -48.667  12.248  23.449  0.00  0.00    -0.201 NA
ATOM     20  O   UNL d   1     -47.565  11.169  23.698  0.00  0.00    -0.265 OA
BRANCH  19  21
ATOM     21  C   UNL d   1     -48.832  13.033  23.190  0.00  0.00     0.119 A 
ATOM     22  C   UNL d   1     -49.425  13.169  22.753  0.00  0.00     0.088 A 
ATOM     23  C   UNL d   1     -49.135  14.430  22.723  0.00  0.00     0.013 A 
ATOM     24  C   UNL d   1     -49.293  15.114  22.487  0.00  0.00     0.001 A 
ATOM     25  C   UNL d   1     -48.539  14.293  23.162  0.00  0.00     0.031 A 
ATOM     26  C   UNL d   1     -48.848  15.691  22.690  0.00  0.00     0.001 A 
ATOM     27  C   UNL d   1     -48.248  15.553  23.133  0.00  0.00     0.006 A 
ATOM     28  S   UNL d   1     -48.385  13.604  23.396  0.00  0.00    -0.068 SA
BRANCH  22  29
ATOM     29  C   UNL d   1     -49.997  12.711  22.439  0.00  0.00     0.302 C 
ATOM     30  O   UNL d   1     -50.485  12.409  22.879  0.00  0.00    -0.259 OA
BRANCH  29  31
ATOM     31  O   UNL d   1     -50.013  12.599  21.610  0.00  0.00    -0.271 OA
BRANCH  31  32
ATOM     32  C   UNL d   1     -50.596  12.524  21.017  0.00  0.00     0.126 C 
ATOM     33  C   UNL d   1     -51.053  13.043  20.577  0.00  0.00     0.029 C 
ENDBRANCH  31  32
ENDBRANCH  29  31
ENDBRANCH  22  29
ENDBRANCH  19  21
ENDBRANCH   1  18
TORSDOF 10
ENDMDL
MODEL 4
REMARK VINA RESULT:      -1.1      1.662      2.849
REMARK  10 active torsions:
REMARK  status: ('A' for Active; 'I' for Inactive)
REMARK    1  A    between atoms: N_11  and  C_1 
REMARK    2  A    between atoms: C_12  and  C_2 
REMARK    3  A    between atoms: C_4  and  S_15 
REMARK    4  A    between atoms: C_18  and  C_6 
REMARK       I    between atoms: C_16  and  N_11 
REMARK    5  A    between atoms: O_28  and  C_12 
REMARK       I    between atoms: C_13  and  N_17 
REMARK    6  A    between atoms: C_14  and  C_13 
REMARK    7  A    between atoms: S_15  and  C_26 
REMARK    8  A    between atoms: C_26  and  C_16 
REMARK    9  A    between atoms: N_17  and  C_18 
REMARK   10  A    between atoms: C_32  and  O_28 
ROOT
ATOM      1  C   UNL d   1     -41.011  14.324  20.132  0.00  0.00     0.101 C 
ENDROOT
BRANCH   1   2
ATOM      2  S   UNL d   1     -41.688  14.449  20.491  0.00  0.00    -0.043 SA
BRANCH   2   3
ATOM      3  C   UNL d   1     -42.161  13.775  20.634  0.00  0.00     0.202 A 
ATOM      4  N   UNL d   1     -42.673  13.756  21.285  0.00  0.00    -0.265 N 
ATOM      5  C   UNL d   1     -43.061  13.028  21.279  0.00  0.00     0.190 A 
ATOM      6  C   UNL d   1     -42.782  14.374  21.857  0.00  0.00     0.103 C 
ATOM      7  N   UNL d   1     -42.791  12.590  20.623  0.00  0.00    -0.126 NA
ATOM      8  N   UNL d   1     -42.236  13.051  20.225  0.00  0.00    -0.121 NA
BRANCH   5   9
ATOM      9  C   UNL d   1     -43.621  12.770  21.827  0.00  0.00     0.141 C 
BRANCH   9  10
ATOM     10  N   UNL d   1     -44.394  13.051  21.795  0.00  0.00    -0.202 NA
ATOM     11  C   UNL d   1     -44.967  12.757  22.311  0.00  0.00     0.302 C 
ATOM     12  O   UNL d   1     -44.758  12.177  22.865  0.00  0.00    -0.263 OA
BRANCH  11  13
ATOM     13  C   UNL d   1     -45.755  13.043  22.278  0.00  0.00     0.158 A 
ATOM     14  O   UNL d   1     -46.265  13.042  21.593  0.00  0.00    -0.300 OA
ATOM     15  C   UNL d   1     -47.007  13.383  21.819  0.00  0.00     0.123 A 
ATOM     16  C   UNL d   1     -46.963  13.598  22.642  0.00  0.00     0.029 A 
ATOM     17  C   UNL d   1     -46.192  13.389  22.925  0.00  0.00     0.032 A 
ENDBRANCH  11  13
ENDBRANCH   9  10
ENDBRANCH   5   9
ENDBRANCH   2   3
ENDBRANCH   1   2
BRANCH   1  18
ATOM     18  C   UNL d   1     -40.596  14.805  19.532  0.00  0.00     0.286 C 
ATOM     19  N   UNL d   1     -39.590  14.817  19.510  0.00  0.00    -0.201 NA
ATOM     20  O   UNL d   1     -41.010  15.231  19.006  0.00  0.00    -0.265 OA
BRANCH  19  21
ATOM     21  C   UNL d   1     -39.151  14.364  20.068  0.00  0.00     0.119 A 
ATOM     22  C   UNL d   1     -38.592  13.921  19.838  0.00  0.00     0.088 A 
ATOM     23  C   UNL d   1     -38.360  13.553  21.057  0.00  0.00     0.013 A 
ATOM     24  C   UNL d   1     -37.965  13.149  21.536  0.00  0.00     0.001 A 
ATOM     25  C   UNL d   1     -38.922  13.998  21.288  0.00  0.00     0.031 A 
ATOM     26  C   UNL d   1     -38.125  13.182  22.275  0.00  0.00     0.001 A 
ATOM     27  C   UNL d   1     -38.690  13.631  22.507  0.00  0.00     0.006 A 
ATOM     28  S   UNL d   1     -39.315  14.401  20.803  0.00  0.00    -0.068 SA
BRANCH  22  29
ATOM     29  C   UNL d   1     -38.277  13.753  19.126  0.00  0.00     0.302 C 
ATOM     30  O   UNL d   1     -37.940  14.276  18.759  0.00  0.00    -0.259 OA
BRANCH  29  31
ATOM     31  O   UNL d   1     -38.350  12.973  18.828  0.00  0.00    -0.271 OA
BRANCH  31  32
ATOM     32  C   UNL d   1     -38.000  12.520  18.220  0.00  0.00     0.126 C 
ATOM     33  C   UNL d   1     -38.274  12.018  17.633  0.00  0.00     0.029 C 
ENDBRANCH  31  32
ENDBRANCH  29  31
ENDBRANCH  22  29
ENDBRANCH  19  21
ENDBRANCH   1  18
TORSDOF 10
ENDMDL
