MODEL 1
REMARK VINA RESULT:      -1.6      0.000      0.000
REMARK  9 active torsions:
REMARK  status: ('A' for Active; 'I' for Inactive)
REMARK    1  A    between atoms: N_6  and  S_1 
REMARK    2  A    between atoms: C_12  and  S_1 
REMARK    3  A    between atoms: C_2  and  C_3 
REMARK    4  A    between atoms: C_4  and  C_2 
REMARK    5  A    between atoms: C_5  and  C_2 
REMARK    6  A    between atoms: O_14  and  C_4 
REMARK    7  A    between atoms: C_9  and  C_5 
REMARK    8  A    between atoms: C_7  and  N_6 
REMARK    9  A    between atoms: C_29  and  O_14 
ROOT
ATOM      1  C   UNL d   1     -49.225  13.098  22.715  0.00  0.00     0.049 A 
ATOM      2  C   UNL d   1     -48.529  14.260  23.158  0.00  0.00     0.094 A 
ATOM      3  C   UNL d   1     -49.935  13.526  22.734  0.00  0.00     0.196 A 
ATOM      4  C   UNL d   1     -48.524  13.464  22.927  0.00  0.00     0.023 A 
ATOM      5  C   UNL d   1     -49.943  14.328  22.967  0.00  0.00     0.040 A 
ATOM      6  C   UNL d   1     -49.242  14.694  23.179  0.00  0.00     0.021 A 
ATOM      7  O   UNL d   1     -50.641  13.157  22.521  0.00  0.00    -0.287 OA
ATOM      8  C   UNL d   1     -50.671  14.710  22.970  0.00  0.00     0.003 A 
ATOM      9  C   UNL d   1     -49.238  15.487  23.411  0.00  0.00     0.002 A 
ATOM     10  C   UNL d   1     -50.641  15.560  23.223  0.00  0.00     0.000 A 
ATOM     11  C   UNL d   1     -49.957  15.917  23.429  0.00  0.00     0.000 A 
ENDROOT
BRANCH   2  12
ATOM     12  N   UNL d   1     -47.790  14.610  23.371  0.00  0.00    -0.158 NA
BRANCH  12  13
ATOM     13  S   UNL d   1     -47.098  14.341  23.025  0.00  0.00     0.285 S 
ATOM     14  O   UNL d   1     -46.944  13.862  23.698  0.00  0.00    -0.198 OA
ATOM     15  O   UNL d   1     -47.233  14.805  22.352  0.00  0.00    -0.198 OA
BRANCH  13  16
ATOM     16  C   UNL d   1     -46.378  14.053  22.677  0.00  0.00     0.105 A 
ATOM     17  C   UNL d   1     -46.066  13.334  22.888  0.00  0.00     0.013 A 
ATOM     18  C   UNL d   1     -45.379  13.061  22.555  0.00  0.00     0.001 A 
ATOM     19  C   UNL d   1     -45.082  12.339  22.778  0.00  0.00     0.000 A 
ATOM     20  C   UNL d   1     -44.969  13.531  21.974  0.00  0.00     0.000 A 
ATOM     21  C   UNL d   1     -44.345  12.035  22.428  0.00  0.00     0.000 A 
ATOM     22  C   UNL d   1     -43.950  12.503  21.859  0.00  0.00     0.000 A 
ATOM     23  C   UNL d   1     -44.259  13.254  21.628  0.00  0.00     0.000 A 
ATOM     24  C   UNL d   1     -45.302  14.247  21.781  0.00  0.00     0.001 A 
ATOM     25  C   UNL d   1     -45.994  14.520  22.117  0.00  0.00     0.013 A 
ENDBRANCH  13  16
ENDBRANCH  12  13
ENDBRANCH   2  12
BRANCH   1  26
ATOM     26  C   UNL d   1     -49.217  12.297  22.483  0.00  0.00     0.110 C 
BRANCH  26  27
ATOM     27  C   UNL d   1     -49.188  12.137  21.673  0.00  0.00     0.303 C 
ATOM     28  O   UNL d   1     -49.796  11.714  21.307  0.00  0.00    -0.259 OA
BRANCH  27  29
ATOM     29  O   UNL d   1     -48.534  12.419  21.270  0.00  0.00    -0.273 OA
BRANCH  29  30
ATOM     30  C   UNL d   1     -48.471  12.264  20.462  0.00  0.00     0.103 C 
ATOM     31  C   UNL d   1     -48.967  12.622  19.946  0.00  0.00     0.027 C 
ATOM     32  C   UNL d   1     -47.894  11.739  20.200  0.00  0.00     0.027 C 
ENDBRANCH  29  30
ENDBRANCH  27  29
ENDBRANCH  26  27
BRANCH  26  33
ATOM     33  C   UNL d   1     -49.238  11.685  23.051  0.00  0.00     0.272 C 
ATOM     34  O   UNL d   1     -49.850  11.647  23.566  0.00  0.00    -0.282 OA
BRANCH  33  35
ATOM     35  C   UNL d   1     -48.633  11.135  23.074  0.00  0.00     0.456 C 
ATOM     36  F   UNL d   1     -49.017  10.736  22.436  0.00  0.00    -0.163 F 
ATOM     37  F   UNL d   1     -48.282  11.546  23.696  0.00  0.00    -0.163 F 
ATOM     38  F   UNL d   1     -48.045  10.575  23.076  0.00  0.00    -0.163 F 
ENDBRANCH  33  35
ENDBRANCH  26  33
ENDBRANCH   1  26
TORSDOF 9
ENDMDL
MODEL 2
REMARK VINA RESULT:      -1.2      1.417      2.999
REMARK  9 active torsions:
REMARK  status: ('A' for Active; 'I' for Inactive)
REMARK    1  A    between atoms: N_6  and  S_1 
REMARK    2  A    between atoms: C_12  and  S_1 
REMARK    3  A    between atoms: C_2  and  C_3 
REMARK    4  A    between atoms: C_4  and  C_2 
REMARK    5  A    between atoms: C_5  and  C_2 
REMARK    6  A    between atoms: O_14  and  C_4 
REMARK    7  A    between atoms: C_9  and  C_5 
REMARK    8  A    between atoms: C_7  and  N_6 
REMARK    9  A    between atoms: C_29  and  O_14 
ROOT
ATOM      1  C   UNL d   1     -48.860  12.988  22.739  0.00  0.00     0.049 A 
ATOM      2  C   UNL d   1     -47.619  12.679  23.367  0.00  0.00     0.094 A 
ATOM      3  C   UNL d   1     -49.054  12.181  22.744  0.00  0.00     0.196 A 
ATOM      4  C   UNL d   1     -48.145  13.236  23.049  0.00  0.00     0.023 A 
ATOM      5  C   UNL d   1     -48.526  11.619  23.064  0.00  0.00     0.040 A 
ATOM      6  C   UNL d   1     -47.811  11.867  23.374  0.00  0.00     0.021 A 
ATOM      7  O   UNL d   1     -49.775  11.931  22.431  0.00  0.00    -0.287 OA
ATOM      8  C   UNL d   1     -48.763  10.831  23.046  0.00  0.00     0.003 A 
ATOM      9  C   UNL d   1     -47.281  11.318  23.693  0.00  0.00     0.002 A 
ATOM     10  C   UNL d   1     -48.178  10.262  23.394  0.00  0.00     0.000 A 
ATOM     11  C   UNL d   1     -47.479  10.504  23.697  0.00  0.00     0.000 A 
ENDROOT
BRANCH   2  12
ATOM     12  N   UNL d   1     -46.889  12.966  23.680  0.00  0.00    -0.158 NA
BRANCH  12  13
ATOM     13  S   UNL d   1     -46.241  13.053  23.186  0.00  0.00     0.285 S 
ATOM     14  O   UNL d   1     -46.449  13.855  23.049  0.00  0.00    -0.198 OA
ATOM     15  O   UNL d   1     -46.018  12.265  23.310  0.00  0.00    -0.198 OA
BRANCH  13  16
ATOM     16  C   UNL d   1     -45.573  13.157  22.673  0.00  0.00     0.105 A 
ATOM     17  C   UNL d   1     -44.987  12.597  22.623  0.00  0.00     0.013 A 
ATOM     18  C   UNL d   1     -44.350  12.699  22.132  0.00  0.00     0.001 A 
ATOM     19  C   UNL d   1     -43.774  12.128  22.095  0.00  0.00     0.000 A 
ATOM     20  C   UNL d   1     -44.285  13.402  21.655  0.00  0.00     0.000 A 
ATOM     21  C   UNL d   1     -43.085  12.225  21.572  0.00  0.00     0.000 A 
ATOM     22  C   UNL d   1     -43.030  12.918  21.109  0.00  0.00     0.000 A 
ATOM     23  C   UNL d   1     -43.629  13.512  21.146  0.00  0.00     0.000 A 
ATOM     24  C   UNL d   1     -44.884  13.948  21.723  0.00  0.00     0.001 A 
ATOM     25  C   UNL d   1     -45.525  13.844  22.218  0.00  0.00     0.013 A 
ENDBRANCH  13  16
ENDBRANCH  12  13
ENDBRANCH   2  12
BRANCH   1  26
ATOM     26  C   UNL d   1     -49.388  13.550  22.419  0.00  0.00     0.110 C 
BRANCH  26  27
ATOM     27  C   UNL d   1     -49.786  14.041  22.950  0.00  0.00     0.303 C 
ATOM     28  O   UNL d   1     -50.163  13.724  23.613  0.00  0.00    -0.259 OA
BRANCH  27  29
ATOM     29  O   UNL d   1     -49.781  14.842  22.779  0.00  0.00    -0.273 OA
BRANCH  29  30
ATOM     30  C   UNL d   1     -50.158  15.360  23.300  0.00  0.00     0.103 C 
ATOM     31  C   UNL d   1     -50.949  15.309  23.410  0.00  0.00     0.027 C 
ATOM     32  C   UNL d   1     -49.709  15.922  23.698  0.00  0.00     0.027 C 
ENDBRANCH  29  30
ENDBRANCH  27  29
ENDBRANCH  26  27
BRANCH  26  33
ATOM     33  C   UNL d   1     -49.504  13.608  21.595  0.00  0.00     0.272 C 
ATOM     34  O   UNL d   1     -50.209  13.396  21.280  0.00  0.00    -0.282 OA
BRANCH  33  35
ATOM     35  C   UNL d   1     -48.896  13.881  21.120  0.00  0.00     0.456 C 
ATOM     36  F   UNL d   1     -48.825  14.538  21.646  0.00  0.00    -0.163 F 
ATOM     37  F   UNL d   1     -48.990  13.229  20.625  0.00  0.00    -0.163 F 
ATOM     38  F   UNL d   1     -48.291  14.173  20.665  0.00  0.00    -0.163 F 
ENDBRANCH  33  35
ENDBRANCH  26  33
ENDBRANCH   1  26
TORSDOF 9
ENDMDL
MODEL 3
REMARK VINA RESULT:      -1.2      0.891      1.562
REMARK  9 active torsions:
REMARK  status: ('A' for Active; 'I' for Inactive)
REMARK    1  A    between atoms: N_6  and  S_1 
REMARK    2  A    between atoms: C_12  and  S_1 
REMARK    3  A    between atoms: C_2  and  C_3 
REMARK    4  A    between atoms: C_4  and  C_2 
REMARK    5  A    between atoms: C_5  and  C_2 
REMARK    6  A    between atoms: O_14  and  C_4 
REMARK    7  A    between atoms: C_9  and  C_5 
REMARK    8  A    between atoms: C_7  and  N_6 
REMARK    9  A    between atoms: C_29  and  O_14 
ROOT
ATOM      1  C   UNL d   1     -49.170  13.261  22.347  0.00  0.00     0.049 A 
ATOM      2  C   UNL d   1     -48.424  14.287  22.998  0.00  0.00     0.094 A 
ATOM      3  C   UNL d   1     -49.861  13.708  22.453  0.00  0.00     0.196 A 
ATOM      4  C   UNL d   1     -48.454  13.550  22.619  0.00  0.00     0.023 A 
ATOM      5  C   UNL d   1     -49.834  14.450  22.834  0.00  0.00     0.040 A 
ATOM      6  C   UNL d   1     -49.118  14.739  23.105  0.00  0.00     0.021 A 
ATOM      7  O   UNL d   1     -50.583  13.417  22.180  0.00  0.00    -0.287 OA
ATOM      8  C   UNL d   1     -50.544  14.856  22.915  0.00  0.00     0.003 A 
ATOM      9  C   UNL d   1     -49.079  15.473  23.484  0.00  0.00     0.002 A 
ATOM     10  C   UNL d   1     -50.478  15.640  23.324  0.00  0.00     0.000 A 
ATOM     11  C   UNL d   1     -49.779  15.922  23.589  0.00  0.00     0.000 A 
ENDROOT
BRANCH   2  12
ATOM     12  N   UNL d   1     -47.670  14.558  23.266  0.00  0.00    -0.158 NA
BRANCH  12  13
ATOM     13  S   UNL d   1     -46.986  14.230  22.958  0.00  0.00     0.285 S 
ATOM     14  O   UNL d   1     -46.824  13.867  23.698  0.00  0.00    -0.198 OA
ATOM     15  O   UNL d   1     -47.130  14.579  22.221  0.00  0.00    -0.198 OA
BRANCH  13  16
ATOM     16  C   UNL d   1     -46.274  13.883  22.651  0.00  0.00     0.105 A 
ATOM     17  C   UNL d   1     -46.018  13.154  22.901  0.00  0.00     0.013 A 
ATOM     18  C   UNL d   1     -45.338  12.825  22.607  0.00  0.00     0.001 A 
ATOM     19  C   UNL d   1     -45.098  12.095  22.868  0.00  0.00     0.000 A 
ATOM     20  C   UNL d   1     -44.877  13.244  22.026  0.00  0.00     0.000 A 
ATOM     21  C   UNL d   1     -44.369  11.731  22.561  0.00  0.00     0.000 A 
ATOM     22  C   UNL d   1     -43.924  12.149  21.991  0.00  0.00     0.000 A 
ATOM     23  C   UNL d   1     -44.174  12.908  21.719  0.00  0.00     0.000 A 
ATOM     24  C   UNL d   1     -45.155  13.972  21.792  0.00  0.00     0.001 A 
ATOM     25  C   UNL d   1     -45.840  14.301  22.089  0.00  0.00     0.013 A 
ENDBRANCH  13  16
ENDBRANCH  12  13
ENDBRANCH   2  12
BRANCH   1  26
ATOM     26  C   UNL d   1     -49.197  12.519  21.967  0.00  0.00     0.110 C 
BRANCH  26  27
ATOM     27  C   UNL d   1     -49.239  11.848  22.446  0.00  0.00     0.303 C 
ATOM     28  O   UNL d   1     -49.968  11.501  22.619  0.00  0.00    -0.259 OA
BRANCH  27  29
ATOM     29  O   UNL d   1     -48.528  11.559  22.730  0.00  0.00    -0.273 OA
BRANCH  29  30
ATOM     30  C   UNL d   1     -48.539  10.894  23.218  0.00  0.00     0.103 C 
ATOM     31  C   UNL d   1     -49.170  10.755  23.690  0.00  0.00     0.027 C 
ATOM     32  C   UNL d   1     -47.895  10.382  23.210  0.00  0.00     0.027 C 
ENDBRANCH  29  30
ENDBRANCH  27  29
ENDBRANCH  26  27
BRANCH  26  33
ATOM     33  C   UNL d   1     -49.182  12.464  21.134  0.00  0.00     0.272 C 
ATOM     34  O   UNL d   1     -49.864  12.538  20.721  0.00  0.00    -0.282 OA
BRANCH  33  35
ATOM     35  C   UNL d   1     -48.470  12.337  20.750  0.00  0.00     0.456 C 
ATOM     36  F   UNL d   1     -48.508  13.138  20.485  0.00  0.00    -0.163 F 
ATOM     37  F   UNL d   1     -48.462  11.560  21.025  0.00  0.00    -0.163 F 
ATOM     38  F   UNL d   1     -47.765  12.236  20.361  0.00  0.00    -0.163 F 
ENDBRANCH  33  35
ENDBRANCH  26  33
ENDBRANCH   1  26
TORSDOF 9
ENDMDL
MODEL 4
REMARK VINA RESULT:      -0.9      8.411     10.649
REMARK  9 active torsions:
REMARK  status: ('A' for Active; 'I' for Inactive)
REMARK    1  A    between atoms: N_6  and  S_1 
REMARK    2  A    between atoms: C_12  and  S_1 
REMARK    3  A    between atoms: C_2  and  C_3 
REMARK    4  A    between atoms: C_4  and  C_2 
REMARK    5  A    between atoms: C_5  and  C_2 
REMARK    6  A    between atoms: O_14  and  C_4 
REMARK    7  A    between atoms: C_9  and  C_5 
REMARK    8  A    between atoms: C_7  and  N_6 
REMARK    9  A    between atoms: C_29  and  O_14 
ROOT
ATOM      1  C   UNL d   1     -38.765  14.176  17.112  0.00  0.00     0.049 A 
ATOM      2  C   UNL d   1     -38.224  13.942  18.410  0.00  0.00     0.094 A 
ATOM      3  C   UNL d   1     -38.783  13.357  16.981  0.00  0.00     0.196 A 
ATOM      4  C   UNL d   1     -38.486  14.467  17.824  0.00  0.00     0.023 A 
ATOM      5  C   UNL d   1     -38.521  12.826  17.569  0.00  0.00     0.040 A 
ATOM      6  C   UNL d   1     -38.242  13.117  18.280  0.00  0.00     0.021 A 
ATOM      7  O   UNL d   1     -39.065  13.064  16.263  0.00  0.00    -0.287 OA
ATOM      8  C   UNL d   1     -38.559  12.024  17.392  0.00  0.00     0.003 A 
ATOM      9  C   UNL d   1     -37.979  12.600  18.869  0.00  0.00     0.002 A 
ATOM     10  C   UNL d   1     -38.271  11.489  18.040  0.00  0.00     0.000 A 
ATOM     11  C   UNL d   1     -37.999  11.774  18.735  0.00  0.00     0.000 A 
ENDROOT
BRANCH   2  12
ATOM     12  N   UNL d   1     -37.942  14.273  19.134  0.00  0.00    -0.158 NA
BRANCH  12  13
ATOM     13  S   UNL d   1     -38.474  14.582  19.674  0.00  0.00     0.285 S 
ATOM     14  O   UNL d   1     -38.425  15.332  19.297  0.00  0.00    -0.198 OA
ATOM     15  O   UNL d   1     -38.535  13.852  20.059  0.00  0.00    -0.198 OA
BRANCH  13  16
ATOM     16  C   UNL d   1     -39.024  14.916  20.228  0.00  0.00     0.105 A 
ATOM     17  C   UNL d   1     -39.822  14.779  20.165  0.00  0.00     0.013 A 
ATOM     18  C   UNL d   1     -40.346  15.099  20.694  0.00  0.00     0.001 A 
ATOM     19  C   UNL d   1     -41.140  14.951  20.616  0.00  0.00     0.000 A 
ATOM     20  C   UNL d   1     -40.064  15.589  21.332  0.00  0.00     0.000 A 
ATOM     21  C   UNL d   1     -41.713  15.289  21.178  0.00  0.00     0.000 A 
ATOM     22  C   UNL d   1     -41.426  15.768  21.799  0.00  0.00     0.000 A 
ATOM     23  C   UNL d   1     -40.601  15.922  21.882  0.00  0.00     0.000 A 
ATOM     24  C   UNL d   1     -39.261  15.711  21.374  0.00  0.00     0.001 A 
ATOM     25  C   UNL d   1     -38.735  15.388  20.839  0.00  0.00     0.013 A 
ENDBRANCH  13  16
ENDBRANCH  12  13
ENDBRANCH   2  12
BRANCH   1  26
ATOM     26  C   UNL d   1     -39.027  14.708  16.524  0.00  0.00     0.110 C 
BRANCH  26  27
ATOM     27  C   UNL d   1     -39.841  14.754  16.391  0.00  0.00     0.303 C 
ATOM     28  O   UNL d   1     -40.234  14.152  15.983  0.00  0.00    -0.259 OA
BRANCH  27  29
ATOM     29  O   UNL d   1     -40.220  15.418  16.682  0.00  0.00    -0.273 OA
BRANCH  29  30
ATOM     30  C   UNL d   1     -41.045  15.443  16.662  0.00  0.00     0.103 C 
ATOM     31  C   UNL d   1     -41.444  15.005  16.124  0.00  0.00     0.027 C 
ATOM     32  C   UNL d   1     -41.443  15.920  17.200  0.00  0.00     0.027 C 
ENDBRANCH  29  30
ENDBRANCH  27  29
ENDBRANCH  26  27
BRANCH  26  33
ATOM     33  C   UNL d   1     -38.484  15.171  16.092  0.00  0.00     0.272 C 
ATOM     34  O   UNL d   1     -37.974  15.649  16.484  0.00  0.00    -0.282 OA
BRANCH  33  35
ATOM     35  C   UNL d   1     -38.479  15.131  15.275  0.00  0.00     0.456 C 
ATOM     36  F   UNL d   1     -38.723  14.325  15.346  0.00  0.00    -0.163 F 
ATOM     37  F   UNL d   1     -38.242  15.919  15.238  0.00  0.00    -0.163 F 
ATOM     38  F   UNL d   1     -38.482  15.065  14.466  0.00  0.00    -0.163 F 
ENDBRANCH  33  35
ENDBRANCH  26  33
ENDBRANCH   1  26
TORSDOF 9
ENDMDL
MODEL 5
REMARK VINA RESULT:      -0.3      5.847      8.982
REMARK  9 active torsions:
REMARK  status: ('A' for Active; 'I' for Inactive)
REMARK    1  A    between atoms: N_6  and  S_1 
REMARK    2  A    between atoms: C_12  and  S_1 
REMARK    3  A    between atoms: C_2  and  C_3 
REMARK    4  A    between atoms: C_4  and  C_2 
REMARK    5  A    between atoms: C_5  and  C_2 
REMARK    6  A    between atoms: O_14  and  C_4 
REMARK    7  A    between atoms: C_9  and  C_5 
REMARK    8  A    between atoms: C_7  and  N_6 
REMARK    9  A    between atoms: C_29  and  O_14 
ROOT
ATOM      1  C   UNL d   1     -39.413  14.488  21.030  0.00  0.00     0.049 A 
ATOM      2  C   UNL d   1     -40.482  14.351  20.097  0.00  0.00     0.094 A 
ATOM      3  C   UNL d   1     -38.874  14.306  20.426  0.00  0.00     0.196 A 
ATOM      4  C   UNL d   1     -40.214  14.510  20.866  0.00  0.00     0.023 A 
ATOM      5  C   UNL d   1     -39.141  14.145  19.651  0.00  0.00     0.040 A 
ATOM      6  C   UNL d   1     -39.942  14.168  19.488  0.00  0.00     0.021 A 
ATOM      7  O   UNL d   1     -38.066  14.283  20.591  0.00  0.00    -0.287 OA
ATOM      8  C   UNL d   1     -38.569  13.970  19.087  0.00  0.00     0.003 A 
ATOM      9  C   UNL d   1     -40.217  14.011  18.724  0.00  0.00     0.002 A 
ATOM     10  C   UNL d   1     -38.888  13.805  18.276  0.00  0.00     0.000 A 
ATOM     11  C   UNL d   1     -39.671  13.827  18.116  0.00  0.00     0.000 A 
ENDROOT
BRANCH   2  12
ATOM     12  N   UNL d   1     -41.315  14.382  19.959  0.00  0.00    -0.158 NA
BRANCH  12  13
ATOM     13  S   UNL d   1     -41.821  13.933  20.421  0.00  0.00     0.285 S 
ATOM     14  O   UNL d   1     -41.596  13.242  20.000  0.00  0.00    -0.198 OA
ATOM     15  O   UNL d   1     -42.055  14.604  20.848  0.00  0.00    -0.198 OA
BRANCH  13  16
ATOM     16  C   UNL d   1     -42.341  13.456  20.892  0.00  0.00     0.105 A 
ATOM     17  C   UNL d   1     -43.096  13.699  21.066  0.00  0.00     0.013 A 
ATOM     18  C   UNL d   1     -43.591  13.242  21.517  0.00  0.00     0.001 A 
ATOM     19  C   UNL d   1     -44.342  13.502  21.681  0.00  0.00     0.000 A 
ATOM     20  C   UNL d   1     -43.324  12.490  21.817  0.00  0.00     0.000 A 
ATOM     21  C   UNL d   1     -44.884  13.020  22.163  0.00  0.00     0.000 A 
ATOM     22  C   UNL d   1     -44.613  12.285  22.452  0.00  0.00     0.000 A 
ATOM     23  C   UNL d   1     -43.832  12.014  22.282  0.00  0.00     0.000 A 
ATOM     24  C   UNL d   1     -42.565  12.269  21.629  0.00  0.00     0.001 A 
ATOM     25  C   UNL d   1     -42.068  12.731  21.175  0.00  0.00     0.013 A 
ENDBRANCH  13  16
ENDBRANCH  12  13
ENDBRANCH   2  12
BRANCH   1  26
ATOM     26  C   UNL d   1     -39.146  14.649  21.804  0.00  0.00     0.110 C 
BRANCH  26  27
ATOM     27  C   UNL d   1     -38.884  14.009  22.255  0.00  0.00     0.303 C 
ATOM     28  O   UNL d   1     -38.133  13.687  22.132  0.00  0.00    -0.259 OA
BRANCH  27  29
ATOM     29  O   UNL d   1     -39.406  13.723  22.818  0.00  0.00    -0.273 OA
BRANCH  29  30
ATOM     30  C   UNL d   1     -39.167  13.092  23.294  0.00  0.00     0.103 C 
ATOM     31  C   UNL d   1     -38.398  13.019  23.503  0.00  0.00     0.027 C 
ATOM     32  C   UNL d   1     -39.729  12.547  23.545  0.00  0.00     0.027 C 
ENDBRANCH  29  30
ENDBRANCH  27  29
ENDBRANCH  26  27
BRANCH  26  33
ATOM     33  C   UNL d   1     -39.147  15.428  22.104  0.00  0.00     0.272 C 
ATOM     34  O   UNL d   1     -39.750  15.921  21.918  0.00  0.00    -0.282 OA
BRANCH  33  35
ATOM     35  C   UNL d   1     -38.532  15.676  22.584  0.00  0.00     0.456 C 
ATOM     36  F   UNL d   1     -39.071  15.648  23.233  0.00  0.00    -0.163 F 
ATOM     37  F   UNL d   1     -38.030  15.694  21.931  0.00  0.00    -0.163 F 
ATOM     38  F   UNL d   1     -37.940  15.922  23.080  0.00  0.00    -0.163 F 
ENDBRANCH  33  35
ENDBRANCH  26  33
ENDBRANCH   1  26
TORSDOF 9
ENDMDL
MODEL 6
REMARK VINA RESULT:       1.0      1.708      2.884
REMARK  9 active torsions:
REMARK  status: ('A' for Active; 'I' for Inactive)
REMARK    1  A    between atoms: N_6  and  S_1 
REMARK    2  A    between atoms: C_12  and  S_1 
REMARK    3  A    between atoms: C_2  and  C_3 
REMARK    4  A    between atoms: C_4  and  C_2 
REMARK    5  A    between atoms: C_5  and  C_2 
REMARK    6  A    between atoms: O_14  and  C_4 
REMARK    7  A    between atoms: C_9  and  C_5 
REMARK    8  A    between atoms: C_7  and  N_6 
REMARK    9  A    between atoms: C_29  and  O_14 
ROOT
ATOM      1  C   UNL d   1     -48.583  13.276  22.855  0.00  0.00     0.049 A 
ATOM      2  C   UNL d   1     -47.374  12.759  23.404  0.00  0.00     0.094 A 
ATOM      3  C   UNL d   1     -48.904  12.511  22.862  0.00  0.00     0.196 A 
ATOM      4  C   UNL d   1     -47.821  13.399  23.125  0.00  0.00     0.023 A 
ATOM      5  C   UNL d   1     -48.457  11.865  23.142  0.00  0.00     0.040 A 
ATOM      6  C   UNL d   1     -47.694  11.988  23.412  0.00  0.00     0.021 A 
ATOM      7  O   UNL d   1     -49.673  12.387  22.590  0.00  0.00    -0.287 OA
ATOM      8  C   UNL d   1     -48.818  11.126  23.129  0.00  0.00     0.003 A 
ATOM      9  C   UNL d   1     -47.243  11.355  23.691  0.00  0.00     0.002 A 
ATOM     10  C   UNL d   1     -48.313  10.463  23.434  0.00  0.00     0.000 A 
ATOM     11  C   UNL d   1     -47.569  10.583  23.698  0.00  0.00     0.000 A 
ENDROOT
BRANCH   2  12
ATOM     12  N   UNL d   1     -46.590  12.918  23.676  0.00  0.00    -0.158 NA
BRANCH  12  13
ATOM     13  S   UNL d   1     -45.976  12.974  23.137  0.00  0.00     0.285 S 
ATOM     14  O   UNL d   1     -46.264  13.721  22.882  0.00  0.00    -0.198 OA
ATOM     15  O   UNL d   1     -45.677  12.239  23.375  0.00  0.00    -0.198 OA
BRANCH  13  16
ATOM     16  C   UNL d   1     -45.344  13.046  22.574  0.00  0.00     0.105 A 
ATOM     17  C   UNL d   1     -44.688  12.568  22.613  0.00  0.00     0.013 A 
ATOM     18  C   UNL d   1     -44.086  12.638  22.075  0.00  0.00     0.001 A 
ATOM     19  C   UNL d   1     -43.438  12.153  22.129  0.00  0.00     0.000 A 
ATOM     20  C   UNL d   1     -44.133  13.220  21.453  0.00  0.00     0.000 A 
ATOM     21  C   UNL d   1     -42.785  12.218  21.557  0.00  0.00     0.000 A 
ATOM     22  C   UNL d   1     -42.841  12.791  20.952  0.00  0.00     0.000 A 
ATOM     23  C   UNL d   1     -43.515  13.296  20.895  0.00  0.00     0.000 A 
ATOM     24  C   UNL d   1     -44.800  13.685  21.436  0.00  0.00     0.001 A 
ATOM     25  C   UNL d   1     -45.405  13.613  21.979  0.00  0.00     0.013 A 
ENDBRANCH  13  16
ENDBRANCH  12  13
ENDBRANCH   2  12
BRANCH   1  26
ATOM     26  C   UNL d   1     -49.031  13.923  22.575  0.00  0.00     0.110 C 
BRANCH  26  27
ATOM     27  C   UNL d   1     -49.451  13.818  21.873  0.00  0.00     0.303 C 
ATOM     28  O   UNL d   1     -49.053  13.747  21.152  0.00  0.00    -0.259 OA
BRANCH  27  29
ATOM     29  O   UNL d   1     -50.267  13.789  21.937  0.00  0.00    -0.273 OA
BRANCH  29  30
ATOM     30  C   UNL d   1     -50.720  13.868  21.253  0.00  0.00     0.103 C 
ATOM     31  C   UNL d   1     -51.035  14.578  21.062  0.00  0.00     0.027 C 
ATOM     32  C   UNL d   1     -50.840  13.209  20.776  0.00  0.00     0.027 C 
ENDBRANCH  29  30
ENDBRANCH  27  29
ENDBRANCH  26  27
BRANCH  26  33
ATOM     33  C   UNL d   1     -49.048  14.645  22.994  0.00  0.00     0.272 C 
ATOM     34  O   UNL d   1     -49.490  14.704  23.659  0.00  0.00    -0.282 OA
BRANCH  33  35
ATOM     35  C   UNL d   1     -48.613  15.281  22.720  0.00  0.00     0.456 C 
ATOM     36  F   UNL d   1     -48.572  15.555  23.518  0.00  0.00    -0.163 F 
ATOM     37  F   UNL d   1     -48.670  14.989  21.952  0.00  0.00    -0.163 F 
ATOM     38  F   UNL d   1     -48.181  15.922  22.473  0.00  0.00    -0.163 F 
ENDBRANCH  33  35
ENDBRANCH  26  33
ENDBRANCH   1  26
TORSDOF 9
ENDMDL
