MODEL 1
REMARK VINA RESULT:      24.7      0.000      0.000
REMARK  10 active torsions:
REMARK  status: ('A' for Active; 'I' for Inactive)
REMARK    1  A    between atoms: C_8  and  S_1 
REMARK    2  A    between atoms: N_18  and  S_1 
REMARK    3  A    between atoms: S_2  and  C_9 
REMARK    4  A    between atoms: N_19  and  S_2 
REMARK    5  A    between atoms: C_23  and  N_18 
REMARK    6  A    between atoms: C_24  and  N_19 
REMARK    7  A    between atoms: C_27  and  C_23 
REMARK    8  A    between atoms: C_28  and  C_24 
REMARK    9  A    between atoms: O_25  and  C_27 
REMARK   10  A    between atoms: O_26  and  C_28 
ROOT
ATOM      1  C   UNL d   1      46.162 -16.718  43.682  0.00  0.00     0.040 A 
ATOM      2  C   UNL d   1      45.953 -15.387  43.692  0.00  0.00     0.040 A 
ATOM      3  C   UNL d   1      46.279 -16.013  43.242  0.00  0.00     0.196 A 
ATOM      4  C   UNL d   1      45.654 -15.738  44.380  0.00  0.00     0.003 A 
ATOM      5  C   UNL d   1      45.787 -16.555  44.365  0.00  0.00     0.003 A 
ATOM      6  C   UNL d   1      46.195 -18.105  44.032  0.00  0.00     0.105 A 
ATOM      7  C   UNL d   1      45.533 -14.105  44.128  0.00  0.00     0.105 A 
ATOM      8  C   UNL d   1      46.374 -17.501  43.501  0.00  0.00     0.016 A 
ATOM      9  C   UNL d   1      45.898 -14.579  43.557  0.00  0.00     0.016 A 
ATOM     10  C   UNL d   1      45.286 -15.239  44.949  0.00  0.00     0.001 A 
ATOM     11  C   UNL d   1      45.609 -17.159  44.893  0.00  0.00     0.001 A 
ATOM     12  O   UNL d   1      46.646 -15.940  42.503  0.00  0.00    -0.287 OA
ATOM     13  C   UNL d   1      45.229 -14.427  44.819  0.00  0.00     0.013 A 
ATOM     14  C   UNL d   1      45.818 -17.927  44.716  0.00  0.00     0.013 A 
ENDROOT
BRANCH   6  15
ATOM     15  S   UNL d   1      46.412 -18.901  43.846  0.00  0.00     0.285 S 
ATOM     16  O   UNL d   1      46.601 -18.664  43.055  0.00  0.00    -0.198 OA
ATOM     17  O   UNL d   1      46.222 -19.102  44.618  0.00  0.00    -0.198 OA
BRANCH  15  18
ATOM     18  N   UNL d   1      46.621 -19.669  43.669  0.00  0.00    -0.155 NA
BRANCH  18  19
ATOM     19  C   UNL d   1      46.219 -20.107  43.082  0.00  0.00     0.138 C 
BRANCH  19  20
ATOM     20  C   UNL d   1      46.106 -19.805  42.323  0.00  0.00     0.138 C 
BRANCH  20  21
ATOM     21  O   UNL d   1      46.636 -19.958  41.736  0.00  0.00    -0.325 OA
ATOM     22  C   UNL d   1      46.388 -20.086  40.970  0.00  0.00     0.182 C 
ENDBRANCH  20  21
ENDBRANCH  19  20
ENDBRANCH  18  19
ENDBRANCH  15  18
ENDBRANCH   6  15
BRANCH   7  23
ATOM     23  S   UNL d   1      45.462 -13.271  44.016  0.00  0.00     0.285 S 
ATOM     24  O   UNL d   1      46.252 -13.250  43.715  0.00  0.00    -0.198 OA
ATOM     25  O   UNL d   1      44.679 -13.316  44.319  0.00  0.00    -0.198 OA
BRANCH  23  26
ATOM     26  N   UNL d   1      45.386 -12.468  43.912  0.00  0.00    -0.155 NA
BRANCH  26  27
ATOM     27  C   UNL d   1      45.410 -12.140  43.155  0.00  0.00     0.138 C 
BRANCH  27  28
ATOM     28  C   UNL d   1      45.095 -12.534  42.530  0.00  0.00     0.138 C 
BRANCH  28  29
ATOM     29  O   UNL d   1      44.768 -12.101  41.889  0.00  0.00    -0.325 OA
ATOM     30  C   UNL d   1      43.973 -12.088  41.747  0.00  0.00     0.182 C 
ENDBRANCH  28  29
ENDBRANCH  27  28
ENDBRANCH  26  27
ENDBRANCH  23  26
ENDBRANCH   7  23
TORSDOF 10
ENDMDL
