MODEL 1
REMARK VINA RESULT:      40.5      0.000      0.000
REMARK  5 active torsions:
REMARK  status: ('A' for Active; 'I' for Inactive)
REMARK    1  A    between atoms: N_4  and  C_1 
REMARK       I    between atoms: C_3  and  N_4 
REMARK    2  A    between atoms: C_8  and  C_3 
REMARK    3  A    between atoms: S_9  and  C_5 
REMARK    4  A    between atoms: C_12  and  S_9 
REMARK    5  A    between atoms: C_15  and  C_12 
ROOT
ATOM      1  C   UNL d   1      15.045  13.988  -0.644  0.00  0.00     0.219 A 
ATOM      2  S   UNL d   1      14.811  13.694  -1.417  0.00  0.00    -0.019 SA
ATOM      3  C   UNL d   1      14.733  12.832  -1.331  0.00  0.00     0.165 A 
ATOM      4  N   UNL d   1      15.083  13.403  -0.236  0.00  0.00    -0.120 NA
ATOM      5  N   UNL d   1      14.886  12.687  -0.674  0.00  0.00    -0.133 NA
ENDROOT
BRANCH   1   6
ATOM      6  N   UNL d   1      15.204  14.869  -0.426  0.00  0.00    -0.181 NA
ATOM      7  C   UNL d   1      15.200  15.477  -1.026  0.00  0.00     0.282 C 
ATOM      8  O   UNL d   1      15.074  15.284  -1.680  0.00  0.00    -0.265 OA
BRANCH   7   9
ATOM      9  C   UNL d   1      15.325  16.284  -0.962  0.00  0.00     0.069 A 
ATOM     10  C   UNL d   1      15.105  16.769  -1.576  0.00  0.00     0.062 A 
ATOM     11 CL   UNL d   1      14.730  16.432  -2.317  0.00  0.00    -0.082 Cl
ATOM     12  C   UNL d   1      15.225  17.578  -1.523  0.00  0.00     0.012 A 
ATOM     13  C   UNL d   1      15.569  17.906  -0.848  0.00  0.00     0.001 A 
ATOM     14  C   UNL d   1      15.795  17.410  -0.220  0.00  0.00     0.000 A 
ATOM     15  C   UNL d   1      15.670  16.591  -0.281  0.00  0.00     0.006 A 
ENDBRANCH   7   9
ENDBRANCH   1   6
BRANCH   3  16
ATOM     16  S   UNL d   1      14.509  12.163  -1.900  0.00  0.00    -0.059 SA
BRANCH  16  17
ATOM     17  C   UNL d   1      13.797  12.214  -2.112  0.00  0.00     0.037 C 
BRANCH  17  18
ATOM     18  C   UNL d   1      13.604  12.213  -2.905  0.00  0.00     0.007 A 
ATOM     19  C   UNL d   1      12.966  11.781  -3.186  0.00  0.00     0.001 A 
ATOM     20  C   UNL d   1      12.770  11.780  -3.991  0.00  0.00     0.007 A 
ATOM     21  C   UNL d   1      13.230  12.224  -4.517  0.00  0.00     0.035 A 
ATOM     22  C   UNL d   1      13.887  12.669  -4.234  0.00  0.00     0.007 A 
ATOM     23 BR   UNL d   1      13.043  12.244  -5.406  0.00  0.00    -0.049 Br
ATOM     24  C   UNL d   1      14.053  12.646  -3.417  0.00  0.00     0.001 A 
ENDBRANCH  17  18
ENDBRANCH  16  17
ENDBRANCH   3  16
TORSDOF 5
ENDMDL
