MODEL 1
REMARK VINA RESULT:      -7.2      0.000      0.000
REMARK  3 active torsions:
REMARK  status: ('A' for Active; 'I' for Inactive)
REMARK    1  A    between atoms: C_4  and  C_8 
REMARK    2  A    between atoms: N_13  and  C_7 
REMARK       I    between atoms: C_8  and  N_12 
REMARK    3  A    between atoms: N_12  and  N_13 
ROOT
ATOM      1  C   UNL d   1     -46.562  13.085  23.022  0.00  0.00     0.297 C 
ATOM      2  N   UNL d   1     -47.300  13.037  22.646  0.00  0.00    -0.104 NA
ATOM      3  O   UNL d   1     -46.289  13.818  23.295  0.00  0.00    -0.264 OA
ENDROOT
BRANCH   2   4
ATOM      4  N   UNL d   1     -47.758  13.711  22.544  0.00  0.00    -0.125 NA
BRANCH   4   5
ATOM      5  C   UNL d   1     -48.510  13.654  22.210  0.00  0.00     0.190 A 
ATOM      6  C   UNL d   1     -49.076  14.221  22.379  0.00  0.00     0.094 A 
ATOM      7  C   UNL d   1     -49.828  14.165  22.045  0.00  0.00     0.170 A 
ATOM      8  C   UNL d   1     -49.050  14.901  22.855  0.00  0.00     0.127 A 
ATOM      9  N   UNL d   1     -50.273  14.811  22.315  0.00  0.00    -0.209 N 
ATOM     10  N   UNL d   1     -50.012  13.540  21.545  0.00  0.00    -0.205 NA
ATOM     11  C   UNL d   1     -51.064  14.971  22.115  0.00  0.00     0.123 C 
ATOM     12  N   UNL d   1     -49.794  15.264  22.813  0.00  0.00    -0.162 NA
ATOM     13  C   UNL d   1     -49.443  12.972  21.378  0.00  0.00     0.202 A 
ATOM     14  N   UNL d   1     -48.687  13.030  21.713  0.00  0.00    -0.203 NA
ENDBRANCH   4   5
ENDBRANCH   2   4
BRANCH   1  15
ATOM     15  C   UNL d   1     -46.101  12.409  23.125  0.00  0.00     0.070 A 
ATOM     16  C   UNL d   1     -45.364  12.357  22.771  0.00  0.00     0.063 A 
ATOM     17  C   UNL d   1     -44.902  11.684  22.871  0.00  0.00     0.023 A 
ATOM     18 CL   UNL d   1     -45.090  12.988  22.309  0.00  0.00    -0.082 Cl
ATOM     19  C   UNL d   1     -45.185  11.054  23.337  0.00  0.00     0.059 A 
ATOM     20  C   UNL d   1     -45.933  11.109  23.696  0.00  0.00     0.012 A 
ATOM     21 CL   UNL d   1     -44.722  10.373  23.442  0.00  0.00    -0.082 Cl
ATOM     22  C   UNL d   1     -46.386  11.784  23.589  0.00  0.00     0.007 A 
ENDBRANCH   1  15
TORSDOF 3
ENDMDL
MODEL 2
REMARK VINA RESULT:      -6.9      2.071      4.746
REMARK  3 active torsions:
REMARK  status: ('A' for Active; 'I' for Inactive)
REMARK    1  A    between atoms: C_4  and  C_8 
REMARK    2  A    between atoms: N_13  and  C_7 
REMARK       I    between atoms: C_8  and  N_12 
REMARK    3  A    between atoms: N_12  and  N_13 
ROOT
ATOM      1  C   UNL d   1     -48.061  14.232  22.488  0.00  0.00     0.297 C 
ATOM      2  N   UNL d   1     -47.853  13.552  22.915  0.00  0.00    -0.104 NA
ATOM      3  O   UNL d   1     -47.510  14.577  21.974  0.00  0.00    -0.264 OA
ENDROOT
BRANCH   2   4
ATOM      4  N   UNL d   1     -47.107  13.221  22.831  0.00  0.00    -0.125 NA
BRANCH   4   5
ATOM      5  C   UNL d   1     -46.955  12.463  23.119  0.00  0.00     0.190 A 
ATOM      6  C   UNL d   1     -46.191  12.170  23.113  0.00  0.00     0.094 A 
ATOM      7  C   UNL d   1     -46.039  11.411  23.400  0.00  0.00     0.170 A 
ATOM      8  C   UNL d   1     -45.474  12.502  22.856  0.00  0.00     0.127 A 
ATOM      9  N   UNL d   1     -45.224  11.271  23.323  0.00  0.00    -0.209 N 
ATOM     10  N   UNL d   1     -46.652  10.950  23.693  0.00  0.00    -0.205 NA
ATOM     11  C   UNL d   1     -44.831  10.573  23.545  0.00  0.00     0.123 C 
ATOM     12  N   UNL d   1     -44.878  11.942  22.988  0.00  0.00    -0.162 NA
ATOM     13  C   UNL d   1     -47.418  11.247  23.698  0.00  0.00     0.202 A 
ATOM     14  N   UNL d   1     -47.570  12.009  23.408  0.00  0.00    -0.203 NA
ENDBRANCH   4   5
ENDBRANCH   2   4
BRANCH   1  15
ATOM     15  C   UNL d   1     -48.811  14.566  22.571  0.00  0.00     0.070 A 
ATOM     16  C   UNL d   1     -49.403  14.385  22.036  0.00  0.00     0.063 A 
ATOM     17  C   UNL d   1     -50.152  14.716  22.116  0.00  0.00     0.023 A 
ATOM     18 CL   UNL d   1     -49.241  13.864  21.411  0.00  0.00    -0.082 Cl
ATOM     19  C   UNL d   1     -50.307  15.239  22.746  0.00  0.00     0.059 A 
ATOM     20  C   UNL d   1     -49.704  15.421  23.289  0.00  0.00     0.012 A 
ATOM     21 CL   UNL d   1     -51.061  15.575  22.832  0.00  0.00    -0.082 Cl
ATOM     22  C   UNL d   1     -48.961  15.086  23.200  0.00  0.00     0.007 A 
ENDBRANCH   1  15
TORSDOF 3
ENDMDL
MODEL 3
REMARK VINA RESULT:      -5.8      8.113      8.754
REMARK  3 active torsions:
REMARK  status: ('A' for Active; 'I' for Inactive)
REMARK    1  A    between atoms: C_4  and  C_8 
REMARK    2  A    between atoms: N_13  and  C_7 
REMARK       I    between atoms: C_8  and  N_12 
REMARK    3  A    between atoms: N_12  and  N_13 
ROOT
ATOM      1  C   UNL d   1     -40.265  14.514  20.896  0.00  0.00     0.297 C 
ATOM      2  N   UNL d   1     -39.993  14.459  20.115  0.00  0.00    -0.104 NA
ATOM      3  O   UNL d   1     -41.076  14.603  21.042  0.00  0.00    -0.264 OA
ENDROOT
BRANCH   2   4
ATOM      4  N   UNL d   1     -40.522  14.494  19.488  0.00  0.00    -0.125 NA
BRANCH   4   5
ATOM      5  C   UNL d   1     -40.250  14.425  18.712  0.00  0.00     0.190 A 
ATOM      6  C   UNL d   1     -40.509  14.950  18.140  0.00  0.00     0.094 A 
ATOM      7  C   UNL d   1     -40.237  14.881  17.364  0.00  0.00     0.170 A 
ATOM      8  C   UNL d   1     -41.032  15.594  18.179  0.00  0.00     0.127 A 
ATOM      9  N   UNL d   1     -40.593  15.484  16.918  0.00  0.00    -0.209 N 
ATOM     10  N   UNL d   1     -39.708  14.286  17.164  0.00  0.00    -0.205 NA
ATOM     11  C   UNL d   1     -40.473  15.619  16.106  0.00  0.00     0.123 C 
ATOM     12  N   UNL d   1     -41.081  15.922  17.419  0.00  0.00    -0.162 NA
ATOM     13  C   UNL d   1     -39.449  13.761  17.739  0.00  0.00     0.202 A 
ATOM     14  N   UNL d   1     -39.723  13.830  18.519  0.00  0.00    -0.203 NA
ENDBRANCH   4   5
ENDBRANCH   2   4
BRANCH   1  15
ATOM     15  C   UNL d   1     -39.735  14.479  21.527  0.00  0.00     0.070 A 
ATOM     16  C   UNL d   1     -39.512  15.166  21.914  0.00  0.00     0.063 A 
ATOM     17  C   UNL d   1     -38.983  15.134  22.544  0.00  0.00     0.023 A 
ATOM     18 CL   UNL d   1     -39.824  15.892  21.665  0.00  0.00    -0.082 Cl
ATOM     19  C   UNL d   1     -38.674  14.400  22.788  0.00  0.00     0.059 A 
ATOM     20  C   UNL d   1     -38.902  13.704  22.393  0.00  0.00     0.012 A 
ATOM     21 CL   UNL d   1     -38.140  14.364  23.423  0.00  0.00    -0.082 Cl
ATOM     22  C   UNL d   1     -39.429  13.746  21.767  0.00  0.00     0.007 A 
ENDBRANCH   1  15
TORSDOF 3
ENDMDL
MODEL 4
REMARK VINA RESULT:      -5.8      8.374      9.381
REMARK  3 active torsions:
REMARK  status: ('A' for Active; 'I' for Inactive)
REMARK    1  A    between atoms: C_4  and  C_8 
REMARK    2  A    between atoms: N_13  and  C_7 
REMARK       I    between atoms: C_8  and  N_12 
REMARK    3  A    between atoms: N_12  and  N_13 
ROOT
ATOM      1  C   UNL d   1     -40.532  14.445  19.162  0.00  0.00     0.297 C 
ATOM      2  N   UNL d   1     -40.092  14.749  19.796  0.00  0.00    -0.104 NA
ATOM      3  O   UNL d   1     -40.997  13.768  19.273  0.00  0.00    -0.264 OA
ENDROOT
BRANCH   2   4
ATOM      4  N   UNL d   1     -40.117  14.383  20.531  0.00  0.00    -0.125 NA
BRANCH   4   5
ATOM      5  C   UNL d   1     -39.776  14.749  21.187  0.00  0.00     0.190 A 
ATOM      6  C   UNL d   1     -39.351  14.304  21.727  0.00  0.00     0.094 A 
ATOM      7  C   UNL d   1     -39.010  14.669  22.384  0.00  0.00     0.170 A 
ATOM      8  C   UNL d   1     -39.175  13.493  21.757  0.00  0.00     0.127 A 
ATOM      9  N   UNL d   1     -38.621  14.083  22.825  0.00  0.00    -0.209 N 
ATOM     10  N   UNL d   1     -39.096  15.478  22.497  0.00  0.00    -0.205 NA
ATOM     11  C   UNL d   1     -38.202  14.209  23.532  0.00  0.00     0.123 C 
ATOM     12  N   UNL d   1     -38.723  13.360  22.439  0.00  0.00    -0.162 NA
ATOM     13  C   UNL d   1     -39.523  15.922  21.954  0.00  0.00     0.202 A 
ATOM     14  N   UNL d   1     -39.865  15.554  21.294  0.00  0.00    -0.203 NA
ENDBRANCH   4   5
ENDBRANCH   2   4
BRANCH   1  15
ATOM     15  C   UNL d   1     -40.508  14.812  18.423  0.00  0.00     0.070 A 
ATOM     16  C   UNL d   1     -40.051  14.494  17.822  0.00  0.00     0.063 A 
ATOM     17  C   UNL d   1     -40.026  14.857  17.084  0.00  0.00     0.023 A 
ATOM     18 CL   UNL d   1     -39.615  13.804  17.964  0.00  0.00    -0.082 Cl
ATOM     19  C   UNL d   1     -40.467  15.551  16.949  0.00  0.00     0.059 A 
ATOM     20  C   UNL d   1     -40.930  15.871  17.561  0.00  0.00     0.012 A 
ATOM     21 CL   UNL d   1     -40.444  15.921  16.206  0.00  0.00    -0.082 Cl
ATOM     22  C   UNL d   1     -40.949  15.502  18.293  0.00  0.00     0.007 A 
ENDBRANCH   1  15
TORSDOF 3
ENDMDL
MODEL 5
REMARK VINA RESULT:      -5.4      8.775     10.169
REMARK  3 active torsions:
REMARK  status: ('A' for Active; 'I' for Inactive)
REMARK    1  A    between atoms: C_4  and  C_8 
REMARK    2  A    between atoms: N_13  and  C_7 
REMARK       I    between atoms: C_8  and  N_12 
REMARK    3  A    between atoms: N_12  and  N_13 
ROOT
ATOM      1  C   UNL d   1     -39.378  13.993  18.143  0.00  0.00     0.297 C 
ATOM      2  N   UNL d   1     -38.981  14.379  18.762  0.00  0.00    -0.104 NA
ATOM      3  O   UNL d   1     -40.135  13.682  18.274  0.00  0.00    -0.264 OA
ENDROOT
BRANCH   2   4
ATOM      4  N   UNL d   1     -39.335  14.452  19.499  0.00  0.00    -0.125 NA
BRANCH   4   5
ATOM      5  C   UNL d   1     -38.962  14.883  20.096  0.00  0.00     0.190 A 
ATOM      6  C   UNL d   1     -39.112  14.706  20.881  0.00  0.00     0.094 A 
ATOM      7  C   UNL d   1     -38.739  15.136  21.479  0.00  0.00     0.170 A 
ATOM      8  C   UNL d   1     -39.602  14.136  21.235  0.00  0.00     0.127 A 
ATOM      9  N   UNL d   1     -38.998  14.833  22.207  0.00  0.00    -0.209 N 
ATOM     10  N   UNL d   1     -38.218  15.741  21.288  0.00  0.00    -0.205 NA
ATOM     11  C   UNL d   1     -38.761  15.106  22.955  0.00  0.00     0.123 C 
ATOM     12  N   UNL d   1     -39.529  14.219  22.056  0.00  0.00    -0.162 NA
ATOM     13  C   UNL d   1     -38.069  15.916  20.499  0.00  0.00     0.202 A 
ATOM     14  N   UNL d   1     -38.444  15.484  19.899  0.00  0.00    -0.203 NA
ENDBRANCH   4   5
ENDBRANCH   2   4
BRANCH   1  15
ATOM     15  C   UNL d   1     -39.024  13.918  17.402  0.00  0.00     0.070 A 
ATOM     16  C   UNL d   1     -39.279  14.382  16.777  0.00  0.00     0.063 A 
ATOM     17  C   UNL d   1     -38.929  14.309  16.036  0.00  0.00     0.023 A 
ATOM     18 CL   UNL d   1     -39.895  14.924  16.898  0.00  0.00    -0.082 Cl
ATOM     19  C   UNL d   1     -38.311  13.762  15.923  0.00  0.00     0.059 A 
ATOM     20  C   UNL d   1     -38.054  13.292  16.559  0.00  0.00     0.012 A 
ATOM     21 CL   UNL d   1     -37.954  13.685  15.177  0.00  0.00    -0.082 Cl
ATOM     22  C   UNL d   1     -38.410  13.372  17.294  0.00  0.00     0.007 A 
ENDBRANCH   1  15
TORSDOF 3
ENDMDL
