MODEL 1
REMARK VINA RESULT:      48.2      0.000      0.000
REMARK  3 active torsions:
REMARK  status: ('A' for Active; 'I' for Inactive)
REMARK    1  A    between atoms: N_2  and  S_1 
REMARK    2  A    between atoms: C_3  and  S_1 
REMARK    3  A    between atoms: C_4  and  N_2 
ROOT
ATOM      1  S   UNL d   1     -50.637  25.076  33.546  0.00  0.00     0.287 S 
ATOM      2  O   UNL d   1     -50.733  24.255  33.470  0.00  0.00    -0.198 OA
ATOM      3  O   UNL d   1     -49.851  25.003  33.308  0.00  0.00    -0.198 OA
ENDROOT
BRANCH   1   4
ATOM      4  N   UNL d   1     -51.424  25.141  33.783  0.00  0.00    -0.139 NA
BRANCH   4   5
ATOM      5  C   UNL d   1     -51.924  24.488  33.768  0.00  0.00     0.175 A 
ATOM      6  N   UNL d   1     -52.619  24.481  34.207  0.00  0.00    -0.226 NA
ATOM      7  C   UNL d   1     -53.074  23.853  34.176  0.00  0.00     0.083 A 
ATOM      8  C   UNL d   1     -53.784  23.816  34.609  0.00  0.00     0.021 C 
ATOM      9  C   UNL d   1     -52.875  23.198  33.715  0.00  0.00     0.019 A 
ATOM     10  C   UNL d   1     -52.236  23.216  33.318  0.00  0.00     0.005 A 
ATOM     11  C   UNL d   1     -51.726  23.833  33.307  0.00  0.00     0.040 A 
ENDBRANCH   4   5
ENDBRANCH   1   4
BRANCH   1  12
ATOM     12  C   UNL d   1     -50.539  25.882  33.619  0.00  0.00     0.105 A 
ATOM     13  C   UNL d   1     -49.871  26.186  33.996  0.00  0.00     0.013 A 
ATOM     14  C   UNL d   1     -49.775  27.001  34.069  0.00  0.00     0.001 A 
ATOM     15  C   UNL d   1     -49.111  27.303  34.444  0.00  0.00     0.000 A 
ATOM     16  C   UNL d   1     -50.345  27.514  33.765  0.00  0.00     0.000 A 
ATOM     17  C   UNL d   1     -49.010  28.122  34.519  0.00  0.00     0.000 A 
ATOM     18  C   UNL d   1     -49.586  28.636  34.212  0.00  0.00     0.000 A 
ATOM     19  C   UNL d   1     -50.250  28.334  33.837  0.00  0.00     0.000 A 
ATOM     20  C   UNL d   1     -51.013  27.210  33.388  0.00  0.00     0.001 A 
ATOM     21  C   UNL d   1     -51.108  26.394  33.316  0.00  0.00     0.013 A 
ENDBRANCH   1  12
TORSDOF 3
ENDMDL
