MODEL 1
REMARK VINA RESULT:      -4.1      0.000      0.000
REMARK  5 active torsions:
REMARK  status: ('A' for Active; 'I' for Inactive)
REMARK    1  A    between atoms: C_11  and  N_1 
REMARK    2  A    between atoms: S_8  and  C_4 
REMARK    3  A    between atoms: C_6  and  S_8 
REMARK    4  A    between atoms: C_9  and  C_7 
REMARK    5  A    between atoms: N_10  and  C_13 
ROOT
ATOM      1  N   UNL d   1      57.287  -0.540  31.308  0.00  0.00    -0.241 N 
ATOM      2  C   UNL d   1      57.257  -1.278  30.943  0.00  0.00     0.268 A 
ATOM      3  C   UNL d   1      57.843  -0.088  30.927  0.00  0.00     0.273 A 
ATOM      4  C   UNL d   1      58.168  -0.548  30.313  0.00  0.00     0.092 A 
ATOM      5  C   UNL d   1      57.798  -1.278  30.334  0.00  0.00     0.072 A 
ATOM      6  O   UNL d   1      56.777  -1.923  31.134  0.00  0.00    -0.267 OA
ATOM      7  O   UNL d   1      58.050   0.682  31.110  0.00  0.00    -0.266 OA
ENDROOT
BRANCH   1   8
ATOM      8  C   UNL d   1      56.813  -0.331  31.954  0.00  0.00     0.070 A 
ATOM      9  C   UNL d   1      56.609  -0.897  32.504  0.00  0.00     0.019 A 
ATOM     10  C   UNL d   1      56.126  -0.684  33.162  0.00  0.00     0.019 A 
ATOM     11  C   UNL d   1      55.870   0.085  33.241  0.00  0.00     0.064 A 
ATOM     12  C   UNL d   1      56.082   0.667  32.673  0.00  0.00     0.019 A 
ATOM     13  C   UNL d   1      56.556   0.441  32.033  0.00  0.00     0.019 A 
BRANCH  11  14
ATOM     14  N   UNL d   1      55.402   0.281  33.883  0.00  0.00    -0.300 N 
ATOM     15  C   UNL d   1      55.736   0.336  34.653  0.00  0.00     0.107 A 
ATOM     16  C   UNL d   1      55.249   0.536  35.293  0.00  0.00     0.142 A 
ATOM     17  O   UNL d   1      54.445   0.682  35.197  0.00  0.00    -0.300 OA
ATOM     18  C   UNL d   1      54.111   0.626  34.428  0.00  0.00     0.142 A 
ATOM     19  C   UNL d   1      54.601   0.425  33.781  0.00  0.00     0.107 A 
ENDBRANCH  11  14
ENDBRANCH   1   8
BRANCH   4  20
ATOM     20  S   UNL d   1      58.753  -0.329  29.773  0.00  0.00    -0.063 SA
BRANCH  20  21
ATOM     21  C   UNL d   1      59.214  -0.898  29.388  0.00  0.00     0.117 A 
ATOM     22  C   UNL d   1      59.954  -0.696  29.076  0.00  0.00     0.088 A 
ATOM     23  C   UNL d   1      60.403  -1.263  28.698  0.00  0.00     0.010 A 
ATOM     24  C   UNL d   1      60.132  -2.024  28.625  0.00  0.00     0.021 A 
ATOM     25  C   UNL d   1      59.404  -2.238  28.928  0.00  0.00     0.100 A 
ATOM     26  N   UNL d   1      58.943  -1.662  29.315  0.00  0.00    -0.237 NA
BRANCH  22  27
ATOM     27  C   UNL d   1      60.232   0.082  29.150  0.00  0.00     0.213 C 
ATOM     28  O   UNL d   1      60.762   0.265  29.754  0.00  0.00    -0.644 OA
ATOM     29  O   UNL d   1      59.976   0.664  28.619  0.00  0.00    -0.644 OA
ENDBRANCH  22  27
ENDBRANCH  20  21
ENDBRANCH   4  20
TORSDOF 5
ENDMDL
