MODEL 1
REMARK VINA RESULT:      86.4      0.000      0.000
REMARK  3 active torsions:
REMARK  status: ('A' for Active; 'I' for Inactive)
REMARK    1  A    between atoms: C_9  and  N_1 
REMARK    2  A    between atoms: C_8  and  C_3 
REMARK    3  A    between atoms: C_17  and  C_9 
ROOT
ATOM      1  N   UNL d   1      59.324  49.039  50.885  0.00  0.00    -0.269 N 
ATOM      2  N   UNL d   1      58.760  49.638  51.940  0.00  0.00    -0.204 NA
ATOM      3  C   UNL d   1      58.614  49.340  51.185  0.00  0.00     0.174 A 
ATOM      4  C   UNL d   1      59.908  49.152  51.457  0.00  0.00     0.185 A 
ATOM      5  C   UNL d   1      59.560  49.524  52.113  0.00  0.00     0.199 A 
ATOM      6  N   UNL d   1      60.712  48.967  51.471  0.00  0.00    -0.224 NA
ATOM      7  N   UNL d   1      60.011  49.706  52.771  0.00  0.00    -0.223 NA
ATOM      8  C   UNL d   1      61.165  49.154  52.140  0.00  0.00     0.101 A 
ATOM      9  C   UNL d   1      60.810  49.525  52.790  0.00  0.00     0.101 A 
ATOM     10  C   UNL d   1      61.973  48.969  52.157  0.00  0.00     0.021 A 
ATOM     11  C   UNL d   1      61.261  49.707  53.448  0.00  0.00     0.021 A 
ATOM     12  C   UNL d   1      62.418  49.155  52.820  0.00  0.00     0.002 A 
ATOM     13  C   UNL d   1      62.061  49.525  53.467  0.00  0.00     0.002 A 
ENDROOT
BRANCH   1  14
ATOM     14  C   UNL d   1      59.435  48.690  50.152  0.00  0.00     0.108 C 
BRANCH  14  15
ATOM     15  C   UNL d   1      60.065  48.929  49.679  0.00  0.00     0.118 A 
ATOM     16  O   UNL d   1      60.637  48.437  49.342  0.00  0.00    -0.304 OA
ATOM     17  C   UNL d   1      61.160  48.906  48.914  0.00  0.00     0.123 A 
ATOM     18  C   UNL d   1      60.915  49.688  48.983  0.00  0.00     0.029 A 
ATOM     19  C   UNL d   1      60.240  49.703  49.454  0.00  0.00     0.028 A 
ENDBRANCH  14  15
ENDBRANCH   1  14
BRANCH   3  20
ATOM     20  C   UNL d   1      57.887  49.344  50.802  0.00  0.00     0.135 A 
ATOM     21  O   UNL d   1      57.788  49.466  49.984  0.00  0.00    -0.302 OA
ATOM     22  C   UNL d   1      56.909  49.424  49.820  0.00  0.00     0.123 A 
ATOM     23  C   UNL d   1      56.505  49.275  50.560  0.00  0.00     0.029 A 
ATOM     24  C   UNL d   1      57.124  49.224  51.182  0.00  0.00     0.030 A 
ENDBRANCH   3  20
TORSDOF 3
ENDMDL
