MODEL 1
REMARK VINA RESULT:      61.6      0.000      0.000
REMARK  2 active torsions:
REMARK  status: ('A' for Active; 'I' for Inactive)
REMARK    1  A    between atoms: S_12  and  C_3 
REMARK    2  A    between atoms: C_14  and  S_12 
ROOT
ATOM      1  N   UNL d   1     -58.297 -98.827 -40.602  0.00  0.00    -0.195 NA
ATOM      2  C   UNL d   1     -58.260 -99.069 -41.389  0.00  0.00     0.086 C 
ATOM      3  C   UNL d   1     -58.222 -99.324 -42.173  0.00  0.00     0.170 C 
ENDROOT
BRANCH   3   4
ATOM      4  S   UNL d   1     -58.230 -98.763 -42.778  0.00  0.00    -0.060 SA
BRANCH   4   5
ATOM      5  C   UNL d   1     -57.629 -98.762 -43.348  0.00  0.00     0.177 A 
ATOM      6  N   UNL d   1     -57.824 -98.762 -44.149  0.00  0.00    -0.270 N 
ATOM      7  C   UNL d   1     -57.235 -98.761 -44.725  0.00  0.00     0.151 A 
ATOM      8  C   UNL d   1     -58.552 -98.762 -44.547  0.00  0.00     0.085 A 
ATOM      9  N   UNL d   1     -57.586 -98.761 -45.466  0.00  0.00    -0.227 NA
ATOM     10  C   UNL d   1     -56.443 -98.761 -44.484  0.00  0.00     0.052 A 
ATOM     11  C   UNL d   1     -58.403 -98.762 -45.359  0.00  0.00     0.099 A 
ATOM     12  C   UNL d   1     -59.030 -98.762 -45.890  0.00  0.00     0.021 A 
ATOM     13  C   UNL d   1     -59.804 -98.762 -45.609  0.00  0.00     0.002 A 
ATOM     14  C   UNL d   1     -59.954 -98.763 -44.798  0.00  0.00     0.002 A 
ATOM     15  C   UNL d   1     -59.325 -98.763 -44.269  0.00  0.00     0.019 A 
ATOM     16  C   UNL d   1     -55.847 -98.760 -45.054  0.00  0.00     0.004 A 
ATOM     17  C   UNL d   1     -56.248 -98.762 -43.682  0.00  0.00     0.086 A 
ATOM     18  C   UNL d   1     -55.052 -98.760 -44.821  0.00  0.00     0.000 A 
ATOM     19  C   UNL d   1     -54.858 -98.761 -44.020  0.00  0.00     0.002 A 
ATOM     20  C   UNL d   1     -55.458 -98.761 -43.450  0.00  0.00     0.019 A 
ATOM     21  N   UNL d   1     -56.844 -98.762 -43.114  0.00  0.00    -0.222 NA
ENDBRANCH   4   5
ENDBRANCH   3   4
TORSDOF 2
ENDMDL
