MODEL 1
REMARK VINA RESULT:      84.9      0.000      0.000
REMARK  9 active torsions:
REMARK  status: ('A' for Active; 'I' for Inactive)
REMARK    1  A    between atoms: N_6  and  S_1 
REMARK    2  A    between atoms: C_12  and  S_1 
REMARK    3  A    between atoms: C_2  and  C_3 
REMARK    4  A    between atoms: C_4  and  C_2 
REMARK    5  A    between atoms: C_5  and  C_2 
REMARK    6  A    between atoms: O_14  and  C_4 
REMARK    7  A    between atoms: C_9  and  C_5 
REMARK    8  A    between atoms: C_7  and  N_6 
REMARK    9  A    between atoms: C_29  and  O_14 
ROOT
ATOM      1  C   UNL d   1      13.833  13.142  -2.832  0.00  0.00     0.049 A 
ATOM      2  C   UNL d   1      14.770  13.403  -1.790  0.00  0.00     0.094 A 
ATOM      3  C   UNL d   1      13.447  12.598  -2.338  0.00  0.00     0.196 A 
ATOM      4  C   UNL d   1      14.491  13.543  -2.559  0.00  0.00     0.023 A 
ATOM      5  C   UNL d   1      13.725  12.456  -1.563  0.00  0.00     0.040 A 
ATOM      6  C   UNL d   1      14.384  12.857  -1.291  0.00  0.00     0.021 A 
ATOM      7  O   UNL d   1      12.783  12.194  -2.613  0.00  0.00    -0.287 OA
ATOM      8  C   UNL d   1      13.310  11.908  -1.112  0.00  0.00     0.003 A 
ATOM      9  C   UNL d   1      14.667  12.723  -0.526  0.00  0.00     0.002 A 
ATOM     10  C   UNL d   1      13.633  11.782  -0.295  0.00  0.00     0.000 A 
ATOM     11  C   UNL d   1      14.277  12.174  -0.028  0.00  0.00     0.000 A 
ENDROOT
BRANCH   2  12
ATOM     12  N   UNL d   1      15.452  13.832  -1.537  0.00  0.00    -0.158 NA
BRANCH  12  13
ATOM     13  S   UNL d   1      15.380  14.618  -1.319  0.00  0.00     0.285 S 
ATOM     14  O   UNL d   1      15.138  14.386  -0.549  0.00  0.00    -0.198 OA
ATOM     15  O   UNL d   1      15.617  14.868  -2.073  0.00  0.00    -0.198 OA
BRANCH  13  16
ATOM     16  C   UNL d   1      15.302  15.429  -1.079  0.00  0.00     0.105 A 
ATOM     17  C   UNL d   1      15.950  15.913  -1.010  0.00  0.00     0.013 A 
ATOM     18  C   UNL d   1      15.873  16.687  -0.780  0.00  0.00     0.001 A 
ATOM     19  C   UNL d   1      16.532  17.157  -0.716  0.00  0.00     0.000 A 
ATOM     20  C   UNL d   1      15.102  17.008  -0.607  0.00  0.00     0.000 A 
ATOM     21  C   UNL d   1      16.463  17.989  -0.471  0.00  0.00     0.000 A 
ATOM     22  C   UNL d   1      15.703  18.293  -0.304  0.00  0.00     0.000 A 
ATOM     23  C   UNL d   1      15.017  17.806  -0.370  0.00  0.00     0.000 A 
ATOM     24  C   UNL d   1      14.469  16.502  -0.685  0.00  0.00     0.001 A 
ATOM     25  C   UNL d   1      14.549  15.724  -0.915  0.00  0.00     0.013 A 
ENDBRANCH  13  16
ENDBRANCH  12  13
ENDBRANCH   2  12
BRANCH   1  26
ATOM     26  C   UNL d   1      13.555  13.284  -3.606  0.00  0.00     0.110 C 
BRANCH  26  27
ATOM     27  C   UNL d   1      13.442  12.629  -4.095  0.00  0.00     0.303 C 
ATOM     28  O   UNL d   1      12.782  12.142  -3.999  0.00  0.00    -0.259 OA
BRANCH  27  29
ATOM     29  O   UNL d   1      14.014  12.498  -4.666  0.00  0.00    -0.273 OA
BRANCH  29  30
ATOM     30  C   UNL d   1      13.785  12.170  -5.387  0.00  0.00     0.103 C 
ATOM     31  C   UNL d   1      13.088  11.780  -5.445  0.00  0.00     0.027 C 
ATOM     32  C   UNL d   1      14.280  12.251  -6.038  0.00  0.00     0.027 C 
ENDBRANCH  29  30
ENDBRANCH  27  29
ENDBRANCH  26  27
BRANCH  26  33
ATOM     33  C   UNL d   1      13.399  14.061  -3.869  0.00  0.00     0.272 C 
ATOM     34  O   UNL d   1      12.769  14.458  -3.573  0.00  0.00    -0.282 OA
BRANCH  33  35
ATOM     35  C   UNL d   1      13.892  14.406  -4.423  0.00  0.00     0.456 C 
ATOM     36  F   UNL d   1      13.591  15.155  -4.176  0.00  0.00    -0.163 F 
ATOM     37  F   UNL d   1      14.166  13.661  -4.643  0.00  0.00    -0.163 F 
ATOM     38  F   UNL d   1      14.371  14.772  -4.966  0.00  0.00    -0.163 F 
ENDBRANCH  33  35
ENDBRANCH  26  33
ENDBRANCH   1  26
TORSDOF 9
ENDMDL
