MODEL 1
REMARK VINA RESULT:      83.8      0.000      0.000
REMARK  10 active torsions:
REMARK  status: ('A' for Active; 'I' for Inactive)
REMARK    1  A    between atoms: C_7  and  C_1 
REMARK    2  A    between atoms: C_8  and  C_2 
REMARK    3  A    between atoms: O_24  and  C_8 
REMARK    4  A    between atoms: O_25  and  C_12 
REMARK    5  A    between atoms: C_14  and  C_22 
REMARK    6  A    between atoms: O_26  and  C_14 
REMARK    7  A    between atoms: O_27  and  C_16 
REMARK    8  A    between atoms: O_21  and  C_20 
REMARK    9  A    between atoms: C_22  and  O_21 
REMARK   10  A    between atoms: C_28  and  O_24 
ROOT
ATOM      1  C   UNL d   1     -51.600  25.744  33.769  0.00  0.00     0.067 A 
ATOM      2  C   UNL d   1     -50.802  25.520  33.719  0.00  0.00     0.166 A 
ATOM      3  C   UNL d   1     -51.809  26.553  33.715  0.00  0.00     0.200 A 
ATOM      4  O   UNL d   1     -50.205  26.098  33.615  0.00  0.00    -0.301 OA
ATOM      5  C   UNL d   1     -51.227  27.123  33.613  0.00  0.00     0.062 A 
ATOM      6  C   UNL d   1     -50.422  26.898  33.563  0.00  0.00     0.105 A 
ATOM      7  C   UNL d   1     -49.833  27.474  33.460  0.00  0.00     0.050 A 
ATOM      8  C   UNL d   1     -51.424  27.929  33.558  0.00  0.00     0.007 A 
ATOM      9  O   UNL d   1     -52.604  26.772  33.765  0.00  0.00    -0.286 OA
ATOM     10  C   UNL d   1     -50.047  28.272  33.408  0.00  0.00     0.102 A 
ATOM     11  C   UNL d   1     -50.838  28.499  33.457  0.00  0.00     0.025 A 
ENDROOT
BRANCH   1  12
ATOM     12  C   UNL d   1     -52.186  25.174  33.871  0.00  0.00     0.007 A 
ATOM     13  C   UNL d   1     -52.673  25.212  34.540  0.00  0.00     0.026 A 
ATOM     14  C   UNL d   1     -53.260  24.636  34.636  0.00  0.00     0.116 A 
ATOM     15  C   UNL d   1     -53.357  24.035  34.073  0.00  0.00     0.116 A 
ATOM     16  C   UNL d   1     -52.868  24.007  33.411  0.00  0.00     0.026 A 
ATOM     17  C   UNL d   1     -52.282  24.577  33.310  0.00  0.00     0.002 A 
BRANCH  14  18
ATOM     18  O   UNL d   1     -53.749  24.665  35.298  0.00  0.00    -0.326 OA
ATOM     19  C   UNL d   1     -53.421  24.661  36.055  0.00  0.00     0.181 C 
ENDBRANCH  14  18
BRANCH  15  20
ATOM     20  O   UNL d   1     -53.942  23.468  34.177  0.00  0.00    -0.326 OA
ATOM     21  C   UNL d   1     -54.111  23.190  34.938  0.00  0.00     0.181 C 
ENDBRANCH  15  20
ENDBRANCH   1  12
BRANCH   2  22
ATOM     22  C   UNL d   1     -50.597  24.724  33.772  0.00  0.00     0.323 C 
ATOM     23  O   UNL d   1     -51.004  24.221  34.279  0.00  0.00    -0.257 OA
BRANCH  22  24
ATOM     24  O   UNL d   1     -49.974  24.422  33.309  0.00  0.00    -0.270 OA
BRANCH  24  25
ATOM     25  C   UNL d   1     -49.547  23.767  33.568  0.00  0.00     0.126 C 
ATOM     26  C   UNL d   1     -48.753  23.682  33.362  0.00  0.00     0.029 C 
ENDBRANCH  24  25
ENDBRANCH  22  24
ENDBRANCH   2  22
BRANCH  10  27
ATOM     27  O   UNL d   1     -49.460  28.840  33.306  0.00  0.00    -0.300 OA
BRANCH  27  28
ATOM     28  C   UNL d   1     -49.506  29.558  33.699  0.00  0.00     0.191 C 
BRANCH  28  29
ATOM     29  C   UNL d   1     -48.960  29.741  34.290  0.00  0.00     0.321 C 
ATOM     30  O   UNL d   1     -48.805  30.528  34.484  0.00  0.00    -0.257 OA
BRANCH  29  31
ATOM     31  O   UNL d   1     -48.565  29.141  34.690  0.00  0.00    -0.294 OA
ATOM     32  C   UNL d   1     -47.837  29.284  35.048  0.00  0.00     0.185 C 
ENDBRANCH  29  31
ENDBRANCH  28  29
ENDBRANCH  27  28
ENDBRANCH  10  27
TORSDOF 10
ENDMDL
MODEL 2
REMARK VINA RESULT:      86.1      1.843      5.907
REMARK  10 active torsions:
REMARK  status: ('A' for Active; 'I' for Inactive)
REMARK    1  A    between atoms: C_7  and  C_1 
REMARK    2  A    between atoms: C_8  and  C_2 
REMARK    3  A    between atoms: O_24  and  C_8 
REMARK    4  A    between atoms: O_25  and  C_12 
REMARK    5  A    between atoms: C_14  and  C_22 
REMARK    6  A    between atoms: O_26  and  C_14 
REMARK    7  A    between atoms: O_27  and  C_16 
REMARK    8  A    between atoms: O_21  and  C_20 
REMARK    9  A    between atoms: C_22  and  O_21 
REMARK   10  A    between atoms: C_28  and  O_24 
ROOT
ATOM      1  C   UNL d   1     -49.030  27.907  35.274  0.00  0.00     0.067 A 
ATOM      2  C   UNL d   1     -49.595  27.660  35.830  0.00  0.00     0.166 A 
ATOM      3  C   UNL d   1     -49.041  27.589  34.499  0.00  0.00     0.200 A 
ATOM      4  O   UNL d   1     -50.177  27.095  35.620  0.00  0.00    -0.301 OA
ATOM      5  C   UNL d   1     -49.609  27.035  34.290  0.00  0.00     0.062 A 
ATOM      6  C   UNL d   1     -50.180  26.786  34.849  0.00  0.00     0.105 A 
ATOM      7  C   UNL d   1     -50.755  26.226  34.638  0.00  0.00     0.050 A 
ATOM      8  C   UNL d   1     -49.629  26.713  33.523  0.00  0.00     0.007 A 
ATOM      9  O   UNL d   1     -48.476  27.837  33.950  0.00  0.00    -0.286 OA
ATOM     10  C   UNL d   1     -50.761  25.915  33.870  0.00  0.00     0.102 A 
ATOM     11  C   UNL d   1     -50.200  26.158  33.315  0.00  0.00     0.025 A 
ENDROOT
BRANCH   1  12
ATOM     12  C   UNL d   1     -48.459  28.462  35.482  0.00  0.00     0.007 A 
ATOM     13  C   UNL d   1     -48.539  29.243  35.216  0.00  0.00     0.026 A 
ATOM     14  C   UNL d   1     -47.961  29.796  35.429  0.00  0.00     0.116 A 
ATOM     15  C   UNL d   1     -47.315  29.572  35.898  0.00  0.00     0.116 A 
ATOM     16  C   UNL d   1     -47.244  28.793  36.157  0.00  0.00     0.026 A 
ATOM     17  C   UNL d   1     -47.816  28.239  35.949  0.00  0.00     0.002 A 
BRANCH  14  18
ATOM     18  O   UNL d   1     -48.033  30.574  35.170  0.00  0.00    -0.326 OA
ATOM     19  C   UNL d   1     -48.206  30.733  34.379  0.00  0.00     0.181 C 
ENDBRANCH  14  18
BRANCH  15  20
ATOM     20  O   UNL d   1     -46.747  30.127  36.104  0.00  0.00    -0.326 OA
ATOM     21  C   UNL d   1     -46.971  30.914  36.230  0.00  0.00     0.181 C 
ENDBRANCH  15  20
ENDBRANCH   1  12
BRANCH   2  22
ATOM     22  C   UNL d   1     -49.584  27.973  36.591  0.00  0.00     0.323 C 
ATOM     23  O   UNL d   1     -49.556  28.786  36.708  0.00  0.00    -0.257 OA
BRANCH  22  24
ATOM     24  O   UNL d   1     -49.600  27.465  37.251  0.00  0.00    -0.270 OA
BRANCH  24  25
ATOM     25  C   UNL d   1     -50.027  27.674  37.923  0.00  0.00     0.126 C 
ATOM     26  C   UNL d   1     -50.797  27.396  38.028  0.00  0.00     0.029 C 
ENDBRANCH  24  25
ENDBRANCH  22  24
ENDBRANCH   2  22
BRANCH  10  27
ATOM     27  O   UNL d   1     -51.332  25.360  33.664  0.00  0.00    -0.300 OA
BRANCH  27  28
ATOM     28  C   UNL d   1     -51.443  24.690  34.124  0.00  0.00     0.191 C 
BRANCH  28  29
ATOM     29  C   UNL d   1     -51.728  23.996  33.780  0.00  0.00     0.321 C 
ATOM     30  O   UNL d   1     -51.205  23.411  33.527  0.00  0.00    -0.257 OA
BRANCH  29  31
ATOM     31  O   UNL d   1     -52.538  23.882  33.688  0.00  0.00    -0.294 OA
ATOM     32  C   UNL d   1     -52.827  23.191  33.346  0.00  0.00     0.185 C 
ENDBRANCH  29  31
ENDBRANCH  28  29
ENDBRANCH  27  28
ENDBRANCH  10  27
TORSDOF 10
ENDMDL
