MODEL 1
REMARK VINA RESULT:      41.9      0.000      0.000
REMARK  4 active torsions:
REMARK  status: ('A' for Active; 'I' for Inactive)
REMARK    1  A    between atoms: C_5  and  C_1 
REMARK       I    between atoms: N_8  and  C_5 
REMARK    2  A    between atoms: C_10  and  N_8 
REMARK    3  A    between atoms: C_13  and  C_10 
REMARK    4  A    between atoms: C_11  and  C_13 
ROOT
ATOM      1  C   UNL d   1     -50.889  25.000  33.393  0.00  0.00     0.299 C 
ATOM      2  O   UNL d   1     -50.121  24.731  33.307  0.00  0.00    -0.263 OA
ATOM      3  N   UNL d   1     -51.035  25.805  33.507  0.00  0.00    -0.205 NA
ENDROOT
BRANCH   1   4
ATOM      4  C   UNL d   1     -51.520  24.467  33.367  0.00  0.00     0.162 A 
ATOM      5  N   UNL d   1     -51.455  23.651  33.352  0.00  0.00    -0.143 NA
ATOM      6  N   UNL d   1     -52.221  23.328  33.326  0.00  0.00    -0.148 NA
ATOM      7  C   UNL d   1     -52.755  23.967  33.326  0.00  0.00     0.105 A 
ATOM      8  C   UNL d   1     -52.320  24.668  33.351  0.00  0.00     0.044 A 
ATOM      9  C   UNL d   1     -53.569  23.988  33.306  0.00  0.00     0.021 A 
ATOM     10  C   UNL d   1     -52.715  25.388  33.356  0.00  0.00     0.003 A 
ATOM     11  C   UNL d   1     -53.525  25.410  33.336  0.00  0.00     0.000 A 
ATOM     12  C   UNL d   1     -53.954  24.714  33.312  0.00  0.00     0.002 A 
ENDBRANCH   1   4
BRANCH   3  13
ATOM     13  C   UNL d   1     -50.404  26.338  33.533  0.00  0.00     0.102 C 
BRANCH  13  14
ATOM     14  C   UNL d   1     -50.553  27.149  33.446  0.00  0.00     0.021 C 
BRANCH  14  15
ATOM     15  C   UNL d   1     -50.013  27.693  33.766  0.00  0.00     0.002 A 
ATOM     16  C   UNL d   1     -50.041  28.483  33.512  0.00  0.00     0.000 A 
ATOM     17  C   UNL d   1     -49.501  29.026  33.832  0.00  0.00     0.000 A 
ATOM     18  C   UNL d   1     -48.950  28.786  34.389  0.00  0.00     0.000 A 
ATOM     19  C   UNL d   1     -48.934  28.001  34.632  0.00  0.00     0.000 A 
ATOM     20  C   UNL d   1     -49.454  27.458  34.329  0.00  0.00     0.000 A 
ENDBRANCH  14  15
ENDBRANCH  13  14
ENDBRANCH   3  13
TORSDOF 4
ENDMDL
