MODEL 1
REMARK VINA RESULT:      60.8      0.000      0.000
REMARK  9 active torsions:
REMARK  status: ('A' for Active; 'I' for Inactive)
REMARK    1  A    between atoms: N_5  and  S_1 
REMARK    2  A    between atoms: C_8  and  S_1 
REMARK    3  A    between atoms: C_2  and  N_10 
REMARK    4  A    between atoms: C_9  and  N_5 
REMARK    5  A    between atoms: C_25  and  N_5 
REMARK    6  A    between atoms: C_13  and  C_9 
REMARK    7  A    between atoms: N_10  and  O_14 
REMARK    8  A    between atoms: C_17  and  C_13 
REMARK    9  A    between atoms: O_14  and  C_17 
ROOT
ATOM      1  C   UNL d   1     -48.667  28.720  35.077  0.00  0.00     0.240 C 
ATOM      2  O   UNL d   1     -49.008  28.490  35.797  0.00  0.00    -0.283 OA
ENDROOT
BRANCH   1   3
ATOM      3  C   UNL d   1     -48.160  29.180  35.548  0.00  0.00     0.136 C 
BRANCH   3   4
ATOM      4  N   UNL d   1     -47.500  29.537  35.200  0.00  0.00    -0.226 N 
BRANCH   4   5
ATOM      5  S   UNL d   1     -47.470  30.361  35.109  0.00  0.00     0.271 S 
ATOM      6  O   UNL d   1     -47.044  30.251  35.813  0.00  0.00    -0.200 OA
ATOM      7  O   UNL d   1     -47.847  30.681  34.449  0.00  0.00    -0.200 OA
BRANCH   5   8
ATOM      8  C   UNL d   1     -47.575  31.120  34.813  0.00  0.00     0.104 A 
ATOM      9  C   UNL d   1     -47.236  31.762  35.195  0.00  0.00     0.013 A 
ATOM     10  C   UNL d   1     -47.344  32.527  34.894  0.00  0.00     0.001 A 
ATOM     11  C   UNL d   1     -47.794  32.641  34.206  0.00  0.00     0.000 A 
ATOM     12  C   UNL d   1     -48.111  31.960  33.864  0.00  0.00     0.001 A 
ATOM     13  C   UNL d   1     -47.916  33.394  33.887  0.00  0.00     0.000 C 
ATOM     14  C   UNL d   1     -48.028  31.190  34.130  0.00  0.00     0.013 A 
ENDBRANCH   5   8
ENDBRANCH   4   5
BRANCH   4  15
ATOM     15  C   UNL d   1     -46.800  29.223  34.894  0.00  0.00     0.092 C 
ATOM     16  C   UNL d   1     -46.257  28.864  35.403  0.00  0.00     0.021 C 
ENDBRANCH   4  15
ENDBRANCH   3   4
ENDBRANCH   1   3
BRANCH   1  17
ATOM     17  C   UNL d   1     -48.953  28.426  34.363  0.00  0.00     0.193 C 
BRANCH  17  18
ATOM     18  O   UNL d   1     -49.340  27.695  34.350  0.00  0.00    -0.206 OA
BRANCH  18  19
ATOM     19  N   UNL d   1     -49.386  27.264  33.650  0.00  0.00    -0.126 NA
BRANCH  19  20
ATOM     20  C   UNL d   1     -49.983  26.701  33.546  0.00  0.00     0.108 A 
ATOM     21  C   UNL d   1     -49.874  25.882  33.486  0.00  0.00     0.020 A 
ATOM     22  C   UNL d   1     -50.615  25.534  33.387  0.00  0.00     0.002 A 
ATOM     23  C   UNL d   1     -49.197  25.411  33.509  0.00  0.00     0.002 A 
ATOM     24  C   UNL d   1     -50.680  24.714  33.311  0.00  0.00     0.000 A 
ATOM     25  C   UNL d   1     -51.185  26.126  33.384  0.00  0.00     0.002 A 
ATOM     26  C   UNL d   1     -50.003  24.244  33.334  0.00  0.00     0.000 A 
ATOM     27  C   UNL d   1     -49.261  24.591  33.433  0.00  0.00     0.000 A 
ATOM     28  C   UNL d   1     -50.793  26.846  33.483  0.00  0.00     0.020 A 
ATOM     29  C   UNL d   1     -52.005  26.115  33.307  0.00  0.00     0.000 A 
ATOM     30  C   UNL d   1     -51.217  27.550  33.503  0.00  0.00     0.002 A 
ATOM     31  C   UNL d   1     -52.037  27.539  33.426  0.00  0.00     0.000 A 
ATOM     32  C   UNL d   1     -52.433  26.817  33.327  0.00  0.00     0.000 A 
ENDBRANCH  19  20
ENDBRANCH  18  19
ENDBRANCH  17  18
ENDBRANCH   1  17
TORSDOF 9
ENDMDL
MODEL 2
REMARK VINA RESULT:      63.0      0.562      1.807
REMARK  9 active torsions:
REMARK  status: ('A' for Active; 'I' for Inactive)
REMARK    1  A    between atoms: N_5  and  S_1 
REMARK    2  A    between atoms: C_8  and  S_1 
REMARK    3  A    between atoms: C_2  and  N_10 
REMARK    4  A    between atoms: C_9  and  N_5 
REMARK    5  A    between atoms: C_25  and  N_5 
REMARK    6  A    between atoms: C_13  and  C_9 
REMARK    7  A    between atoms: N_10  and  O_14 
REMARK    8  A    between atoms: C_17  and  C_13 
REMARK    9  A    between atoms: O_14  and  C_17 
ROOT
ATOM      1  C   UNL d   1     -48.417  28.653  34.872  0.00  0.00     0.240 C 
ATOM      2  O   UNL d   1     -48.429  28.270  35.607  0.00  0.00    -0.283 OA
ENDROOT
BRANCH   1   3
ATOM      3  C   UNL d   1     -47.681  28.948  35.119  0.00  0.00     0.136 C 
BRANCH   3   4
ATOM      4  N   UNL d   1     -47.642  29.704  35.454  0.00  0.00    -0.226 N 
BRANCH   4   5
ATOM      5  S   UNL d   1     -47.533  30.370  34.972  0.00  0.00     0.271 S 
ATOM      6  O   UNL d   1     -47.008  29.825  34.632  0.00  0.00    -0.200 OA
ATOM      7  O   UNL d   1     -47.979  31.040  35.150  0.00  0.00    -0.200 OA
BRANCH   5   8
ATOM      8  C   UNL d   1     -47.600  31.123  34.652  0.00  0.00     0.104 A 
ATOM      9  C   UNL d   1     -47.578  31.229  33.838  0.00  0.00     0.013 A 
ATOM     10  C   UNL d   1     -47.646  31.990  33.518  0.00  0.00     0.001 A 
ATOM     11  C   UNL d   1     -47.735  32.644  34.021  0.00  0.00     0.000 A 
ATOM     12  C   UNL d   1     -47.751  32.479  34.831  0.00  0.00     0.001 A 
ATOM     13  C   UNL d   1     -47.805  33.413  33.725  0.00  0.00     0.000 C 
ATOM     14  C   UNL d   1     -47.687  31.743  35.185  0.00  0.00     0.013 A 
ENDBRANCH   5   8
ENDBRANCH   4   5
BRANCH   4  15
ATOM     15  C   UNL d   1     -47.691  29.963  36.237  0.00  0.00     0.092 C 
ATOM     16  C   UNL d   1     -47.449  29.464  36.849  0.00  0.00     0.021 C 
ENDBRANCH   4  15
ENDBRANCH   3   4
ENDBRANCH   1   3
BRANCH   1  17
ATOM     17  C   UNL d   1     -49.042  28.566  34.343  0.00  0.00     0.193 C 
BRANCH  17  18
ATOM     18  O   UNL d   1     -49.344  27.812  34.189  0.00  0.00    -0.206 OA
BRANCH  18  19
ATOM     19  N   UNL d   1     -49.861  27.693  33.560  0.00  0.00    -0.126 NA
BRANCH  19  20
ATOM     20  C   UNL d   1     -50.266  26.976  33.482  0.00  0.00     0.108 A 
ATOM     21  C   UNL d   1     -51.087  26.883  33.437  0.00  0.00     0.020 A 
ATOM     22  C   UNL d   1     -51.248  26.077  33.363  0.00  0.00     0.002 A 
ATOM     23  C   UNL d   1     -51.707  27.428  33.452  0.00  0.00     0.002 A 
ATOM     24  C   UNL d   1     -52.030  25.816  33.306  0.00  0.00     0.000 A 
ATOM     25  C   UNL d   1     -50.536  25.667  33.363  0.00  0.00     0.002 A 
ATOM     26  C   UNL d   1     -52.649  26.361  33.322  0.00  0.00     0.000 A 
ATOM     27  C   UNL d   1     -52.489  27.166  33.395  0.00  0.00     0.000 A 
ATOM     28  C   UNL d   1     -49.932  26.223  33.436  0.00  0.00     0.020 A 
ATOM     29  C   UNL d   1     -50.352  24.866  33.306  0.00  0.00     0.000 A 
ATOM     30  C   UNL d   1     -49.145  25.981  33.453  0.00  0.00     0.002 A 
ATOM     31  C   UNL d   1     -48.960  25.180  33.396  0.00  0.00     0.000 A 
ATOM     32  C   UNL d   1     -49.567  24.620  33.322  0.00  0.00     0.000 A 
ENDBRANCH  19  20
ENDBRANCH  18  19
ENDBRANCH  17  18
ENDBRANCH   1  17
TORSDOF 9
ENDMDL
MODEL 3
REMARK VINA RESULT:      63.7      1.483      6.359
REMARK  9 active torsions:
REMARK  status: ('A' for Active; 'I' for Inactive)
REMARK    1  A    between atoms: N_5  and  S_1 
REMARK    2  A    between atoms: C_8  and  S_1 
REMARK    3  A    between atoms: C_2  and  N_10 
REMARK    4  A    between atoms: C_9  and  N_5 
REMARK    5  A    between atoms: C_25  and  N_5 
REMARK    6  A    between atoms: C_13  and  C_9 
REMARK    7  A    between atoms: N_10  and  O_14 
REMARK    8  A    between atoms: C_17  and  C_13 
REMARK    9  A    between atoms: O_14  and  C_17 
ROOT
ATOM      1  C   UNL d   1     -49.663  28.146  33.857  0.00  0.00     0.240 C 
ATOM      2  O   UNL d   1     -48.937  27.801  33.650  0.00  0.00    -0.283 OA
ENDROOT
BRANCH   1   3
ATOM      3  C   UNL d   1     -49.958  27.370  33.822  0.00  0.00     0.136 C 
BRANCH   3   4
ATOM      4  N   UNL d   1     -50.746  27.249  33.600  0.00  0.00    -0.226 N 
BRANCH   4   5
ATOM      5  S   UNL d   1     -51.034  26.478  33.489  0.00  0.00     0.271 S 
ATOM      6  O   UNL d   1     -51.700  26.938  33.307  0.00  0.00    -0.200 OA
ATOM      7  O   UNL d   1     -50.508  25.857  33.624  0.00  0.00    -0.200 OA
BRANCH   5   8
ATOM      8  C   UNL d   1     -51.081  25.660  33.447  0.00  0.00     0.104 A 
ATOM      9  C   UNL d   1     -50.396  25.207  33.468  0.00  0.00     0.013 A 
ATOM     10  C   UNL d   1     -50.446  24.381  33.426  0.00  0.00     0.001 A 
ATOM     11  C   UNL d   1     -51.187  24.013  33.364  0.00  0.00     0.000 A 
ATOM     12  C   UNL d   1     -51.841  24.518  33.348  0.00  0.00     0.001 A 
ATOM     13  C   UNL d   1     -51.262  23.191  33.321  0.00  0.00     0.000 C 
ATOM     14  C   UNL d   1     -51.833  25.336  33.387  0.00  0.00     0.013 A 
ENDBRANCH   5   8
ENDBRANCH   4   5
BRANCH   4  15
ATOM     15  C   UNL d   1     -51.365  27.775  33.451  0.00  0.00     0.092 C 
ATOM     16  C   UNL d   1     -51.202  28.579  33.350  0.00  0.00     0.021 C 
ENDBRANCH   4  15
ENDBRANCH   3   4
ENDBRANCH   1   3
BRANCH   1  17
ATOM     17  C   UNL d   1     -49.723  28.958  33.976  0.00  0.00     0.193 C 
BRANCH  17  18
ATOM     18  O   UNL d   1     -49.055  29.387  34.207  0.00  0.00    -0.206 OA
BRANCH  18  19
ATOM     19  N   UNL d   1     -49.068  30.210  34.198  0.00  0.00    -0.126 NA
BRANCH  19  20
ATOM     20  C   UNL d   1     -48.439  30.640  34.520  0.00  0.00     0.108 A 
ATOM     21  C   UNL d   1     -48.212  31.406  34.303  0.00  0.00     0.020 A 
ATOM     22  C   UNL d   1     -47.561  31.619  34.763  0.00  0.00     0.002 A 
ATOM     23  C   UNL d   1     -48.514  31.937  33.747  0.00  0.00     0.002 A 
ATOM     24  C   UNL d   1     -47.212  32.361  34.668  0.00  0.00     0.000 A 
ATOM     25  C   UNL d   1     -47.379  30.993  35.265  0.00  0.00     0.002 A 
ATOM     26  C   UNL d   1     -47.514  32.890  34.112  0.00  0.00     0.000 A 
ATOM     27  C   UNL d   1     -48.165  32.679  33.651  0.00  0.00     0.000 A 
ATOM     28  C   UNL d   1     -47.922  30.391  35.113  0.00  0.00     0.020 A 
ATOM     29  C   UNL d   1     -46.798  30.886  35.838  0.00  0.00     0.000 A 
ATOM     30  C   UNL d   1     -47.885  29.683  35.532  0.00  0.00     0.002 A 
ATOM     31  C   UNL d   1     -47.303  29.575  36.105  0.00  0.00     0.000 A 
ATOM     32  C   UNL d   1     -46.757  30.180  36.259  0.00  0.00     0.000 A 
ENDBRANCH  19  20
ENDBRANCH  18  19
ENDBRANCH  17  18
ENDBRANCH   1  17
TORSDOF 9
ENDMDL
