MODEL 1
REMARK VINA RESULT:      -2.4      0.000      0.000
REMARK  5 active torsions:
REMARK  status: ('A' for Active; 'I' for Inactive)
REMARK    1  A    between atoms: N_3  and  C_1 
REMARK       I    between atoms: C_9  and  N_3 
REMARK       I    between atoms: N_5  and  C_8 
REMARK    2  A    between atoms: C_8  and  C_16 
REMARK    3  A    between atoms: C_17  and  C_9 
REMARK    4  A    between atoms: S_13  and  C_17 
REMARK    5  A    between atoms: C_16  and  S_13 
ROOT
ATOM      1  N   UNL d   1     -41.124-122.869 -52.994  0.00  0.00    -0.183 NA
ATOM      2  C   UNL d   1     -41.643-122.658 -52.382  0.00  0.00     0.287 C 
ATOM      3  O   UNL d   1     -42.332-122.230 -52.554  0.00  0.00    -0.265 OA
ENDROOT
BRANCH   2   4
ATOM      4  C   UNL d   1     -41.479-122.869 -51.606  0.00  0.00     0.098 C 
BRANCH   4   5
ATOM      5  S   UNL d   1     -41.983-122.632 -50.991  0.00  0.00    -0.076 SA
BRANCH   5   6
ATOM      6  C   UNL d   1     -42.002-123.060 -50.284  0.00  0.00     0.097 C 
BRANCH   6   7
ATOM      7  C   UNL d   1     -41.714-122.728 -49.588  0.00  0.00     0.271 C 
ATOM      8  N   UNL d   1     -42.009-122.975 -48.859  0.00  0.00    -0.272 N 
ATOM      9  C   UNL d   1     -41.720-122.642 -48.166  0.00  0.00     0.083 A 
ATOM     10  C   UNL d   1     -42.596-123.559 -48.824  0.00  0.00     0.083 A 
ATOM     11  C   UNL d   1     -42.017-122.892 -47.439  0.00  0.00     0.018 A 
ATOM     12  C   UNL d   1     -41.729-122.560 -46.743  0.00  0.00     0.002 C 
ATOM     13  C   UNL d   1     -42.604-123.475 -47.412  0.00  0.00     0.003 A 
ATOM     14  C   UNL d   1     -42.895-123.811 -48.110  0.00  0.00     0.019 A 
ATOM     15  O   UNL d   1     -41.132-122.150 -49.624  0.00  0.00    -0.266 OA
ENDBRANCH   6   7
ENDBRANCH   5   6
ENDBRANCH   4   5
ENDBRANCH   2   4
BRANCH   1  16
ATOM     16  C   UNL d   1     -41.470-122.564 -53.681  0.00  0.00     0.182 A 
ATOM     17  N   UNL d   1     -41.560-122.963 -54.401  0.00  0.00    -0.283 N 
ATOM     18  C   UNL d   1     -41.935-122.452 -54.936  0.00  0.00     0.072 A 
ATOM     19  C   UNL d   1     -41.319-123.730 -54.551  0.00  0.00     0.101 C 
ATOM     20  C   UNL d   1     -42.164-122.539 -55.719  0.00  0.00     0.017 A 
ATOM     21  C   UNL d   1     -42.076-121.736 -54.547  0.00  0.00     0.048 A 
ATOM     22  C   UNL d   1     -42.529-121.929 -56.115  0.00  0.00    -0.011 A 
ATOM     23  C   UNL d   1     -42.671-121.213 -55.726  0.00  0.00     0.027 A 
ATOM     24  C   UNL d   1     -42.448-121.108 -54.941  0.00  0.00    -0.004 A 
ATOM     25  S   UNL d   1     -41.790-121.803 -53.770  0.00  0.00    -0.048 SA
ENDBRANCH   1  16
TORSDOF 5
ENDMDL
