MODEL 1
REMARK VINA RESULT:      72.9      0.000      0.000
REMARK  5 active torsions:
REMARK  status: ('A' for Active; 'I' for Inactive)
REMARK    1  A    between atoms: C_4  and  S_1 
REMARK    2  A    between atoms: N_5  and  S_1 
REMARK    3  A    between atoms: C_2  and  C_9 
REMARK       I    between atoms: N_3  and  C_2 
REMARK    4  A    between atoms: C_8  and  N_3 
REMARK    5  A    between atoms: O_16  and  C_11 
ROOT
ATOM      1  C   UNL d   1     -55.619-101.965 -38.544  0.00  0.00     0.104 A 
ATOM      2  C   UNL d   1     -55.363-102.055 -40.199  0.00  0.00     0.058 A 
ATOM      3  C   UNL d   1     -54.933-101.728 -38.869  0.00  0.00     0.013 A 
ATOM      4  C   UNL d   1     -56.192-102.252 -39.039  0.00  0.00     0.013 A 
ATOM      5  C   UNL d   1     -56.097-102.309 -39.857  0.00  0.00     0.005 A 
ATOM      6  C   UNL d   1     -54.803-101.772 -39.687  0.00  0.00     0.005 A 
ENDROOT
BRANCH   2   7
ATOM      7  C   UNL d   1     -55.231-102.100 -41.037  0.00  0.00     0.279 C 
ATOM      8  N   UNL d   1     -55.224-101.468 -41.496  0.00  0.00    -0.206 NA
ATOM      9  O   UNL d   1     -55.104-102.879 -41.359  0.00  0.00    -0.265 OA
BRANCH   8  10
ATOM     10  C   UNL d   1     -55.093-101.541 -42.308  0.00  0.00     0.107 A 
ATOM     11  C   UNL d   1     -55.209-100.901 -42.787  0.00  0.00     0.112 A 
ATOM     12  C   UNL d   1     -55.078-100.975 -43.598  0.00  0.00     0.026 A 
ATOM     13  C   UNL d   1     -54.830-101.689 -43.930  0.00  0.00     0.002 A 
ATOM     14  C   UNL d   1     -54.713-102.345 -43.424  0.00  0.00     0.002 A 
ATOM     15  C   UNL d   1     -54.845-102.266 -42.614  0.00  0.00     0.021 A 
BRANCH  11  16
ATOM     16  O   UNL d   1     -55.434-100.264 -42.466  0.00  0.00    -0.327 OA
ATOM     17  C   UNL d   1     -54.888 -99.537 -42.815  0.00  0.00     0.181 C 
ENDBRANCH  11  16
ENDBRANCH   8  10
ENDBRANCH   2   7
BRANCH   1  18
ATOM     18  S   UNL d   1     -55.823-101.946 -37.679  0.00  0.00     0.271 S 
ATOM     19  O   UNL d   1     -56.640-102.118 -37.797  0.00  0.00    -0.200 OA
ATOM     20  O   UNL d   1     -55.042-101.781 -37.571  0.00  0.00    -0.200 OA
BRANCH  18  21
ATOM     21  N   UNL d   1     -55.956-101.912 -36.810  0.00  0.00    -0.226 N 
ATOM     22  C   UNL d   1     -55.816-101.212 -36.396  0.00  0.00     0.111 C 
ATOM     23  C   UNL d   1     -56.226-102.592 -36.405  0.00  0.00     0.111 C 
ENDBRANCH  18  21
ENDBRANCH   1  18
TORSDOF 5
ENDMDL
