MODEL 1
REMARK VINA RESULT:      41.7      0.000      0.000
REMARK  3 active torsions:
REMARK  status: ('A' for Active; 'I' for Inactive)
REMARK    1  A    between atoms: C_5  and  N_1 
REMARK    2  A    between atoms: C_13  and  C_3 
REMARK    3  A    between atoms: C_4  and  C_5 
ROOT
ATOM      1  N   UNL d   1      45.409 -14.038  44.731  0.00  0.00    -0.286 N 
ATOM      2  N   UNL d   1      46.575 -14.716  44.812  0.00  0.00    -0.224 NA
ATOM      3  C   UNL d   1      46.232 -13.954  44.756  0.00  0.00     0.191 A 
ATOM      4  C   UNL d   1      45.230 -14.852  44.772  0.00  0.00     0.083 A 
ATOM      5  C   UNL d   1      45.948 -15.266  44.821  0.00  0.00     0.099 A 
ATOM      6  C   UNL d   1      44.512 -15.276  44.770  0.00  0.00     0.019 A 
ATOM      7  C   UNL d   1      45.954 -16.098  44.869  0.00  0.00     0.021 A 
ATOM      8  C   UNL d   1      44.516 -16.100  44.818  0.00  0.00     0.002 A 
ATOM      9  C   UNL d   1      45.236 -16.510  44.867  0.00  0.00     0.002 A 
ENDROOT
BRANCH   1  10
ATOM     10  C   UNL d   1      44.996 -13.325  44.676  0.00  0.00     0.082 C 
BRANCH  10  11
ATOM     11  C   UNL d   1      44.719 -13.068  43.947  0.00  0.00     0.018 A 
ATOM     12  C   UNL d   1      45.240 -12.715  43.409  0.00  0.00     0.001 A 
ATOM     13  C   UNL d   1      44.964 -12.458  42.680  0.00  0.00     0.000 A 
ATOM     14  C   UNL d   1      46.032 -12.622  43.605  0.00  0.00     0.000 C 
ATOM     15  C   UNL d   1      45.484 -12.105  42.143  0.00  0.00     0.000 C 
ATOM     16  C   UNL d   1      44.171 -12.550  42.483  0.00  0.00     0.000 A 
ATOM     17  C   UNL d   1      43.653 -12.904  43.023  0.00  0.00     0.000 A 
ATOM     18  C   UNL d   1      43.930 -13.161  43.752  0.00  0.00     0.001 A 
ATOM     19  C   UNL d   1      42.857 -13.003  42.840  0.00  0.00     0.000 C 
ATOM     20  C   UNL d   1      43.421 -13.512  44.292  0.00  0.00     0.000 C 
ENDBRANCH  10  11
ENDBRANCH   1  10
BRANCH   3  21
ATOM     21  C   UNL d   1      46.646 -13.244  44.730  0.00  0.00     0.271 C 
ATOM     22  O   UNL d   1      46.281 -12.542  44.953  0.00  0.00    -0.280 OA
ENDBRANCH   3  21
TORSDOF 3
ENDMDL
MODEL 2
REMARK VINA RESULT:      42.1      6.134      7.416
REMARK  3 active torsions:
REMARK  status: ('A' for Active; 'I' for Inactive)
REMARK    1  A    between atoms: C_5  and  N_1 
REMARK    2  A    between atoms: C_13  and  C_3 
REMARK    3  A    between atoms: C_4  and  C_5 
ROOT
ATOM      1  N   UNL d   1      44.645 -14.434  37.844  0.00  0.00    -0.286 N 
ATOM      2  N   UNL d   1      45.277 -13.244  37.962  0.00  0.00    -0.224 NA
ATOM      3  C   UNL d   1      44.634 -13.706  38.236  0.00  0.00     0.191 A 
ATOM      4  C   UNL d   1      45.296 -14.435  37.321  0.00  0.00     0.083 A 
ATOM      5  C   UNL d   1      45.682 -13.704  37.395  0.00  0.00     0.099 A 
ATOM      6  C   UNL d   1      45.592 -15.001  36.785  0.00  0.00     0.019 A 
ATOM      7  C   UNL d   1      46.360 -13.534  36.941  0.00  0.00     0.021 A 
ATOM      8  C   UNL d   1      46.263 -14.836  36.334  0.00  0.00     0.002 A 
ATOM      9  C   UNL d   1      46.646 -14.104  36.411  0.00  0.00     0.002 A 
ENDROOT
BRANCH   1  10
ATOM     10  C   UNL d   1      44.037 -14.947  38.061  0.00  0.00     0.082 C 
BRANCH  10  11
ATOM     11  C   UNL d   1      43.631 -15.368  37.486  0.00  0.00     0.018 A 
ATOM     12  C   UNL d   1      42.909 -15.082  37.198  0.00  0.00     0.001 A 
ATOM     13  C   UNL d   1      42.501 -15.502  36.622  0.00  0.00     0.000 A 
ATOM     14  C   UNL d   1      42.602 -14.378  37.489  0.00  0.00     0.000 C 
ATOM     15  C   UNL d   1      41.781 -15.217  36.336  0.00  0.00     0.000 C 
ATOM     16  C   UNL d   1      42.809 -16.207  36.331  0.00  0.00     0.000 A 
ATOM     17  C   UNL d   1      43.531 -16.491  36.620  0.00  0.00     0.000 A 
ATOM     18  C   UNL d   1      43.937 -16.069  37.196  0.00  0.00     0.001 A 
ATOM     19  C   UNL d   1      43.851 -17.193  36.338  0.00  0.00     0.000 C 
ATOM     20  C   UNL d   1      44.654 -16.346  37.487  0.00  0.00     0.000 C 
ENDBRANCH  10  11
ENDBRANCH   1  10
BRANCH   3  21
ATOM     21  C   UNL d   1      44.084 -13.470  38.801  0.00  0.00     0.271 C 
ATOM     22  O   UNL d   1      44.127 -12.720  39.135  0.00  0.00    -0.280 OA
ENDBRANCH   3  21
TORSDOF 3
ENDMDL
MODEL 3
REMARK VINA RESULT:      42.1      3.837      5.586
REMARK  3 active torsions:
REMARK  status: ('A' for Active; 'I' for Inactive)
REMARK    1  A    between atoms: C_5  and  N_1 
REMARK    2  A    between atoms: C_13  and  C_3 
REMARK    3  A    between atoms: C_4  and  C_5 
ROOT
ATOM      1  N   UNL d   1      46.212 -18.670  43.655  0.00  0.00    -0.286 N 
ATOM      2  N   UNL d   1      45.862 -18.542  44.954  0.00  0.00    -0.224 NA
ATOM      3  C   UNL d   1      46.060 -19.089  44.352  0.00  0.00     0.191 A 
ATOM      4  C   UNL d   1      46.110 -17.858  43.814  0.00  0.00     0.083 A 
ATOM      5  C   UNL d   1      45.895 -17.781  44.613  0.00  0.00     0.099 A 
ATOM      6  C   UNL d   1      46.183 -17.173  43.343  0.00  0.00     0.019 A 
ATOM      7  C   UNL d   1      45.752 -17.030  44.943  0.00  0.00     0.021 A 
ATOM      8  C   UNL d   1      46.042 -16.428  43.668  0.00  0.00     0.002 A 
ATOM      9  C   UNL d   1      45.827 -16.356  44.467  0.00  0.00     0.002 A 
ENDROOT
BRANCH   1  10
ATOM     10  C   UNL d   1      46.416 -19.144  43.011  0.00  0.00     0.082 C 
BRANCH  10  11
ATOM     11  C   UNL d   1      45.921 -19.182  42.357  0.00  0.00     0.018 A 
ATOM     12  C   UNL d   1      46.036 -18.663  41.722  0.00  0.00     0.001 A 
ATOM     13  C   UNL d   1      45.542 -18.699  41.068  0.00  0.00     0.000 A 
ATOM     14  C   UNL d   1      46.645 -18.111  41.749  0.00  0.00     0.000 C 
ATOM     15  C   UNL d   1      45.657 -18.181  40.435  0.00  0.00     0.000 C 
ATOM     16  C   UNL d   1      44.933 -19.251  41.041  0.00  0.00     0.000 A 
ATOM     17  C   UNL d   1      44.820 -19.769  41.677  0.00  0.00     0.000 A 
ATOM     18  C   UNL d   1      45.316 -19.731  42.332  0.00  0.00     0.001 A 
ATOM     19  C   UNL d   1      44.216 -20.325  41.665  0.00  0.00     0.000 C 
ATOM     20  C   UNL d   1      45.209 -20.242  42.965  0.00  0.00     0.000 C 
ENDBRANCH  10  11
ENDBRANCH   1  10
BRANCH   3  21
ATOM     21  C   UNL d   1      46.097 -19.906  44.443  0.00  0.00     0.271 C 
ATOM     22  O   UNL d   1      46.646 -20.243  44.954  0.00  0.00    -0.280 OA
ENDBRANCH   3  21
TORSDOF 3
ENDMDL
