MODEL 1
REMARK VINA RESULT:      -2.1      0.000      0.000
REMARK  5 active torsions:
REMARK  status: ('A' for Active; 'I' for Inactive)
REMARK    1  A    between atoms: N_5  and  S_1 
REMARK    2  A    between atoms: C_10  and  S_1 
REMARK    3  A    between atoms: C_2  and  N_6 
REMARK    4  A    between atoms: C_20  and  N_5 
REMARK    5  A    between atoms: C_7  and  C_14 
REMARK       I    between atoms: N_8  and  C_7 
ROOT
ATOM      1  C   UNL d   1      31.985  17.639 -23.948  0.00  0.00     0.104 A 
ATOM      2  C   UNL d   1      32.613  19.144 -24.007  0.00  0.00     0.057 A 
ATOM      3  C   UNL d   1      32.742  17.788 -24.264  0.00  0.00     0.013 A 
ATOM      4  C   UNL d   1      31.548  18.258 -23.662  0.00  0.00     0.013 A 
ATOM      5  C   UNL d   1      33.042  18.549 -24.287  0.00  0.00     0.005 A 
ATOM      6  C   UNL d   1      31.855  19.015 -23.688  0.00  0.00     0.005 A 
ENDROOT
BRANCH   2   7
ATOM      7  C   UNL d   1      32.926  19.906 -24.035  0.00  0.00     0.265 C 
ATOM      8  N   UNL d   1      32.927  20.386 -23.362  0.00  0.00    -0.269 N 
ATOM      9  C   UNL d   1      33.238  21.176 -23.340  0.00  0.00     0.102 A 
ATOM     10  C   UNL d   1      32.614  20.103 -22.661  0.00  0.00     0.102 A 
ATOM     11  C   UNL d   1      33.240  21.644 -22.691  0.00  0.00     0.101 A 
ATOM     12  N   UNL d   1      32.920  21.338 -21.996  0.00  0.00    -0.281 N 
ATOM     13  C   UNL d   1      32.612  20.606 -21.945  0.00  0.00     0.101 A 
ATOM     14  O   UNL d   1      33.241  20.182 -24.753  0.00  0.00    -0.267 OA
BRANCH  12  15
ATOM     15  C   UNL d   1      32.911  21.792 -21.324  0.00  0.00     0.179 A 
ATOM     16  N   UNL d   1      32.682  22.610 -21.258  0.00  0.00    -0.222 NA
ATOM     17  C   UNL d   1      32.777  22.791 -20.458  0.00  0.00     0.089 A 
ATOM     18  C   UNL d   1      32.652  23.483 -20.032  0.00  0.00     0.020 A 
ATOM     19  C   UNL d   1      33.046  22.106 -20.096  0.00  0.00     0.050 A 
ATOM     20  C   UNL d   1      32.797  23.521 -19.189  0.00  0.00     0.002 A 
ATOM     21  C   UNL d   1      33.074  22.805 -18.829  0.00  0.00     0.001 A 
ATOM     22  C   UNL d   1      33.198  22.106 -19.271  0.00  0.00     0.008 A 
ATOM     23  S   UNL d   1      33.119  21.508 -20.651  0.00  0.00    -0.048 SA
ENDBRANCH  12  15
ENDBRANCH   2   7
BRANCH   1  24
ATOM     24  S   UNL d   1      31.698  16.859 -23.935  0.00  0.00     0.271 S 
ATOM     25  O   UNL d   1      31.767  16.859 -23.098  0.00  0.00    -0.200 OA
ATOM     26  O   UNL d   1      31.627  16.852 -24.768  0.00  0.00    -0.200 OA
BRANCH  24  27
ATOM     27  N   UNL d   1      31.414  16.080 -23.903  0.00  0.00    -0.229 N 
ATOM     28  C   UNL d   1      31.936  15.453 -23.725  0.00  0.00     0.111 C 
BRANCH  27  29
ATOM     29  C   UNL d   1      30.618  15.927 -24.048  0.00  0.00     0.075 A 
ATOM     30  C   UNL d   1      30.353  15.797 -24.820  0.00  0.00     0.018 A 
ATOM     31  C   UNL d   1      29.558  15.643 -24.965  0.00  0.00     0.002 A 
ATOM     32  C   UNL d   1      29.013  15.617 -24.340  0.00  0.00     0.000 A 
ATOM     33  C   UNL d   1      29.290  15.749 -23.568  0.00  0.00     0.002 A 
ATOM     34  C   UNL d   1      30.086  15.902 -23.423  0.00  0.00     0.018 A 
ENDBRANCH  27  29
ENDBRANCH  24  27
ENDBRANCH   1  24
TORSDOF 5
ENDMDL
MODEL 2
REMARK VINA RESULT:       0.0      1.369      2.137
REMARK  5 active torsions:
REMARK  status: ('A' for Active; 'I' for Inactive)
REMARK    1  A    between atoms: N_5  and  S_1 
REMARK    2  A    between atoms: C_10  and  S_1 
REMARK    3  A    between atoms: C_2  and  N_6 
REMARK    4  A    between atoms: C_20  and  N_5 
REMARK    5  A    between atoms: C_7  and  C_14 
REMARK       I    between atoms: N_8  and  C_7 
ROOT
ATOM      1  C   UNL d   1      30.410  16.679 -24.038  0.00  0.00     0.104 A 
ATOM      2  C   UNL d   1      31.817  17.422 -23.679  0.00  0.00     0.057 A 
ATOM      3  C   UNL d   1      30.939  16.369 -23.473  0.00  0.00     0.013 A 
ATOM      4  C   UNL d   1      30.599  17.368 -24.420  0.00  0.00     0.013 A 
ATOM      5  C   UNL d   1      31.641  16.754 -23.304  0.00  0.00     0.005 A 
ATOM      6  C   UNL d   1      31.302  17.746 -24.246  0.00  0.00     0.005 A 
ENDROOT
BRANCH   2   7
ATOM      7  C   UNL d   1      32.528  17.800 -23.500  0.00  0.00     0.265 C 
ATOM      8  N   UNL d   1      32.530  18.525 -23.102  0.00  0.00    -0.269 N 
ATOM      9  C   UNL d   1      33.234  18.954 -22.896  0.00  0.00     0.102 A 
ATOM     10  C   UNL d   1      31.822  18.871 -22.883  0.00  0.00     0.102 A 
ATOM     11  C   UNL d   1      33.241  19.656 -22.511  0.00  0.00     0.101 A 
ATOM     12  N   UNL d   1      32.516  19.984 -22.300  0.00  0.00    -0.281 N 
ATOM     13  C   UNL d   1      31.817  19.637 -22.461  0.00  0.00     0.101 A 
ATOM     14  O   UNL d   1      33.241  17.440 -23.728  0.00  0.00    -0.267 OA
BRANCH  12  15
ATOM     15  C   UNL d   1      32.495  20.695 -21.909  0.00  0.00     0.179 A 
ATOM     16  N   UNL d   1      32.212  20.840 -21.119  0.00  0.00    -0.222 NA
ATOM     17  C   UNL d   1      32.318  21.650 -21.003  0.00  0.00     0.089 A 
ATOM     18  C   UNL d   1      32.157  22.140 -20.362  0.00  0.00     0.020 A 
ATOM     19  C   UNL d   1      32.645  21.943 -21.696  0.00  0.00     0.050 A 
ATOM     20  C   UNL d   1      32.325  22.979 -20.387  0.00  0.00     0.002 A 
ATOM     21  C   UNL d   1      32.662  23.266 -21.110  0.00  0.00     0.001 A 
ATOM     22  C   UNL d   1      32.822  22.760 -21.757  0.00  0.00     0.008 A 
ATOM     23  S   UNL d   1      32.743  21.334 -22.236  0.00  0.00    -0.048 SA
ENDBRANCH  12  15
ENDBRANCH   2   7
BRANCH   1  24
ATOM     24  S   UNL d   1      29.702  16.272 -24.194  0.00  0.00     0.271 S 
ATOM     25  O   UNL d   1      30.122  15.546 -24.149  0.00  0.00    -0.200 OA
ATOM     26  O   UNL d   1      29.278  16.991 -24.241  0.00  0.00    -0.200 OA
BRANCH  24  27
ATOM     27  N   UNL d   1      29.005  15.850 -24.349  0.00  0.00    -0.229 N 
ATOM     28  C   UNL d   1      28.907  15.462 -25.082  0.00  0.00     0.111 C 
BRANCH  27  29
ATOM     29  C   UNL d   1      28.411  15.814 -23.780  0.00  0.00     0.075 A 
ATOM     30  C   UNL d   1      28.567  15.489 -23.036  0.00  0.00     0.018 A 
ATOM     31  C   UNL d   1      27.974  15.453 -22.467  0.00  0.00     0.002 A 
ATOM     32  C   UNL d   1      27.213  15.741 -22.632  0.00  0.00     0.000 A 
ATOM     33  C   UNL d   1      27.068  16.065 -23.383  0.00  0.00     0.002 A 
ATOM     34  C   UNL d   1      27.662  16.101 -23.952  0.00  0.00     0.018 A 
ENDBRANCH  27  29
ENDBRANCH  24  27
ENDBRANCH   1  24
TORSDOF 5
ENDMDL
