MODEL 1
REMARK VINA RESULT:      -4.2      0.000      0.000
REMARK  4 active torsions:
REMARK  status: ('A' for Active; 'I' for Inactive)
REMARK    1  A    between atoms: C_2  and  S_1 
REMARK    2  A    between atoms: N_5  and  S_1 
REMARK    3  A    between atoms: C_12  and  N_5 
REMARK    4  A    between atoms: C_13  and  C_12 
ROOT
ATOM      1  S   UNL d   1      56.820  -0.515  32.214  0.00  0.00     0.285 S 
ATOM      2  O   UNL d   1      56.998  -1.199  32.640  0.00  0.00    -0.198 OA
ATOM      3  O   UNL d   1      56.641   0.169  31.789  0.00  0.00    -0.198 OA
ENDROOT
BRANCH   1   4
ATOM      4  C   UNL d   1      56.403  -0.220  32.863  0.00  0.00     0.105 A 
ATOM      5  C   UNL d   1      55.664  -0.514  33.056  0.00  0.00     0.012 A 
ATOM      6  C   UNL d   1      55.248  -0.220  33.703  0.00  0.00     0.001 A 
ATOM      7  C   UNL d   1      55.336  -1.118  32.585  0.00  0.00     0.001 C 
ATOM      8  C   UNL d   1      55.567   0.372  34.165  0.00  0.00     0.000 A 
ATOM      9  C   UNL d   1      56.311   0.675  33.980  0.00  0.00     0.001 A 
ATOM     10  C   UNL d   1      55.151   0.666  34.813  0.00  0.00     0.000 C 
ATOM     11  C   UNL d   1      56.727   0.381  33.332  0.00  0.00     0.012 A 
ATOM     12  C   UNL d   1      57.476   0.682  33.141  0.00  0.00     0.001 C 
ENDBRANCH   1   4
BRANCH   1  13
ATOM     13  N   UNL d   1      57.232  -0.807  31.571  0.00  0.00    -0.157 NA
BRANCH  13  14
ATOM     14  C   UNL d   1      57.390  -0.328  30.931  0.00  0.00     0.112 C 
BRANCH  14  15
ATOM     15  C   UNL d   1      57.910  -0.578  30.352  0.00  0.00     0.023 A 
ATOM     16  C   UNL d   1      57.983  -1.375  30.170  0.00  0.00     0.022 A 
ATOM     17  C   UNL d   1      58.506  -1.629  29.588  0.00  0.00     0.099 A 
ATOM     18  N   UNL d   1      58.962  -1.075  29.182  0.00  0.00    -0.242 NA
ATOM     19  C   UNL d   1      58.901  -0.275  29.352  0.00  0.00     0.099 A 
ATOM     20  C   UNL d   1      58.371  -0.019  29.942  0.00  0.00     0.022 A 
ENDBRANCH  14  15
ENDBRANCH  13  14
ENDBRANCH   1  13
TORSDOF 4
ENDMDL
