MODEL 1
REMARK VINA RESULT:      -1.4      0.000      0.000
REMARK  11 active torsions:
REMARK  status: ('A' for Active; 'I' for Inactive)
REMARK    1  A    between atoms: N_2  and  S_1 
REMARK    2  A    between atoms: C_4  and  S_1 
REMARK    3  A    between atoms: C_22  and  N_2 
REMARK    4  A    between atoms: C_3  and  C_8 
REMARK       I    between atoms: N_16  and  C_3 
REMARK    5  A    between atoms: O_28  and  C_7 
REMARK    6  A    between atoms: C_9  and  C_10 
REMARK    7  A    between atoms: O_29  and  C_11 
REMARK    8  A    between atoms: C_30  and  N_16 
REMARK    9  A    between atoms: C_24  and  C_22 
REMARK   10  A    between atoms: C_23  and  C_34 
REMARK   11  A    between atoms: C_34  and  C_30 
ROOT
ATOM      1  C   UNL d   1      32.040  18.132 -24.020  0.00  0.00     0.058 A 
ATOM      2  C   UNL d   1      32.484  18.006 -23.344  0.00  0.00     0.005 A 
ATOM      3  C   UNL d   1      31.996  18.902 -24.338  0.00  0.00     0.005 A 
ATOM      4  C   UNL d   1      32.839  19.392 -23.292  0.00  0.00     0.020 A 
ATOM      5  C   UNL d   1      32.885  18.630 -22.976  0.00  0.00     0.002 A 
ATOM      6  C   UNL d   1      32.397  19.526 -23.970  0.00  0.00     0.002 A 
ENDROOT
BRANCH   1   7
ATOM      7  C   UNL d   1      31.642  17.516 -24.386  0.00  0.00     0.279 C 
ATOM      8  O   UNL d   1      31.228  17.657 -25.091  0.00  0.00    -0.265 OA
ATOM      9  N   UNL d   1      31.653  16.763 -24.058  0.00  0.00    -0.206 NA
BRANCH   9  10
ATOM     10  C   UNL d   1      31.250  16.147 -24.431  0.00  0.00     0.102 C 
BRANCH  10  11
ATOM     11  C   UNL d   1      30.987  15.515 -23.985  0.00  0.00     0.021 C 
BRANCH  11  12
ATOM     12  C   UNL d   1      30.220  15.507 -23.714  0.00  0.00     0.004 A 
ATOM     13  C   UNL d   1      29.586  15.484 -24.240  0.00  0.00     0.026 A 
ATOM     14  C   UNL d   1      28.820  15.476 -23.959  0.00  0.00     0.116 A 
ATOM     15  C   UNL d   1      28.678  15.491 -23.138  0.00  0.00     0.116 A 
ATOM     16  C   UNL d   1      29.301  15.513 -22.616  0.00  0.00     0.026 A 
ATOM     17  C   UNL d   1      30.077  15.521 -22.901  0.00  0.00     0.002 A 
BRANCH  14  18
ATOM     18  O   UNL d   1      28.187  15.453 -24.490  0.00  0.00    -0.326 OA
ATOM     19  C   UNL d   1      27.971  16.048 -25.092  0.00  0.00     0.181 C 
ENDBRANCH  14  18
BRANCH  15  20
ATOM     20  O   UNL d   1      27.922  15.483 -22.842  0.00  0.00    -0.326 OA
ATOM     21  C   UNL d   1      27.656  16.095 -22.381  0.00  0.00     0.181 C 
ENDBRANCH  15  20
ENDBRANCH  11  12
ENDBRANCH  10  11
ENDBRANCH   9  10
ENDBRANCH   1   7
BRANCH   4  22
ATOM     22  C   UNL d   1      33.241  20.016 -22.924  0.00  0.00     0.112 C 
BRANCH  22  23
ATOM     23  N   UNL d   1      32.922  20.771 -22.927  0.00  0.00    -0.157 NA
BRANCH  23  24
ATOM     24  S   UNL d   1      32.904  21.230 -22.239  0.00  0.00     0.285 S 
ATOM     25  O   UNL d   1      32.752  21.900 -22.685  0.00  0.00    -0.198 OA
ATOM     26  O   UNL d   1      33.057  20.548 -21.795  0.00  0.00    -0.198 OA
BRANCH  24  27
ATOM     27  C   UNL d   1      32.888  21.672 -21.549  0.00  0.00     0.105 A 
ATOM     28  C   UNL d   1      33.229  22.423 -21.547  0.00  0.00     0.013 A 
ATOM     29  C   UNL d   1      33.217  22.879 -20.849  0.00  0.00    -0.004 A 
ATOM     30  C   UNL d   1      32.861  22.572 -20.165  0.00  0.00    -0.023 A 
ATOM     31  C   UNL d   1      32.523  21.823 -20.174  0.00  0.00    -0.004 A 
ATOM     32  C   UNL d   1      32.538  21.374 -20.870  0.00  0.00     0.013 A 
BRANCH  30  33
ATOM     33  C   UNL d   1      32.848  23.022 -19.473  0.00  0.00     0.019 C 
ATOM     34  C   UNL d   1      32.491  23.642 -19.883  0.00  0.00     0.004 C 
ATOM     35  C   UNL d   1      33.205  22.399 -19.071  0.00  0.00     0.004 C 
ATOM     36  C   UNL d   1      32.835  23.472 -18.785  0.00  0.00     0.004 C 
ENDBRANCH  30  33
ENDBRANCH  24  27
ENDBRANCH  23  24
ENDBRANCH  22  23
ENDBRANCH   4  22
TORSDOF 11
ENDMDL
MODEL 2
REMARK VINA RESULT:       0.5      1.844      7.423
REMARK  11 active torsions:
REMARK  status: ('A' for Active; 'I' for Inactive)
REMARK    1  A    between atoms: N_2  and  S_1 
REMARK    2  A    between atoms: C_4  and  S_1 
REMARK    3  A    between atoms: C_22  and  N_2 
REMARK    4  A    between atoms: C_3  and  C_8 
REMARK       I    between atoms: N_16  and  C_3 
REMARK    5  A    between atoms: O_28  and  C_7 
REMARK    6  A    between atoms: C_9  and  C_10 
REMARK    7  A    between atoms: O_29  and  C_11 
REMARK    8  A    between atoms: C_30  and  N_16 
REMARK    9  A    between atoms: C_24  and  C_22 
REMARK   10  A    between atoms: C_23  and  C_34 
REMARK   11  A    between atoms: C_34  and  C_30 
ROOT
ATOM      1  C   UNL d   1      32.614  20.759 -21.971  0.00  0.00     0.058 A 
ATOM      2  C   UNL d   1      32.076  20.501 -22.531  0.00  0.00     0.005 A 
ATOM      3  C   UNL d   1      33.204  20.234 -21.704  0.00  0.00     0.005 A 
ATOM      4  C   UNL d   1      32.697  19.212 -22.566  0.00  0.00     0.020 A 
ATOM      5  C   UNL d   1      32.112  19.731 -22.832  0.00  0.00     0.002 A 
ATOM      6  C   UNL d   1      33.240  19.464 -22.005  0.00  0.00     0.002 A 
ENDROOT
BRANCH   1   7
ATOM      7  C   UNL d   1      32.581  21.521 -21.671  0.00  0.00     0.279 C 
ATOM      8  O   UNL d   1      32.443  22.159 -22.183  0.00  0.00    -0.265 OA
ATOM      9  N   UNL d   1      32.684  21.655 -20.867  0.00  0.00    -0.206 NA
BRANCH   9  10
ATOM     10  C   UNL d   1      32.649  22.424 -20.570  0.00  0.00     0.102 C 
BRANCH  10  11
ATOM     11  C   UNL d   1      33.173  22.649 -19.984  0.00  0.00     0.021 C 
BRANCH  11  12
ATOM     12  C   UNL d   1      32.887  22.898 -19.265  0.00  0.00     0.004 A 
ATOM     13  C   UNL d   1      33.208  22.614 -18.561  0.00  0.00     0.026 A 
ATOM     14  C   UNL d   1      32.914  22.869 -17.844  0.00  0.00     0.116 A 
ATOM     15  C   UNL d   1      32.288  23.418 -17.822  0.00  0.00     0.116 A 
ATOM     16  C   UNL d   1      31.969  23.701 -18.514  0.00  0.00     0.026 A 
ATOM     17  C   UNL d   1      32.266  23.442 -19.241  0.00  0.00     0.002 A 
BRANCH  14  18
ATOM     18  O   UNL d   1      33.239  22.581 -17.140  0.00  0.00    -0.326 OA
ATOM     19  C   UNL d   1      33.240  21.758 -16.848  0.00  0.00     0.181 C 
ENDBRANCH  14  18
BRANCH  15  20
ATOM     20  O   UNL d   1      31.985  23.683 -17.117  0.00  0.00    -0.326 OA
ATOM     21  C   UNL d   1      31.217  23.519 -16.914  0.00  0.00     0.181 C 
ENDBRANCH  15  20
ENDBRANCH  11  12
ENDBRANCH  10  11
ENDBRANCH   9  10
ENDBRANCH   1   7
BRANCH   4  22
ATOM     22  C   UNL d   1      32.733  18.442 -22.867  0.00  0.00     0.112 C 
BRANCH  22  23
ATOM     23  N   UNL d   1      32.453  18.278 -23.620  0.00  0.00    -0.157 NA
BRANCH  23  24
ATOM     24  S   UNL d   1      31.759  17.843 -23.733  0.00  0.00     0.285 S 
ATOM     25  O   UNL d   1      32.007  17.296 -23.175  0.00  0.00    -0.198 OA
ATOM     26  O   UNL d   1      31.515  18.399 -24.296  0.00  0.00    -0.198 OA
BRANCH  24  27
ATOM     27  C   UNL d   1      31.066  17.421 -23.855  0.00  0.00     0.105 A 
ATOM     28  C   UNL d   1      30.937  16.730 -23.424  0.00  0.00     0.013 A 
ATOM     29  C   UNL d   1      30.236  16.296 -23.542  0.00  0.00    -0.004 A 
ATOM     30  C   UNL d   1      29.676  16.564 -24.093  0.00  0.00    -0.023 A 
ATOM     31  C   UNL d   1      29.811  17.253 -24.519  0.00  0.00    -0.004 A 
ATOM     32  C   UNL d   1      30.509  17.681 -24.398  0.00  0.00     0.013 A 
BRANCH  30  33
ATOM     33  C   UNL d   1      28.980  16.135 -24.211  0.00  0.00     0.019 C 
ATOM     34  C   UNL d   1      29.245  15.911 -24.959  0.00  0.00     0.004 C 
ATOM     35  C   UNL d   1      28.723  16.363 -23.464  0.00  0.00     0.004 C 
ATOM     36  C   UNL d   1      28.288  15.707 -24.331  0.00  0.00     0.004 C 
ENDBRANCH  30  33
ENDBRANCH  24  27
ENDBRANCH  23  24
ENDBRANCH  22  23
ENDBRANCH   4  22
TORSDOF 11
ENDMDL
