MODEL 1
REMARK VINA RESULT:     123.9      0.000      0.000
REMARK  4 active torsions:
REMARK  status: ('A' for Active; 'I' for Inactive)
REMARK    1  A    between atoms: C_4  and  N_1 
REMARK    2  A    between atoms: C_8  and  C_2 
REMARK    3  A    between atoms: C_13  and  C_6 
REMARK    4  A    between atoms: C_7  and  C_8 
ROOT
ATOM      1  N   UNL d   1      61.395  47.671  50.016  0.00  0.00    -0.255 N 
ATOM      2  C   UNL d   1      60.668  48.630  50.587  0.00  0.00     0.101 A 
ATOM      3  C   UNL d   1      61.445  48.350  49.536  0.00  0.00     0.305 A 
ATOM      4  C   UNL d   1      60.993  48.947  49.891  0.00  0.00     0.256 A 
ATOM      5  C   UNL d   1      60.917  47.855  50.656  0.00  0.00     0.075 A 
ATOM      6  O   UNL d   1      61.869  48.418  48.831  0.00  0.00    -0.263 OA
ATOM      7  O   UNL d   1      60.892  49.706  49.598  0.00  0.00    -0.281 OA
ENDROOT
BRANCH   2   8
ATOM      8  C   UNL d   1      60.179  49.044  51.109  0.00  0.00     0.223 C 
ATOM      9  O   UNL d   1      60.486  49.321  51.823  0.00  0.00    -0.284 OA
BRANCH   8  10
ATOM     10  C   UNL d   1      59.395  49.184  50.928  0.00  0.00     0.139 A 
ATOM     11  O   UNL d   1      58.763  49.169  51.459  0.00  0.00    -0.304 OA
ATOM     12  C   UNL d   1      58.072  49.340  51.041  0.00  0.00     0.100 A 
ATOM     13  C   UNL d   1      57.288  49.402  51.272  0.00  0.00     0.025 A 
ATOM     14  C   UNL d   1      58.280  49.461  50.251  0.00  0.00     0.025 A 
ATOM     15  C   UNL d   1      56.712  49.582  50.728  0.00  0.00     0.002 A 
ATOM     16  C   UNL d   1      56.913  49.704  49.936  0.00  0.00     0.000 A 
ATOM     17  C   UNL d   1      57.700  49.643  49.698  0.00  0.00     0.002 A 
ATOM     18  C   UNL d   1      59.094  49.364  50.182  0.00  0.00     0.030 A 
ENDBRANCH   8  10
ENDBRANCH   2   8
BRANCH   5  19
ATOM     19  C   UNL d   1      60.716  47.341  51.276  0.00  0.00     0.017 A 
ATOM     20  C   UNL d   1      60.216  46.715  51.135  0.00  0.00     0.013 A 
ATOM     21  C   UNL d   1      60.012  46.199  51.751  0.00  0.00     0.058 A 
ATOM     22 CL   UNL d   1      59.504  45.563  51.611  0.00  0.00    -0.082 Cl
ATOM     23  C   UNL d   1      60.319  46.324  52.506  0.00  0.00     0.011 A 
ATOM     24  C   UNL d   1      60.827  46.960  52.647  0.00  0.00     0.001 A 
ATOM     25  C   UNL d   1      61.022  47.467  52.025  0.00  0.00     0.002 A 
ENDBRANCH   5  19
BRANCH   1  26
ATOM     26  C   UNL d   1      61.762  46.955  49.866  0.00  0.00     0.179 A 
ATOM     27  N   UNL d   1      62.469  46.695  50.210  0.00  0.00    -0.108 NA
ATOM     28  O   UNL d   1      62.639  45.951  49.907  0.00  0.00    -0.210 OA
ATOM     29  C   UNL d   1      62.037  45.749  49.374  0.00  0.00     0.128 A 
ATOM     30  C   UNL d   1      61.497  46.372  49.352  0.00  0.00     0.067 A 
ATOM     31  C   UNL d   1      61.987  45.047  48.942  0.00  0.00     0.029 C 
ENDBRANCH   1  26
TORSDOF 4
ENDMDL
MODEL 2
REMARK VINA RESULT:     125.6      1.484      2.332
REMARK  4 active torsions:
REMARK  status: ('A' for Active; 'I' for Inactive)
REMARK    1  A    between atoms: C_4  and  N_1 
REMARK    2  A    between atoms: C_8  and  C_2 
REMARK    3  A    between atoms: C_13  and  C_6 
REMARK    4  A    between atoms: C_7  and  C_8 
ROOT
ATOM      1  N   UNL d   1      60.274  47.088  50.921  0.00  0.00    -0.255 N 
ATOM      2  C   UNL d   1      59.336  48.004  51.158  0.00  0.00     0.101 A 
ATOM      3  C   UNL d   1      59.574  46.689  51.134  0.00  0.00     0.305 A 
ATOM      4  C   UNL d   1      58.990  47.259  51.281  0.00  0.00     0.256 A 
ATOM      5  C   UNL d   1      60.115  47.893  50.939  0.00  0.00     0.075 A 
ATOM      6  O   UNL d   1      59.477  45.872  51.188  0.00  0.00    -0.263 OA
ATOM      7  O   UNL d   1      58.218  47.101  51.507  0.00  0.00    -0.281 OA
ENDROOT
BRANCH   2   8
ATOM      8  C   UNL d   1      58.942  48.726  51.247  0.00  0.00     0.223 C 
ATOM      9  O   UNL d   1      59.184  49.253  51.834  0.00  0.00    -0.284 OA
BRANCH   8  10
ATOM     10  C   UNL d   1      58.317  48.925  50.761  0.00  0.00     0.139 A 
ATOM     11  O   UNL d   1      58.295  48.848  49.939  0.00  0.00    -0.304 OA
ATOM     12  C   UNL d   1      57.560  49.115  49.675  0.00  0.00     0.100 A 
ATOM     13  C   UNL d   1      57.228  49.170  48.928  0.00  0.00     0.025 A 
ATOM     14  C   UNL d   1      57.128  49.356  50.337  0.00  0.00     0.025 A 
ATOM     15  C   UNL d   1      56.475  49.461  48.833  0.00  0.00     0.002 A 
ATOM     16  C   UNL d   1      56.038  49.704  49.490  0.00  0.00     0.000 A 
ATOM     17  C   UNL d   1      56.367  49.650  50.244  0.00  0.00     0.002 A 
ATOM     18  C   UNL d   1      57.595  49.239  51.004  0.00  0.00     0.030 A 
ENDBRANCH   8  10
ENDBRANCH   2   8
BRANCH   5  19
ATOM     19  C   UNL d   1      60.655  48.498  50.765  0.00  0.00     0.017 A 
ATOM     20  C   UNL d   1      60.898  48.613  49.998  0.00  0.00     0.013 A 
ATOM     21  C   UNL d   1      61.437  49.217  49.819  0.00  0.00     0.058 A 
ATOM     22 CL   UNL d   1      61.686  49.337  49.040  0.00  0.00    -0.082 Cl
ATOM     23  C   UNL d   1      61.725  49.699  50.423  0.00  0.00     0.011 A 
ATOM     24  C   UNL d   1      61.477  49.580  51.201  0.00  0.00     0.001 A 
ATOM     25  C   UNL d   1      60.939  48.975  51.367  0.00  0.00     0.002 A 
ENDBRANCH   5  19
BRANCH   1  26
ATOM     26  C   UNL d   1      60.984  46.731  50.729  0.00  0.00     0.179 A 
ATOM     27  N   UNL d   1      61.571  46.506  51.271  0.00  0.00    -0.108 NA
ATOM     28  O   UNL d   1      62.189  46.170  50.848  0.00  0.00    -0.210 OA
ATOM     29  C   UNL d   1      61.987  46.187  50.044  0.00  0.00     0.128 A 
ATOM     30  C   UNL d   1      61.242  46.535  49.975  0.00  0.00     0.067 A 
ATOM     31  C   UNL d   1      62.451  45.906  49.421  0.00  0.00     0.029 C 
ENDBRANCH   1  26
TORSDOF 4
ENDMDL
