MODEL 1
REMARK VINA RESULT:      80.4      0.000      0.000
REMARK  8 active torsions:
REMARK  status: ('A' for Active; 'I' for Inactive)
REMARK    1  A    between atoms: C_8  and  N_3 
REMARK    2  A    between atoms: S_7  and  C_5 
REMARK    3  A    between atoms: C_17  and  S_7 
REMARK    4  A    between atoms: C_20  and  C_8 
REMARK    5  A    between atoms: C_9  and  C_17 
REMARK       I    between atoms: N_12  and  C_9 
REMARK    6  A    between atoms: C_11  and  C_13 
REMARK    7  A    between atoms: C_13  and  N_12 
REMARK    8  A    between atoms: O_21  and  C_15 
ROOT
ATOM      1  N   UNL d   1     -55.091-102.161 -43.532  0.00  0.00    -0.185 NA
ATOM      2  C   UNL d   1     -55.167-101.626 -44.158  0.00  0.00     0.354 A 
ATOM      3  N   UNL d   1     -55.095-100.814 -44.016  0.00  0.00    -0.258 N 
ATOM      4  C   UNL d   1     -54.874-101.080 -42.639  0.00  0.00     0.040 A 
ATOM      5  C   UNL d   1     -54.945-101.888 -42.773  0.00  0.00     0.117 A 
ATOM      6  C   UNL d   1     -54.949-100.541 -43.257  0.00  0.00     0.070 A 
ATOM      7  O   UNL d   1     -55.317-101.905 -44.933  0.00  0.00    -0.244 OA
ATOM      8  C   UNL d   1     -54.731-100.638 -41.957  0.00  0.00     0.004 A 
ATOM      9  C   UNL d   1     -54.856 -99.777 -42.975  0.00  0.00     0.018 A 
ATOM     10  C   UNL d   1     -54.719 -99.842 -42.155  0.00  0.00     0.002 A 
ENDROOT
BRANCH   5  11
ATOM     11  S   UNL d   1     -54.869-102.424 -42.147  0.00  0.00    -0.062 SA
BRANCH  11  12
ATOM     12  C   UNL d   1     -55.521-102.617 -41.683  0.00  0.00     0.099 C 
BRANCH  12  13
ATOM     13  C   UNL d   1     -55.471-102.548 -40.858  0.00  0.00     0.286 C 
ATOM     14  N   UNL d   1     -56.146-102.456 -40.408  0.00  0.00    -0.206 NA
ATOM     15  O   UNL d   1     -54.725-102.572 -40.484  0.00  0.00    -0.265 OA
BRANCH  14  16
ATOM     16  C   UNL d   1     -56.096-102.387 -39.585  0.00  0.00     0.104 C 
BRANCH  16  17
ATOM     17  C   UNL d   1     -55.649-101.790 -39.244  0.00  0.00     0.042 A 
ATOM     18  C   UNL d   1     -55.165-101.949 -38.592  0.00  0.00     0.096 A 
ATOM     19  C   UNL d   1     -54.716-101.347 -38.251  0.00  0.00     0.024 A 
ATOM     20  C   UNL d   1     -54.744-100.584 -38.555  0.00  0.00     0.002 A 
ATOM     21  C   UNL d   1     -55.225-100.414 -39.208  0.00  0.00     0.000 A 
ATOM     22  C   UNL d   1     -55.682-101.017 -39.558  0.00  0.00     0.004 A 
BRANCH  18  23
ATOM     23  O   UNL d   1     -55.130-102.717 -38.278  0.00  0.00    -0.328 OA
ATOM     24  C   UNL d   1     -55.426-102.855 -37.515  0.00  0.00     0.181 C 
ENDBRANCH  18  23
ENDBRANCH  16  17
ENDBRANCH  14  16
ENDBRANCH  12  13
ENDBRANCH  11  12
ENDBRANCH   5  11
BRANCH   3  25
ATOM     25  C   UNL d   1     -55.171-100.279 -44.642  0.00  0.00     0.085 C 
BRANCH  25  26
ATOM     26  C   UNL d   1     -55.899 -99.909 -44.781  0.00  0.00     0.021 A 
ATOM     27  C   UNL d   1     -56.498-100.318 -45.163  0.00  0.00     0.022 A 
ATOM     28  C   UNL d   1     -57.221 -99.941 -45.298  0.00  0.00     0.099 A 
ATOM     29  N   UNL d   1     -57.343 -99.164 -45.053  0.00  0.00    -0.242 NA
ATOM     30  C   UNL d   1     -56.742 -98.763 -44.673  0.00  0.00     0.099 A 
ATOM     31  C   UNL d   1     -56.004 -99.135 -44.531  0.00  0.00     0.022 A 
ENDBRANCH  25  26
ENDBRANCH   3  25
TORSDOF 8
ENDMDL
MODEL 2
REMARK VINA RESULT:      80.6      1.763      5.067
REMARK  8 active torsions:
REMARK  status: ('A' for Active; 'I' for Inactive)
REMARK    1  A    between atoms: C_8  and  N_3 
REMARK    2  A    between atoms: S_7  and  C_5 
REMARK    3  A    between atoms: C_17  and  S_7 
REMARK    4  A    between atoms: C_20  and  C_8 
REMARK    5  A    between atoms: C_9  and  C_17 
REMARK       I    between atoms: N_12  and  C_9 
REMARK    6  A    between atoms: C_11  and  C_13 
REMARK    7  A    between atoms: C_13  and  N_12 
REMARK    8  A    between atoms: O_21  and  C_15 
ROOT
ATOM      1  N   UNL d   1     -55.183-101.331 -43.526  0.00  0.00    -0.185 NA
ATOM      2  C   UNL d   1     -55.211-102.053 -43.126  0.00  0.00     0.354 A 
ATOM      3  N   UNL d   1     -55.103-102.073 -42.305  0.00  0.00    -0.258 N 
ATOM      4  C   UNL d   1     -54.943-100.662 -42.298  0.00  0.00     0.040 A 
ATOM      5  C   UNL d   1     -55.049-100.636 -43.113  0.00  0.00     0.117 A 
ATOM      6  C   UNL d   1     -54.969-101.378 -41.892  0.00  0.00     0.070 A 
ATOM      7  O   UNL d   1     -55.348-102.763 -43.548  0.00  0.00    -0.244 OA
ATOM      8  C   UNL d   1     -54.801-100.076 -41.735  0.00  0.00     0.004 A 
ATOM      9  C   UNL d   1     -54.847-101.250 -41.091  0.00  0.00     0.018 A 
ATOM     10  C   UNL d   1     -54.742-100.428 -40.996  0.00  0.00     0.002 A 
ENDROOT
BRANCH   5  11
ATOM     11  S   UNL d   1     -55.022 -99.913 -43.514  0.00  0.00    -0.062 SA
BRANCH  11  12
ATOM     12  C   UNL d   1     -55.604 -99.719 -44.063  0.00  0.00     0.099 C 
BRANCH  12  13
ATOM     13  C   UNL d   1     -56.266 -99.283 -43.820  0.00  0.00     0.286 C 
ATOM     14  N   UNL d   1     -56.909 -99.193 -44.316  0.00  0.00    -0.206 NA
ATOM     15  O   UNL d   1     -56.277 -98.933 -43.062  0.00  0.00    -0.265 OA
BRANCH  14  16
ATOM     16  C   UNL d   1     -57.570 -98.758 -44.073  0.00  0.00     0.104 C 
BRANCH  16  17
ATOM     17  C   UNL d   1     -58.278 -99.136 -43.907  0.00  0.00     0.042 A 
ATOM     18  C   UNL d   1     -58.763 -99.404 -44.522  0.00  0.00     0.096 A 
ATOM     19  C   UNL d   1     -59.475 -99.785 -44.353  0.00  0.00     0.024 A 
ATOM     20  C   UNL d   1     -59.710 -99.902 -43.575  0.00  0.00     0.002 A 
ATOM     21  C   UNL d   1     -59.232 -99.637 -42.952  0.00  0.00     0.000 A 
ATOM     22  C   UNL d   1     -58.510 -99.252 -43.114  0.00  0.00     0.004 A 
BRANCH  18  23
ATOM     23  O   UNL d   1     -58.533 -99.290 -45.312  0.00  0.00    -0.328 OA
ATOM     24  C   UNL d   1     -59.037 -98.872 -45.822  0.00  0.00     0.181 C 
ENDBRANCH  18  23
ENDBRANCH  16  17
ENDBRANCH  14  16
ENDBRANCH  12  13
ENDBRANCH  11  12
ENDBRANCH   5  11
BRANCH   3  25
ATOM     25  C   UNL d   1     -55.130-102.796 -41.904  0.00  0.00     0.085 C 
BRANCH  25  26
ATOM     26  C   UNL d   1     -55.331-102.813 -41.101  0.00  0.00     0.021 A 
ATOM     27  C   UNL d   1     -56.120-102.826 -40.878  0.00  0.00     0.022 A 
ATOM     28  C   UNL d   1     -56.311-102.843 -40.074  0.00  0.00     0.099 A 
ATOM     29  N   UNL d   1     -55.719-102.848 -39.500  0.00  0.00    -0.242 NA
ATOM     30  C   UNL d   1     -54.936-102.835 -39.730  0.00  0.00     0.099 A 
ATOM     31  C   UNL d   1     -54.730-102.817 -40.543  0.00  0.00     0.022 A 
ENDBRANCH  25  26
ENDBRANCH   3  25
TORSDOF 8
ENDMDL
