MODEL 1
REMARK VINA RESULT:       3.3      0.000      0.000
REMARK  4 active torsions:
REMARK  status: ('A' for Active; 'I' for Inactive)
REMARK    1  A    between atoms: C_8  and  C_2 
REMARK    2  A    between atoms: C_9  and  N_3 
REMARK    3  A    between atoms: C_12  and  C_9 
REMARK    4  A    between atoms: C_14  and  C_12 
ROOT
ATOM      1  N   UNL d   1     -41.392-123.206 -49.228  0.00  0.00    -0.217 NA
ATOM      2  C   UNL d   1     -41.924-122.989 -49.815  0.00  0.00     0.149 A 
ATOM      3  N   UNL d   1     -42.732-123.033 -49.671  0.00  0.00    -0.290 N 
ATOM      4  C   UNL d   1     -42.462-123.511 -48.351  0.00  0.00     0.044 A 
ATOM      5  C   UNL d   1     -41.651-123.466 -48.497  0.00  0.00     0.139 A 
ATOM      6  C   UNL d   1     -43.009-123.294 -48.936  0.00  0.00     0.068 A 
ATOM      7  S   UNL d   1     -41.124-123.681 -47.917  0.00  0.00    -0.057 SA
ATOM      8  C   UNL d   1     -42.734-123.770 -47.621  0.00  0.00     0.004 A 
ATOM      9  C   UNL d   1     -43.810-123.339 -48.789  0.00  0.00     0.018 A 
ATOM     10  C   UNL d   1     -43.538-123.816 -47.472  0.00  0.00     0.000 A 
ATOM     11  C   UNL d   1     -44.083-123.594 -48.073  0.00  0.00     0.002 A 
ENDROOT
BRANCH   2  12
ATOM     12  C   UNL d   1     -41.657-122.727 -50.550  0.00  0.00     0.035 A 
ATOM     13  C   UNL d   1     -41.578-121.923 -50.695  0.00  0.00     0.003 A 
ATOM     14  C   UNL d   1     -41.308-121.662 -51.441  0.00  0.00     0.000 A 
ATOM     15  C   UNL d   1     -41.123-122.215 -52.027  0.00  0.00     0.000 A 
ATOM     16  C   UNL d   1     -41.206-123.021 -51.871  0.00  0.00     0.000 A 
ATOM     17  C   UNL d   1     -41.472-123.280 -51.137  0.00  0.00     0.003 A 
ENDBRANCH   2  12
BRANCH   3  18
ATOM     18  C   UNL d   1     -43.270-122.814 -50.263  0.00  0.00     0.085 C 
BRANCH  18  19
ATOM     19  C   UNL d   1     -43.747-122.158 -50.145  0.00  0.00     0.064 C 
BRANCH  19  20
ATOM     20  C   UNL d   1     -44.524-122.159 -50.423  0.00  0.00     0.236 C 
ATOM     21  O   UNL d   1     -44.819-121.528 -50.838  0.00  0.00    -0.283 OA
ENDBRANCH  19  20
ENDBRANCH  18  19
ENDBRANCH   3  18
TORSDOF 4
ENDMDL
MODEL 2
REMARK VINA RESULT:       3.4      2.023      2.991
REMARK  4 active torsions:
REMARK  status: ('A' for Active; 'I' for Inactive)
REMARK    1  A    between atoms: C_8  and  C_2 
REMARK    2  A    between atoms: C_9  and  N_3 
REMARK    3  A    between atoms: C_12  and  C_9 
REMARK    4  A    between atoms: C_14  and  C_12 
ROOT
ATOM      1  N   UNL d   1     -42.425-123.053 -51.766  0.00  0.00    -0.217 NA
ATOM      2  C   UNL d   1     -41.990-122.428 -52.073  0.00  0.00     0.149 A 
ATOM      3  N   UNL d   1     -41.567-121.936 -51.568  0.00  0.00    -0.290 N 
ATOM      4  C   UNL d   1     -42.023-122.705 -50.453  0.00  0.00     0.044 A 
ATOM      5  C   UNL d   1     -42.447-123.198 -50.961  0.00  0.00     0.139 A 
ATOM      6  C   UNL d   1     -41.580-122.071 -50.750  0.00  0.00     0.068 A 
ATOM      7  S   UNL d   1     -42.878-123.817 -50.658  0.00  0.00    -0.057 SA
ATOM      8  C   UNL d   1     -42.037-122.841 -49.643  0.00  0.00     0.004 A 
ATOM      9  C   UNL d   1     -41.162-121.586 -50.246  0.00  0.00     0.018 A 
ATOM     10  C   UNL d   1     -41.618-122.355 -49.135  0.00  0.00     0.000 A 
ATOM     11  C   UNL d   1     -41.173-121.715 -49.449  0.00  0.00     0.002 A 
ENDROOT
BRANCH   2  12
ATOM     12  C   UNL d   1     -41.971-122.286 -52.885  0.00  0.00     0.035 A 
ATOM     13  C   UNL d   1     -42.624-121.956 -53.259  0.00  0.00     0.003 A 
ATOM     14  C   UNL d   1     -42.600-121.814 -54.082  0.00  0.00     0.000 A 
ATOM     15  C   UNL d   1     -41.922-122.005 -54.513  0.00  0.00     0.000 A 
ATOM     16  C   UNL d   1     -41.272-122.336 -54.127  0.00  0.00     0.000 A 
ATOM     17  C   UNL d   1     -41.292-122.478 -53.317  0.00  0.00     0.003 A 
ENDBRANCH   2  12
BRANCH   3  18
ATOM     18  C   UNL d   1     -41.128-121.305 -51.878  0.00  0.00     0.085 C 
BRANCH  18  19
ATOM     19  C   UNL d   1     -41.131-120.586 -51.483  0.00  0.00     0.064 C 
BRANCH  19  20
ATOM     20  C   UNL d   1     -41.124-119.881 -51.912  0.00  0.00     0.236 C 
ATOM     21  O   UNL d   1     -41.130-119.164 -51.535  0.00  0.00    -0.283 OA
ENDBRANCH  19  20
ENDBRANCH  18  19
ENDBRANCH   3  18
TORSDOF 4
ENDMDL
