MODEL 1
REMARK VINA RESULT:      -9.7      0.000      0.000
REMARK  3 active torsions:
REMARK  status: ('A' for Active; 'I' for Inactive)
REMARK    1  A    between atoms: C_10  and  N_1 
REMARK       I    between atoms: N_3  and  C_4 
REMARK    2  A    between atoms: C_4  and  C_10 
REMARK    3  A    between atoms: O_17  and  C_13 
ROOT
ATOM      1  N   UNL d   1      50.827  34.159  52.639  0.00  0.00    -0.268 N 
ATOM      2  C   UNL d   1      50.355  34.261  51.962  0.00  0.00     0.265 A 
ATOM      3  C   UNL d   1      49.637  34.665  52.020  0.00  0.00     0.059 A 
ATOM      4  C   UNL d   1      49.386  34.967  52.744  0.00  0.00     0.028 A 
ATOM      5  C   UNL d   1      49.848  34.871  53.423  0.00  0.00     0.021 A 
ATOM      6  C   UNL d   1      50.574  34.463  53.366  0.00  0.00     0.083 A 
ATOM      7  O   UNL d   1      50.606  33.959  51.238  0.00  0.00    -0.267 OA
ATOM      8  C   UNL d   1      48.670  35.369  52.798  0.00  0.00     0.094 A 
ATOM      9  C   UNL d   1      49.174  34.762  51.344  0.00  0.00     0.005 A 
ATOM     10  C   UNL d   1      48.458  35.164  51.398  0.00  0.00     0.002 A 
ATOM     11  C   UNL d   1      48.206  35.466  52.122  0.00  0.00     0.024 A 
ENDROOT
BRANCH   1  12
ATOM     12  C   UNL d   1      51.543  33.757  52.585  0.00  0.00     0.144 C 
BRANCH  12  13
ATOM     13  C   UNL d   1      52.127  33.877  53.158  0.00  0.00     0.283 C 
ATOM     14  N   UNL d   1      52.644  33.269  53.363  0.00  0.00    -0.272 N 
ATOM     15  C   UNL d   1      53.218  33.396  53.930  0.00  0.00     0.067 A 
ATOM     16  C   UNL d   1      52.575  32.529  52.987  0.00  0.00     0.083 A 
ATOM     17  C   UNL d   1      53.736  32.781  54.133  0.00  0.00     0.016 A 
ATOM     18  C   UNL d   1      53.282  34.122  54.296  0.00  0.00     0.018 A 
ATOM     19  C   UNL d   1      54.314  32.902  54.702  0.00  0.00     0.001 A 
ATOM     20  C   UNL d   1      53.675  32.041  53.765  0.00  0.00     0.003 A 
ATOM     21  C   UNL d   1      54.383  33.633  55.073  0.00  0.00     0.000 A 
ATOM     22  C   UNL d   1      53.862  34.251  54.869  0.00  0.00     0.002 A 
ATOM     23  C   UNL d   1      53.099  31.917  53.197  0.00  0.00     0.019 A 
ATOM     24  O   UNL d   1      52.190  34.615  53.527  0.00  0.00    -0.265 OA
ENDBRANCH  12  13
ENDBRANCH   1  12
BRANCH   8  25
ATOM     25  O   UNL d   1      48.415  35.672  53.520  0.00  0.00    -0.328 OA
ATOM     26  C   UNL d   1      47.752  36.154  53.554  0.00  0.00     0.181 C 
ENDBRANCH   8  25
TORSDOF 3
ENDMDL
MODEL 2
REMARK VINA RESULT:      -9.1      0.953      2.043
REMARK  3 active torsions:
REMARK  status: ('A' for Active; 'I' for Inactive)
REMARK    1  A    between atoms: C_10  and  N_1 
REMARK       I    between atoms: N_3  and  C_4 
REMARK    2  A    between atoms: C_4  and  C_10 
REMARK    3  A    between atoms: O_17  and  C_13 
ROOT
ATOM      1  N   UNL d   1      51.269  34.044  52.630  0.00  0.00    -0.268 N 
ATOM      2  C   UNL d   1      50.752  34.493  53.101  0.00  0.00     0.265 A 
ATOM      3  C   UNL d   1      50.020  34.726  52.799  0.00  0.00     0.059 A 
ATOM      4  C   UNL d   1      49.800  34.516  52.033  0.00  0.00     0.028 A 
ATOM      5  C   UNL d   1      50.307  34.070  51.556  0.00  0.00     0.021 A 
ATOM      6  C   UNL d   1      51.048  33.834  51.861  0.00  0.00     0.083 A 
ATOM      7  O   UNL d   1      50.972  34.702  53.867  0.00  0.00    -0.267 OA
ATOM      8  C   UNL d   1      49.069  34.750  51.735  0.00  0.00     0.094 A 
ATOM      9  C   UNL d   1      49.511  35.171  53.272  0.00  0.00     0.005 A 
ATOM     10  C   UNL d   1      48.780  35.404  52.974  0.00  0.00     0.002 A 
ATOM     11  C   UNL d   1      48.560  35.195  52.208  0.00  0.00     0.024 A 
ENDROOT
BRANCH   1  12
ATOM     12  C   UNL d   1      52.000  33.811  52.929  0.00  0.00     0.144 C 
BRANCH  12  13
ATOM     13  C   UNL d   1      52.206  33.010  52.934  0.00  0.00     0.283 C 
ATOM     14  N   UNL d   1      52.898  32.757  53.304  0.00  0.00    -0.272 N 
ATOM     15  C   UNL d   1      53.093  31.964  53.305  0.00  0.00     0.067 A 
ATOM     16  C   UNL d   1      53.391  33.317  53.674  0.00  0.00     0.083 A 
ATOM     17  C   UNL d   1      53.790  31.715  53.678  0.00  0.00     0.016 A 
ATOM     18  C   UNL d   1      52.607  31.420  52.941  0.00  0.00     0.018 A 
ATOM     19  C   UNL d   1      53.993  30.920  53.682  0.00  0.00     0.001 A 
ATOM     20  C   UNL d   1      54.288  32.264  54.049  0.00  0.00     0.003 A 
ATOM     21  C   UNL d   1      53.505  30.367  53.316  0.00  0.00     0.000 A 
ATOM     22  C   UNL d   1      52.804  30.618  52.941  0.00  0.00     0.002 A 
ATOM     23  C   UNL d   1      54.089  33.058  54.046  0.00  0.00     0.019 A 
ATOM     24  O   UNL d   1      51.710  32.460  52.564  0.00  0.00    -0.265 OA
ENDBRANCH  12  13
ENDBRANCH   1  12
BRANCH   8  25
ATOM     25  O   UNL d   1      48.845  34.542  50.970  0.00  0.00    -0.328 OA
ATOM     26  C   UNL d   1      48.121  34.787  50.672  0.00  0.00     0.181 C 
ENDBRANCH   8  25
TORSDOF 3
ENDMDL
MODEL 3
REMARK VINA RESULT:      -9.0      0.952      5.088
REMARK  3 active torsions:
REMARK  status: ('A' for Active; 'I' for Inactive)
REMARK    1  A    between atoms: C_10  and  N_1 
REMARK       I    between atoms: N_3  and  C_4 
REMARK    2  A    between atoms: C_4  and  C_10 
REMARK    3  A    between atoms: O_17  and  C_13 
ROOT
ATOM      1  N   UNL d   1      51.547  33.865  53.251  0.00  0.00    -0.268 N 
ATOM      2  C   UNL d   1      52.315  34.057  53.505  0.00  0.00     0.265 A 
ATOM      3  C   UNL d   1      52.890  33.467  53.557  0.00  0.00     0.059 A 
ATOM      4  C   UNL d   1      52.708  32.689  53.357  0.00  0.00     0.028 A 
ATOM      5  C   UNL d   1      51.947  32.487  53.103  0.00  0.00     0.021 A 
ATOM      6  C   UNL d   1      51.364  33.083  53.050  0.00  0.00     0.083 A 
ATOM      7  O   UNL d   1      52.497  34.835  53.705  0.00  0.00    -0.267 OA
ATOM      8  C   UNL d   1      53.284  32.104  53.409  0.00  0.00     0.094 A 
ATOM      9  C   UNL d   1      53.650  33.666  53.810  0.00  0.00     0.005 A 
ATOM     10  C   UNL d   1      54.226  33.080  53.863  0.00  0.00     0.002 A 
ATOM     11  C   UNL d   1      54.043  32.302  53.663  0.00  0.00     0.024 A 
ENDROOT
BRANCH   1  12
ATOM     12  C   UNL d   1      50.971  34.450  53.198  0.00  0.00     0.144 C 
BRANCH  12  13
ATOM     13  C   UNL d   1      50.438  34.449  52.566  0.00  0.00     0.283 C 
ATOM     14  N   UNL d   1      49.707  34.823  52.634  0.00  0.00    -0.272 N 
ATOM     15  C   UNL d   1      49.187  34.816  52.004  0.00  0.00     0.067 A 
ATOM     16  C   UNL d   1      49.507  35.205  53.346  0.00  0.00     0.083 A 
ATOM     17  C   UNL d   1      48.452  35.194  52.076  0.00  0.00     0.016 A 
ATOM     18  C   UNL d   1      49.387  34.441  51.308  0.00  0.00     0.018 A 
ATOM     19  C   UNL d   1      47.925  35.191  51.448  0.00  0.00     0.001 A 
ATOM     20  C   UNL d   1      48.243  35.577  52.781  0.00  0.00     0.003 A 
ATOM     21  C   UNL d   1      48.123  34.814  50.744  0.00  0.00     0.000 A 
ATOM     22  C   UNL d   1      48.861  34.434  50.672  0.00  0.00     0.002 A 
ATOM     23  C   UNL d   1      48.768  35.581  53.410  0.00  0.00     0.019 A 
ATOM     24  O   UNL d   1      50.644  34.067  51.861  0.00  0.00    -0.265 OA
ENDBRANCH  12  13
ENDBRANCH   1  12
BRANCH   8  25
ATOM     25  O   UNL d   1      53.105  31.324  53.211  0.00  0.00    -0.328 OA
ATOM     26  C   UNL d   1      53.661  30.732  53.328  0.00  0.00     0.181 C 
ENDBRANCH   8  25
TORSDOF 3
ENDMDL
MODEL 4
REMARK VINA RESULT:      -8.7      0.763      1.058
REMARK  3 active torsions:
REMARK  status: ('A' for Active; 'I' for Inactive)
REMARK    1  A    between atoms: C_10  and  N_1 
REMARK       I    between atoms: N_3  and  C_4 
REMARK    2  A    between atoms: C_4  and  C_10 
REMARK    3  A    between atoms: O_17  and  C_13 
ROOT
ATOM      1  N   UNL d   1      49.847  34.594  52.610  0.00  0.00    -0.268 N 
ATOM      2  C   UNL d   1      49.340  34.693  51.958  0.00  0.00     0.265 A 
ATOM      3  C   UNL d   1      48.654  35.145  52.037  0.00  0.00     0.059 A 
ATOM      4  C   UNL d   1      48.468  35.498  52.757  0.00  0.00     0.028 A 
ATOM      5  C   UNL d   1      48.965  35.406  53.412  0.00  0.00     0.021 A 
ATOM      6  C   UNL d   1      49.659  34.949  53.334  0.00  0.00     0.083 A 
ATOM      7  O   UNL d   1      49.527  34.340  51.238  0.00  0.00    -0.267 OA
ATOM      8  C   UNL d   1      47.783  35.948  52.832  0.00  0.00     0.094 A 
ATOM      9  C   UNL d   1      48.156  35.238  51.385  0.00  0.00     0.005 A 
ATOM     10  C   UNL d   1      47.471  35.688  51.460  0.00  0.00     0.002 A 
ATOM     11  C   UNL d   1      47.285  36.041  52.181  0.00  0.00     0.024 A 
ENDROOT
BRANCH   1  12
ATOM     12  C   UNL d   1      50.532  34.145  52.535  0.00  0.00     0.144 C 
BRANCH  12  13
ATOM     13  C   UNL d   1      51.196  34.327  52.992  0.00  0.00     0.283 C 
ATOM     14  N   UNL d   1      51.769  33.755  53.146  0.00  0.00    -0.272 N 
ATOM     15  C   UNL d   1      52.422  33.944  53.599  0.00  0.00     0.067 A 
ATOM     16  C   UNL d   1      51.675  32.988  52.836  0.00  0.00     0.083 A 
ATOM     17  C   UNL d   1      52.996  33.365  53.751  0.00  0.00     0.016 A 
ATOM     18  C   UNL d   1      52.511  34.696  53.900  0.00  0.00     0.018 A 
ATOM     19  C   UNL d   1      53.655  33.548  54.205  0.00  0.00     0.001 A 
ATOM     20  C   UNL d   1      52.911  32.599  53.447  0.00  0.00     0.003 A 
ATOM     21  C   UNL d   1      53.748  34.306  54.510  0.00  0.00     0.000 A 
ATOM     22  C   UNL d   1      53.171  34.887  54.358  0.00  0.00     0.002 A 
ATOM     23  C   UNL d   1      52.256  32.413  52.994  0.00  0.00     0.019 A 
ATOM     24  O   UNL d   1      51.284  35.092  53.297  0.00  0.00    -0.265 OA
ENDBRANCH  12  13
ENDBRANCH   1  12
BRANCH   8  25
ATOM     25  O   UNL d   1      47.593  36.302  53.551  0.00  0.00    -0.328 OA
ATOM     26  C   UNL d   1      46.885  36.709  53.636  0.00  0.00     0.181 C 
ENDBRANCH   8  25
TORSDOF 3
ENDMDL
MODEL 5
REMARK VINA RESULT:      -7.7      2.504      4.886
REMARK  3 active torsions:
REMARK  status: ('A' for Active; 'I' for Inactive)
REMARK    1  A    between atoms: C_10  and  N_1 
REMARK       I    between atoms: N_3  and  C_4 
REMARK    2  A    between atoms: C_4  and  C_10 
REMARK    3  A    between atoms: O_17  and  C_13 
ROOT
ATOM      1  N   UNL d   1      53.315  31.650  53.344  0.00  0.00    -0.268 N 
ATOM      2  C   UNL d   1      52.980  31.036  52.895  0.00  0.00     0.265 A 
ATOM      3  C   UNL d   1      52.953  30.271  53.201  0.00  0.00     0.059 A 
ATOM      4  C   UNL d   1      53.256  30.111  53.951  0.00  0.00     0.028 A 
ATOM      5  C   UNL d   1      53.591  30.714  54.406  0.00  0.00     0.021 A 
ATOM      6  C   UNL d   1      53.619  31.489  54.097  0.00  0.00     0.083 A 
ATOM      7  O   UNL d   1      52.677  31.196  52.145  0.00  0.00    -0.267 OA
ATOM      8  C   UNL d   1      53.227  29.346  54.254  0.00  0.00     0.094 A 
ATOM      9  C   UNL d   1      52.618  29.666  52.750  0.00  0.00     0.005 A 
ATOM     10  C   UNL d   1      52.590  28.902  53.053  0.00  0.00     0.002 A 
ATOM     11  C   UNL d   1      52.893  28.742  53.802  0.00  0.00     0.024 A 
ENDROOT
BRANCH   1  12
ATOM     12  C   UNL d   1      53.344  32.414  53.041  0.00  0.00     0.144 C 
BRANCH  12  13
ATOM     13  C   UNL d   1      53.429  33.058  53.553  0.00  0.00     0.283 C 
ATOM     14  N   UNL d   1      52.961  33.730  53.463  0.00  0.00    -0.272 N 
ATOM     15  C   UNL d   1      53.051  34.361  53.974  0.00  0.00     0.067 A 
ATOM     16  C   UNL d   1      52.398  33.758  52.850  0.00  0.00     0.083 A 
ATOM     17  C   UNL d   1      52.578  35.035  53.879  0.00  0.00     0.016 A 
ATOM     18  C   UNL d   1      53.603  34.330  54.573  0.00  0.00     0.018 A 
ATOM     19  C   UNL d   1      52.664  35.673  54.389  0.00  0.00     0.001 A 
ATOM     20  C   UNL d   1      52.016  35.073  53.272  0.00  0.00     0.003 A 
ATOM     21  C   UNL d   1      53.220  35.645  54.995  0.00  0.00     0.000 A 
ATOM     22  C   UNL d   1      53.695  34.968  55.090  0.00  0.00     0.002 A 
ATOM     23  C   UNL d   1      51.927  34.438  52.762  0.00  0.00     0.019 A 
ATOM     24  O   UNL d   1      53.990  33.023  54.161  0.00  0.00    -0.265 OA
ENDBRANCH  12  13
ENDBRANCH   1  12
BRANCH   8  25
ATOM     25  O   UNL d   1      53.529  29.183  55.003  0.00  0.00    -0.328 OA
ATOM     26  C   UNL d   1      53.478  28.424  55.310  0.00  0.00     0.181 C 
ENDBRANCH   8  25
TORSDOF 3
ENDMDL
MODEL 6
REMARK VINA RESULT:      -7.2      9.661     11.029
REMARK  3 active torsions:
REMARK  status: ('A' for Active; 'I' for Inactive)
REMARK    1  A    between atoms: C_10  and  N_1 
REMARK       I    between atoms: N_3  and  C_4 
REMARK    2  A    between atoms: C_4  and  C_10 
REMARK    3  A    between atoms: O_17  and  C_13 
ROOT
ATOM      1  N   UNL d   1      44.716  30.386  60.353  0.00  0.00    -0.268 N 
ATOM      2  C   UNL d   1      44.610  30.860  61.027  0.00  0.00     0.265 A 
ATOM      3  C   UNL d   1      44.521  30.507  61.768  0.00  0.00     0.059 A 
ATOM      4  C   UNL d   1      44.537  29.686  61.842  0.00  0.00     0.028 A 
ATOM      5  C   UNL d   1      44.643  29.205  61.178  0.00  0.00     0.021 A 
ATOM      6  C   UNL d   1      44.733  29.562  60.428  0.00  0.00     0.083 A 
ATOM      7  O   UNL d   1      44.593  31.681  60.953  0.00  0.00    -0.267 OA
ATOM      8  C   UNL d   1      44.448  29.337  62.582  0.00  0.00     0.094 A 
ATOM      9  C   UNL d   1      44.416  30.984  62.433  0.00  0.00     0.005 A 
ATOM     10  C   UNL d   1      44.327  30.635  63.173  0.00  0.00     0.002 A 
ATOM     11  C   UNL d   1      44.343  29.814  63.247  0.00  0.00     0.024 A 
ENDROOT
BRANCH   1  12
ATOM     12  C   UNL d   1      44.805  30.736  59.613  0.00  0.00     0.144 C 
BRANCH  12  13
ATOM     13  C   UNL d   1      44.862  30.262  58.938  0.00  0.00     0.283 C 
ATOM     14  N   UNL d   1      44.700  30.574  58.192  0.00  0.00    -0.272 N 
ATOM     15  C   UNL d   1      44.759  30.099  57.531  0.00  0.00     0.067 A 
ATOM     16  C   UNL d   1      44.477  31.373  58.122  0.00  0.00     0.083 A 
ATOM     17  C   UNL d   1      44.595  30.416  56.783  0.00  0.00     0.016 A 
ATOM     18  C   UNL d   1      44.978  29.316  57.603  0.00  0.00     0.018 A 
ATOM     19  C   UNL d   1      44.652  29.944  56.114  0.00  0.00     0.001 A 
ATOM     20  C   UNL d   1      44.372  31.211  56.703  0.00  0.00     0.003 A 
ATOM     21  C   UNL d   1      44.872  29.155  56.183  0.00  0.00     0.000 A 
ATOM     22  C   UNL d   1      45.037  28.836  56.935  0.00  0.00     0.002 A 
ATOM     23  C   UNL d   1      44.314  31.684  57.368  0.00  0.00     0.019 A 
ATOM     24  O   UNL d   1      45.084  29.468  59.015  0.00  0.00    -0.265 OA
ENDBRANCH  12  13
ENDBRANCH   1  12
BRANCH   8  25
ATOM     25  O   UNL d   1      44.464  28.517  62.660  0.00  0.00    -0.328 OA
ATOM     26  C   UNL d   1      44.315  28.170  63.389  0.00  0.00     0.181 C 
ENDBRANCH   8  25
TORSDOF 3
ENDMDL
MODEL 7
REMARK VINA RESULT:      -7.1      9.562     10.612
REMARK  3 active torsions:
REMARK  status: ('A' for Active; 'I' for Inactive)
REMARK    1  A    between atoms: C_10  and  N_1 
REMARK       I    between atoms: N_3  and  C_4 
REMARK    2  A    between atoms: C_4  and  C_10 
REMARK    3  A    between atoms: O_17  and  C_13 
ROOT
ATOM      1  N   UNL d   1      44.718  30.037  59.292  0.00  0.00    -0.268 N 
ATOM      2  C   UNL d   1      44.794  29.503  58.660  0.00  0.00     0.265 A 
ATOM      3  C   UNL d   1      44.736  29.776  57.883  0.00  0.00     0.059 A 
ATOM      4  C   UNL d   1      44.605  30.575  57.731  0.00  0.00     0.028 A 
ATOM      5  C   UNL d   1      44.528  31.115  58.353  0.00  0.00     0.021 A 
ATOM      6  C   UNL d   1      44.586  30.839  59.139  0.00  0.00     0.083 A 
ATOM      7  O   UNL d   1      44.926  28.704  58.812  0.00  0.00    -0.267 OA
ATOM      8  C   UNL d   1      44.548  30.844  56.955  0.00  0.00     0.094 A 
ATOM      9  C   UNL d   1      44.812  29.240  57.260  0.00  0.00     0.005 A 
ATOM     10  C   UNL d   1      44.755  29.509  56.485  0.00  0.00     0.002 A 
ATOM     11  C   UNL d   1      44.624  30.308  56.333  0.00  0.00     0.024 A 
ENDROOT
BRANCH   1  12
ATOM     12  C   UNL d   1      44.775  29.768  60.068  0.00  0.00     0.144 C 
BRANCH  12  13
ATOM     13  C   UNL d   1      44.683  30.297  60.696  0.00  0.00     0.283 C 
ATOM     14  N   UNL d   1      44.591  30.022  61.467  0.00  0.00    -0.272 N 
ATOM     15  C   UNL d   1      44.500  30.553  62.081  0.00  0.00     0.067 A 
ATOM     16  C   UNL d   1      44.592  29.202  61.611  0.00  0.00     0.083 A 
ATOM     17  C   UNL d   1      44.407  30.271  62.855  0.00  0.00     0.016 A 
ATOM     18  C   UNL d   1      44.499  31.355  61.936  0.00  0.00     0.018 A 
ATOM     19  C   UNL d   1      44.315  30.799  63.477  0.00  0.00     0.001 A 
ATOM     20  C   UNL d   1      44.407  29.457  63.009  0.00  0.00     0.003 A 
ATOM     21  C   UNL d   1      44.314  31.609  63.334  0.00  0.00     0.000 A 
ATOM     22  C   UNL d   1      44.407  31.892  62.556  0.00  0.00     0.002 A 
ATOM     23  C   UNL d   1      44.498  28.927  62.391  0.00  0.00     0.019 A 
ATOM     24  O   UNL d   1      44.683  31.112  60.545  0.00  0.00    -0.265 OA
ENDBRANCH  12  13
ENDBRANCH   1  12
BRANCH   8  25
ATOM     25  O   UNL d   1      44.416  31.642  56.799  0.00  0.00    -0.328 OA
ATOM     26  C   UNL d   1      44.322  31.900  56.026  0.00  0.00     0.181 C 
ENDBRANCH   8  25
TORSDOF 3
ENDMDL
MODEL 8
REMARK VINA RESULT:      -7.0      2.300      3.800
REMARK  3 active torsions:
REMARK  status: ('A' for Active; 'I' for Inactive)
REMARK    1  A    between atoms: C_10  and  N_1 
REMARK       I    between atoms: N_3  and  C_4 
REMARK    2  A    between atoms: C_4  and  C_10 
REMARK    3  A    between atoms: O_17  and  C_13 
ROOT
ATOM      1  N   UNL d   1      53.271  32.596  53.412  0.00  0.00    -0.268 N 
ATOM      2  C   UNL d   1      52.667  33.044  53.058  0.00  0.00     0.265 A 
ATOM      3  C   UNL d   1      52.553  33.830  53.284  0.00  0.00     0.059 A 
ATOM      4  C   UNL d   1      53.035  34.172  53.858  0.00  0.00     0.028 A 
ATOM      5  C   UNL d   1      53.639  33.735  54.216  0.00  0.00     0.021 A 
ATOM      6  C   UNL d   1      53.755  32.940  53.988  0.00  0.00     0.083 A 
ATOM      7  O   UNL d   1      52.185  32.702  52.484  0.00  0.00    -0.267 OA
ATOM      8  C   UNL d   1      52.918  34.956  54.081  0.00  0.00     0.094 A 
ATOM      9  C   UNL d   1      51.951  34.268  52.928  0.00  0.00     0.005 A 
ATOM     10  C   UNL d   1      51.835  35.052  53.151  0.00  0.00     0.002 A 
ATOM     11  C   UNL d   1      52.316  35.395  53.726  0.00  0.00     0.024 A 
ENDROOT
BRANCH   1  12
ATOM     12  C   UNL d   1      53.388  31.812  53.189  0.00  0.00     0.144 C 
BRANCH  12  13
ATOM     13  C   UNL d   1      53.428  31.221  53.765  0.00  0.00     0.283 C 
ATOM     14  N   UNL d   1      53.246  30.440  53.578  0.00  0.00    -0.272 N 
ATOM     15  C   UNL d   1      53.289  29.862  54.154  0.00  0.00     0.067 A 
ATOM     16  C   UNL d   1      53.021  30.247  52.800  0.00  0.00     0.083 A 
ATOM     17  C   UNL d   1      53.105  29.077  53.961  0.00  0.00     0.016 A 
ATOM     18  C   UNL d   1      53.510  30.055  54.915  0.00  0.00     0.018 A 
ATOM     19  C   UNL d   1      53.146  28.492  54.535  0.00  0.00     0.001 A 
ATOM     20  C   UNL d   1      52.880  28.875  53.189  0.00  0.00     0.003 A 
ATOM     21  C   UNL d   1      53.368  28.682  55.304  0.00  0.00     0.000 A 
ATOM     22  C   UNL d   1      53.553  29.471  55.498  0.00  0.00     0.002 A 
ATOM     23  C   UNL d   1      52.838  29.457  52.614  0.00  0.00     0.019 A 
ATOM     24  O   UNL d   1      53.652  31.420  54.537  0.00  0.00    -0.265 OA
ENDBRANCH  12  13
ENDBRANCH   1  12
BRANCH   8  25
ATOM     25  O   UNL d   1      53.398  35.302  54.655  0.00  0.00    -0.328 OA
ATOM     26  C   UNL d   1      53.288  36.088  54.864  0.00  0.00     0.181 C 
ENDBRANCH   8  25
TORSDOF 3
ENDMDL
MODEL 9
REMARK VINA RESULT:      -6.7     10.410     11.300
REMARK  3 active torsions:
REMARK  status: ('A' for Active; 'I' for Inactive)
REMARK    1  A    between atoms: C_10  and  N_1 
REMARK       I    between atoms: N_3  and  C_4 
REMARK    2  A    between atoms: C_4  and  C_10 
REMARK    3  A    between atoms: O_17  and  C_13 
ROOT
ATOM      1  N   UNL d   1      45.025  27.405  58.216  0.00  0.00    -0.268 N 
ATOM      2  C   UNL d   1      44.877  27.086  57.464  0.00  0.00     0.265 A 
ATOM      3  C   UNL d   1      44.752  26.275  57.379  0.00  0.00     0.059 A 
ATOM      4  C   UNL d   1      44.773  25.779  58.037  0.00  0.00     0.028 A 
ATOM      5  C   UNL d   1      44.919  26.086  58.791  0.00  0.00     0.021 A 
ATOM      6  C   UNL d   1      45.046  26.907  58.878  0.00  0.00     0.083 A 
ATOM      7  O   UNL d   1      44.856  27.581  56.806  0.00  0.00    -0.267 OA
ATOM      8  C   UNL d   1      44.648  24.970  57.949  0.00  0.00     0.094 A 
ATOM      9  C   UNL d   1      44.606  25.965  56.628  0.00  0.00     0.005 A 
ATOM     10  C   UNL d   1      44.481  25.156  56.540  0.00  0.00     0.002 A 
ATOM     11  C   UNL d   1      44.502  24.661  57.198  0.00  0.00     0.024 A 
ENDROOT
BRANCH   1  12
ATOM     12  C   UNL d   1      45.150  28.214  58.304  0.00  0.00     0.144 C 
BRANCH  12  13
ATOM     13  C   UNL d   1      44.941  28.589  59.011  0.00  0.00     0.283 C 
ATOM     14  N   UNL d   1      44.946  29.411  59.067  0.00  0.00    -0.272 N 
ATOM     15  C   UNL d   1      44.739  29.773  59.769  0.00  0.00     0.067 A 
ATOM     16  C   UNL d   1      45.165  29.865  58.404  0.00  0.00     0.083 A 
ATOM     17  C   UNL d   1      44.746  30.600  59.821  0.00  0.00     0.016 A 
ATOM     18  C   UNL d   1      44.526  29.325  60.416  0.00  0.00     0.018 A 
ATOM     19  C   UNL d   1      44.538  30.970  60.523  0.00  0.00     0.001 A 
ATOM     20  C   UNL d   1      44.961  31.061  59.167  0.00  0.00     0.003 A 
ATOM     21  C   UNL d   1      44.323  30.522  61.178  0.00  0.00     0.000 A 
ATOM     22  C   UNL d   1      44.316  29.690  61.126  0.00  0.00     0.002 A 
ATOM     23  C   UNL d   1      45.169  30.695  58.464  0.00  0.00     0.019 A 
ATOM     24  O   UNL d   1      44.725  28.131  59.666  0.00  0.00    -0.265 OA
ENDBRANCH  12  13
ENDBRANCH   1  12
BRANCH   8  25
ATOM     25  O   UNL d   1      44.668  24.472  58.604  0.00  0.00    -0.328 OA
ATOM     26  C   UNL d   1      44.572  23.662  58.509  0.00  0.00     0.181 C 
ENDBRANCH   8  25
TORSDOF 3
ENDMDL
