MODEL 1
REMARK VINA RESULT:      33.4      0.000      0.000
REMARK  7 active torsions:
REMARK  status: ('A' for Active; 'I' for Inactive)
REMARK    1  A    between atoms: N_4  and  C_1 
REMARK    2  A    between atoms: C_9  and  C_2 
REMARK    3  A    between atoms: C_7  and  N_4 
REMARK    4  A    between atoms: N_8  and  C_7 
REMARK       I    between atoms: C_10  and  N_8 
REMARK    5  A    between atoms: C_15  and  C_10 
REMARK    6  A    between atoms: C_18  and  C_15 
REMARK    7  A    between atoms: C_19  and  C_18 
ROOT
ATOM      1  C   UNL d   1      13.444  12.390  -3.339  0.00  0.00     0.224 C 
ATOM      2  S   UNL d   1      12.873  11.919  -3.707  0.00  0.00    -0.037 SA
ENDROOT
BRANCH   1   3
ATOM      3  N   UNL d   1      14.004  12.061  -2.861  0.00  0.00    -0.211 NA
BRANCH   3   4
ATOM      4  C   UNL d   1      13.881  12.025  -2.055  0.00  0.00     0.118 A 
ATOM      5  C   UNL d   1      14.453  12.127  -1.469  0.00  0.00     0.084 A 
ATOM      6  C   UNL d   1      14.095  12.047  -0.760  0.00  0.00     0.013 A 
ATOM      7  C   UNL d   1      14.470  12.109  -0.016  0.00  0.00     0.001 C 
ATOM      8  C   UNL d   1      13.330  11.900  -0.867  0.00  0.00     0.031 A 
ATOM      9  S   UNL d   1      13.180  11.883  -1.661  0.00  0.00    -0.068 SA
ATOM     10  C   UNL d   1      12.787  11.786  -0.250  0.00  0.00     0.007 C 
BRANCH   5  11
ATOM     11  C   UNL d   1      15.260  12.286  -1.602  0.00  0.00     0.299 C 
ATOM     12  O   UNL d   1      15.711  11.780  -2.073  0.00  0.00    -0.264 OA
ATOM     13  N   UNL d   1      15.623  12.958  -1.261  0.00  0.00    -0.102 N 
ENDBRANCH   5  11
ENDBRANCH   3   4
ENDBRANCH   1   3
BRANCH   1  14
ATOM     14  N   UNL d   1      13.448  13.204  -3.456  0.00  0.00    -0.179 NA
ATOM     15  C   UNL d   1      13.297  13.524  -4.179  0.00  0.00     0.281 C 
ATOM     16  O   UNL d   1      13.136  13.043  -4.812  0.00  0.00    -0.265 OA
BRANCH  15  17
ATOM     17  C   UNL d   1      13.301  14.352  -4.299  0.00  0.00     0.063 C 
BRANCH  17  18
ATOM     18  C   UNL d   1      13.825  14.684  -4.815  0.00  0.00     0.005 C 
BRANCH  18  19
ATOM     19  C   UNL d   1      14.187  15.395  -4.606  0.00  0.00     0.000 A 
ATOM     20  C   UNL d   1      14.545  15.880  -5.179  0.00  0.00     0.000 A 
ATOM     21  C   UNL d   1      14.898  16.578  -4.960  0.00  0.00     0.000 A 
ATOM     22  C   UNL d   1      14.905  16.816  -4.159  0.00  0.00     0.000 A 
ATOM     23  C   UNL d   1      14.551  16.334  -3.598  0.00  0.00     0.000 A 
ATOM     24  C   UNL d   1      14.193  15.622  -3.834  0.00  0.00     0.000 A 
ENDBRANCH  18  19
ENDBRANCH  17  18
ENDBRANCH  15  17
ENDBRANCH   1  14
TORSDOF 7
ENDMDL
