MODEL 1
REMARK VINA RESULT:      44.5      0.000      0.000
REMARK  2 active torsions:
REMARK  status: ('A' for Active; 'I' for Inactive)
REMARK    1  A    between atoms: C_7  and  C_4 
REMARK    2  A    between atoms: O_13  and  C_11 
ROOT
ATOM      1  N   UNL d   1     -49.913  26.083  33.382  0.00  0.00    -0.211 NA
ATOM      2  C   UNL d   1     -49.739  25.268  33.365  0.00  0.00     0.140 A 
ATOM      3  C   UNL d   1     -50.352  24.720  33.348  0.00  0.00     0.051 A 
ATOM      4  C   UNL d   1     -50.703  26.333  33.382  0.00  0.00     0.183 A 
ATOM      5  C   UNL d   1     -51.137  24.973  33.347  0.00  0.00     0.104 A 
ATOM      6  O   UNL d   1     -51.313  25.780  33.364  0.00  0.00    -0.289 OA
ATOM      7  S   UNL d   1     -48.956  25.011  33.366  0.00  0.00    -0.057 SA
ATOM      8  C   UNL d   1     -50.186  23.911  33.331  0.00  0.00     0.004 A 
ATOM      9  C   UNL d   1     -51.753  24.429  33.330  0.00  0.00     0.025 A 
ATOM     10  C   UNL d   1     -50.800  23.354  33.313  0.00  0.00     0.000 A 
ATOM     11  C   UNL d   1     -51.582  23.619  33.313  0.00  0.00     0.002 A 
ENDROOT
BRANCH   4  12
ATOM     12  C   UNL d   1     -50.866  27.137  33.399  0.00  0.00     0.043 A 
ATOM     13  C   UNL d   1     -50.270  27.686  33.489  0.00  0.00     0.028 A 
ATOM     14  C   UNL d   1     -50.438  28.487  33.506  0.00  0.00     0.094 A 
ATOM     15  C   UNL d   1     -51.218  28.747  33.430  0.00  0.00     0.024 A 
ATOM     16  C   UNL d   1     -51.824  28.191  33.338  0.00  0.00     0.002 A 
ATOM     17  C   UNL d   1     -51.657  27.387  33.321  0.00  0.00     0.004 A 
BRANCH  14  18
ATOM     18  O   UNL d   1     -49.834  29.038  33.597  0.00  0.00    -0.328 OA
ATOM     19  C   UNL d   1     -49.137  28.829  33.985  0.00  0.00     0.181 C 
ENDBRANCH  14  18
ENDBRANCH   4  12
TORSDOF 2
ENDMDL
