MODEL 1
REMARK VINA RESULT:      61.9      0.000      0.000
REMARK  2 active torsions:
REMARK  status: ('A' for Active; 'I' for Inactive)
REMARK    1  A    between atoms: C_8  and  C_1 
REMARK    2  A    between atoms: N_5  and  C_8 
ROOT
ATOM      1  C   UNL d   1      58.911  49.701  50.376  0.00  0.00     0.059 A 
ATOM      2  C   UNL d   1      57.684  49.693  49.658  0.00  0.00     0.121 A 
ATOM      3  C   UNL d   1      58.497  49.698  49.667  0.00  0.00     0.214 A 
ATOM      4  C   UNL d   1      57.265  49.690  50.376  0.00  0.00     0.032 A 
ATOM      5  C   UNL d   1      57.666  49.693  51.088  0.00  0.00     0.059 A 
ATOM      6  C   UNL d   1      58.497  49.698  51.083  0.00  0.00     0.016 A 
ATOM      7  N   UNL d   1      57.274  49.690  48.952  0.00  0.00    -0.241 NA
ATOM      8 CL   UNL d   1      57.251  49.690  51.798  0.00  0.00    -0.082 Cl
ATOM      9  O   UNL d   1      58.917  49.701  48.949  0.00  0.00    -0.285 OA
ATOM     10  C   UNL d   1      56.449  49.685  50.361  0.00  0.00     0.004 A 
ATOM     11  C   UNL d   1      56.453  49.685  48.939  0.00  0.00     0.099 A 
ATOM     12  C   UNL d   1      56.040  49.682  49.646  0.00  0.00     0.021 A 
ENDROOT
BRANCH   1  13
ATOM     13  C   UNL d   1      59.745  49.706  50.382  0.00  0.00     0.084 C 
BRANCH  13  14
ATOM     14  N   UNL d   1      60.161  49.087  50.747  0.00  0.00    -0.302 N 
ATOM     15  C   UNL d   1      60.309  48.401  50.334  0.00  0.00     0.080 A 
ATOM     16  C   UNL d   1      60.725  47.781  50.700  0.00  0.00     0.018 A 
ATOM     17  C   UNL d   1      60.877  47.085  50.284  0.00  0.00     0.002 A 
ATOM     18  C   UNL d   1      60.985  47.866  51.482  0.00  0.00     0.003 A 
ATOM     19  C   UNL d   1      61.295  46.462  50.652  0.00  0.00     0.000 A 
ATOM     20  C   UNL d   1      61.555  46.545  51.430  0.00  0.00     0.000 A 
ATOM     21  C   UNL d   1      61.403  47.236  51.840  0.00  0.00     0.000 A 
ATOM     22  C   UNL d   1      60.833  48.552  51.884  0.00  0.00     0.019 A 
ATOM     23  C   UNL d   1      60.417  49.180  51.529  0.00  0.00     0.080 A 
ENDBRANCH  13  14
ENDBRANCH   1  13
TORSDOF 2
ENDMDL
MODEL 2
REMARK VINA RESULT:      62.9      1.519      4.201
REMARK  2 active torsions:
REMARK  status: ('A' for Active; 'I' for Inactive)
REMARK    1  A    between atoms: C_8  and  C_1 
REMARK    2  A    between atoms: N_5  and  C_8 
ROOT
ATOM      1  C   UNL d   1      59.967  49.263  51.102  0.00  0.00     0.059 A 
ATOM      2  C   UNL d   1      60.592  48.021  50.807  0.00  0.00     0.121 A 
ATOM      3  C   UNL d   1      60.036  48.453  51.214  0.00  0.00     0.214 A 
ATOM      4  C   UNL d   1      61.098  48.404  50.270  0.00  0.00     0.032 A 
ATOM      5  C   UNL d   1      61.038  49.210  50.150  0.00  0.00     0.059 A 
ATOM      6  C   UNL d   1      60.466  49.640  50.573  0.00  0.00     0.016 A 
ATOM      7  N   UNL d   1      60.658  47.215  50.919  0.00  0.00    -0.241 NA
ATOM      8 CL   UNL d   1      61.540  49.588  49.618  0.00  0.00    -0.082 Cl
ATOM      9  O   UNL d   1      59.529  48.071  51.752  0.00  0.00    -0.285 OA
ATOM     10  C   UNL d   1      61.653  47.966  49.864  0.00  0.00     0.004 A 
ATOM     11  C   UNL d   1      61.218  46.775  50.510  0.00  0.00     0.099 A 
ATOM     12  C   UNL d   1      61.717  47.152  49.981  0.00  0.00     0.021 A 
ENDROOT
BRANCH   1  13
ATOM     13  C   UNL d   1      59.397  49.704  51.521  0.00  0.00     0.084 C 
BRANCH  13  14
ATOM     14  N   UNL d   1      58.604  49.698  51.272  0.00  0.00    -0.302 N 
ATOM     15  C   UNL d   1      58.431  49.705  50.477  0.00  0.00     0.080 A 
ATOM     16  C   UNL d   1      57.638  49.700  50.228  0.00  0.00     0.018 A 
ATOM     17  C   UNL d   1      57.460  49.706  49.422  0.00  0.00     0.002 A 
ATOM     18  C   UNL d   1      57.030  49.687  50.790  0.00  0.00     0.003 A 
ATOM     19  C   UNL d   1      56.662  49.701  49.172  0.00  0.00     0.000 A 
ATOM     20  C   UNL d   1      56.056  49.689  49.730  0.00  0.00     0.000 A 
ATOM     21  C   UNL d   1      56.236  49.682  50.528  0.00  0.00     0.000 A 
ATOM     22  C   UNL d   1      57.213  49.681  51.579  0.00  0.00     0.019 A 
ATOM     23  C   UNL d   1      58.003  49.686  51.841  0.00  0.00     0.080 A 
ENDBRANCH  13  14
ENDBRANCH   1  13
TORSDOF 2
ENDMDL
MODEL 3
REMARK VINA RESULT:      64.9      1.153      1.736
REMARK  2 active torsions:
REMARK  status: ('A' for Active; 'I' for Inactive)
REMARK    1  A    between atoms: C_8  and  C_1 
REMARK    2  A    between atoms: N_5  and  C_8 
ROOT
ATOM      1  C   UNL d   1      58.936  49.591  50.393  0.00  0.00     0.059 A 
ATOM      2  C   UNL d   1      57.668  49.531  49.753  0.00  0.00     0.121 A 
ATOM      3  C   UNL d   1      58.477  49.604  49.713  0.00  0.00     0.214 A 
ATOM      4  C   UNL d   1      57.300  49.442  50.493  0.00  0.00     0.032 A 
ATOM      5  C   UNL d   1      57.747  49.427  51.177  0.00  0.00     0.059 A 
ATOM      6  C   UNL d   1      58.573  49.503  51.122  0.00  0.00     0.016 A 
ATOM      7  N   UNL d   1      57.213  49.545  49.075  0.00  0.00    -0.241 NA
ATOM      8 CL   UNL d   1      57.382  49.339  51.909  0.00  0.00    -0.082 Cl
ATOM      9  O   UNL d   1      58.846  49.694  48.972  0.00  0.00    -0.285 OA
ATOM     10  C   UNL d   1      56.488  49.369  50.528  0.00  0.00     0.004 A 
ATOM     11  C   UNL d   1      56.396  49.471  49.112  0.00  0.00     0.099 A 
ATOM     12  C   UNL d   1      56.033  49.383  49.840  0.00  0.00     0.021 A 
ENDROOT
BRANCH   1  13
ATOM     13  C   UNL d   1      59.766  49.666  50.348  0.00  0.00     0.084 C 
BRANCH  13  14
ATOM     14  N   UNL d   1      60.232  49.524  51.021  0.00  0.00    -0.302 N 
ATOM     15  C   UNL d   1      59.930  49.680  51.761  0.00  0.00     0.080 A 
ATOM     16  C   UNL d   1      60.396  49.538  52.435  0.00  0.00     0.018 A 
ATOM     17  C   UNL d   1      60.093  49.695  53.185  0.00  0.00     0.002 A 
ATOM     18  C   UNL d   1      61.163  49.238  52.348  0.00  0.00     0.003 A 
ATOM     19  C   UNL d   1      60.562  49.552  53.863  0.00  0.00     0.000 A 
ATOM     20  C   UNL d   1      61.326  49.254  53.778  0.00  0.00     0.000 A 
ATOM     21  C   UNL d   1      61.623  49.099  53.032  0.00  0.00     0.000 A 
ATOM     22  C   UNL d   1      61.454  49.086  51.607  0.00  0.00     0.019 A 
ATOM     23  C   UNL d   1      60.997  49.225  50.926  0.00  0.00     0.080 A 
ENDBRANCH  13  14
ENDBRANCH   1  13
TORSDOF 2
ENDMDL
