MODEL 1
REMARK VINA RESULT:      29.9      0.000      0.000
REMARK  3 active torsions:
REMARK  status: ('A' for Active; 'I' for Inactive)
REMARK    1  A    between atoms: N_2  and  C_1 
REMARK    2  A    between atoms: C_4  and  C_8 
REMARK    3  A    between atoms: N_14  and  C_5 
ROOT
ATOM      1  C   UNL d   1     -50.753  26.277  33.758  0.00  0.00     0.143 A 
ATOM      2  C   UNL d   1     -50.023  25.944  33.578  0.00  0.00     0.086 A 
ATOM      3  C   UNL d   1     -51.443  25.819  33.714  0.00  0.00     0.027 A 
ATOM      4  C   UNL d   1     -51.395  25.019  33.487  0.00  0.00     0.021 A 
ATOM      5  C   UNL d   1     -49.975  25.152  33.353  0.00  0.00     0.019 A 
ATOM      6  C   UNL d   1     -50.657  24.686  33.306  0.00  0.00     0.003 A 
ENDROOT
BRANCH   4   7
ATOM      7  C   UNL d   1     -52.077  24.562  33.442  0.00  0.00     0.103 A 
ATOM      8  N   UNL d   1     -52.819  24.925  33.439  0.00  0.00    -0.145 NA
ATOM      9  N   UNL d   1     -53.500  24.468  33.394  0.00  0.00    -0.106 NA
ATOM     10  C   UNL d   1     -53.444  23.647  33.351  0.00  0.00     0.297 A 
ATOM     11  C   UNL d   1     -52.702  23.284  33.354  0.00  0.00     0.066 A 
ATOM     12  O   UNL d   1     -54.127  23.189  33.306  0.00  0.00    -0.264 OA
ATOM     13  C   UNL d   1     -52.012  23.741  33.400  0.00  0.00     0.024 A 
ATOM     14  C   UNL d   1     -51.275  23.378  33.403  0.00  0.00     0.002 C 
ENDBRANCH   4   7
BRANCH   1  15
ATOM     15  N   UNL d   1     -50.809  27.072  33.985  0.00  0.00    -0.112 N 
ATOM     16  O   UNL d   1     -50.744  27.269  34.788  0.00  0.00    -0.532 OA
ATOM     17  O   UNL d   1     -50.928  27.661  33.423  0.00  0.00    -0.532 OA
ENDBRANCH   1  15
BRANCH   2  18
ATOM     18  N   UNL d   1     -49.342  26.401  33.623  0.00  0.00    -0.300 N 
ATOM     19  C   UNL d   1     -48.635  26.060  33.870  0.00  0.00     0.100 C 
ATOM     20  C   UNL d   1     -49.366  27.200  33.422  0.00  0.00     0.100 C 
ENDBRANCH   2  18
TORSDOF 3
ENDMDL
