MODEL 1
REMARK VINA RESULT:      -2.2      0.000      0.000
REMARK  4 active torsions:
REMARK  status: ('A' for Active; 'I' for Inactive)
REMARK    1  A    between atoms: N_2  and  S_1 
REMARK    2  A    between atoms: C_3  and  S_1 
REMARK    3  A    between atoms: O_15  and  C_13 
REMARK    4  A    between atoms: C_19  and  O_15 
ROOT
ATOM      1  C   UNL d   1      30.735  17.051 -24.085  0.00  0.00     0.105 A 
ATOM      2  C   UNL d   1      31.434  16.666 -23.842  0.00  0.00     0.014 A 
ATOM      3  C   UNL d   1      32.136  17.091 -23.775  0.00  0.00     0.024 A 
ATOM      4  C   UNL d   1      30.764  17.864 -24.255  0.00  0.00     0.015 A 
ATOM      5  C   UNL d   1      32.157  17.894 -23.946  0.00  0.00     0.100 A 
ATOM      6  C   UNL d   1      31.469  18.282 -24.186  0.00  0.00     0.025 A 
ATOM      7  C   UNL d   1      31.416  15.859 -23.670  0.00  0.00     0.001 A 
ATOM      8  C   UNL d   1      32.822  16.706 -23.536  0.00  0.00     0.002 A 
ATOM      9  C   UNL d   1      32.101  15.474 -23.431  0.00  0.00     0.000 A 
ATOM     10  C   UNL d   1      32.811  15.900 -23.363  0.00  0.00     0.000 A 
ENDROOT
BRANCH   1  11
ATOM     11  S   UNL d   1      30.030  16.633 -24.154  0.00  0.00     0.286 S 
ATOM     12  O   UNL d   1      30.127  16.604 -24.974  0.00  0.00    -0.198 OA
ATOM     13  O   UNL d   1      29.932  16.661 -23.328  0.00  0.00    -0.198 OA
BRANCH  11  14
ATOM     14  N   UNL d   1      29.313  16.208 -24.224  0.00  0.00    -0.150 N 
ATOM     15  N   UNL d   1      28.730  16.138 -23.636  0.00  0.00    -0.155 NA
ATOM     16  C   UNL d   1      28.119  15.671 -23.939  0.00  0.00     0.104 A 
ATOM     17  C   UNL d   1      27.422  15.457 -23.542  0.00  0.00     0.022 C 
ATOM     18  C   UNL d   1      28.324  15.453 -24.713  0.00  0.00     0.042 A 
ATOM     19  C   UNL d   1      29.061  15.785 -24.885  0.00  0.00     0.115 A 
ENDBRANCH  11  14
ENDBRANCH   1  11
BRANCH   5  20
ATOM     20  O   UNL d   1      32.862  18.313 -23.877  0.00  0.00    -0.305 OA
BRANCH  20  21
ATOM     21  C   UNL d   1      32.856  19.134 -23.892  0.00  0.00     0.123 C 
ATOM     22  C   UNL d   1      33.241  19.566 -23.306  0.00  0.00     0.029 C 
ENDBRANCH  20  21
ENDBRANCH   5  20
TORSDOF 4
ENDMDL
MODEL 2
REMARK VINA RESULT:      -1.7      1.574      2.480
REMARK  4 active torsions:
REMARK  status: ('A' for Active; 'I' for Inactive)
REMARK    1  A    between atoms: N_2  and  S_1 
REMARK    2  A    between atoms: C_3  and  S_1 
REMARK    3  A    between atoms: O_15  and  C_13 
REMARK    4  A    between atoms: C_19  and  O_15 
ROOT
ATOM      1  C   UNL d   1      32.151  18.445 -24.500  0.00  0.00     0.105 A 
ATOM      2  C   UNL d   1      32.510  18.615 -23.766  0.00  0.00     0.014 A 
ATOM      3  C   UNL d   1      32.870  19.346 -23.644  0.00  0.00     0.024 A 
ATOM      4  C   UNL d   1      32.165  19.024 -25.097  0.00  0.00     0.015 A 
ATOM      5  C   UNL d   1      32.880  19.912 -24.239  0.00  0.00     0.100 A 
ATOM      6  C   UNL d   1      32.527  19.752 -24.967  0.00  0.00     0.025 A 
ATOM      7  C   UNL d   1      32.501  18.047 -23.168  0.00  0.00     0.001 A 
ATOM      8  C   UNL d   1      33.222  19.508 -22.919  0.00  0.00     0.002 A 
ATOM      9  C   UNL d   1      32.853  18.209 -22.443  0.00  0.00     0.000 A 
ATOM     10  C   UNL d   1      33.217  18.945 -22.316  0.00  0.00     0.000 A 
ENDROOT
BRANCH   1  11
ATOM     11  S   UNL d   1      31.790  17.717 -24.630  0.00  0.00     0.286 S 
ATOM     12  O   UNL d   1      32.527  17.380 -24.791  0.00  0.00    -0.198 OA
ATOM     13  O   UNL d   1      31.047  18.057 -24.468  0.00  0.00    -0.198 OA
BRANCH  11  14
ATOM     14  N   UNL d   1      31.422  16.978 -24.761  0.00  0.00    -0.150 N 
ATOM     15  N   UNL d   1      30.616  16.809 -24.652  0.00  0.00    -0.155 NA
ATOM     16  C   UNL d   1      30.494  16.015 -24.846  0.00  0.00     0.104 A 
ATOM     17  C   UNL d   1      29.771  15.608 -24.817  0.00  0.00     0.022 C 
ATOM     18  C   UNL d   1      31.225  15.693 -25.075  0.00  0.00     0.042 A 
ATOM     19  C   UNL d   1      31.794  16.290 -25.022  0.00  0.00     0.115 A 
ENDBRANCH  11  14
ENDBRANCH   1  11
BRANCH   5  20
ATOM     20  O   UNL d   1      33.241  20.640 -24.109  0.00  0.00    -0.305 OA
BRANCH  20  21
ATOM     21  C   UNL d   1      33.064  21.279 -24.594  0.00  0.00     0.123 C 
ATOM     22  C   UNL d   1      33.170  22.050 -24.326  0.00  0.00     0.029 C 
ENDBRANCH  20  21
ENDBRANCH   5  20
TORSDOF 4
ENDMDL
MODEL 3
REMARK VINA RESULT:      -0.5      3.436      5.480
REMARK  4 active torsions:
REMARK  status: ('A' for Active; 'I' for Inactive)
REMARK    1  A    between atoms: N_2  and  S_1 
REMARK    2  A    between atoms: C_3  and  S_1 
REMARK    3  A    between atoms: O_15  and  C_13 
REMARK    4  A    between atoms: C_19  and  O_15 
ROOT
ATOM      1  C   UNL d   1      32.841  20.626 -21.778  0.00  0.00     0.105 A 
ATOM      2  C   UNL d   1      32.965  21.378 -22.117  0.00  0.00     0.014 A 
ATOM      3  C   UNL d   1      32.937  22.052 -21.645  0.00  0.00     0.024 A 
ATOM      4  C   UNL d   1      32.691  20.574 -20.962  0.00  0.00     0.015 A 
ATOM      5  C   UNL d   1      32.788  21.993 -20.839  0.00  0.00     0.100 A 
ATOM      6  C   UNL d   1      32.665  21.252 -20.497  0.00  0.00     0.025 A 
ATOM      7  C   UNL d   1      33.115  21.440 -22.927  0.00  0.00     0.001 A 
ATOM      8  C   UNL d   1      33.060  22.790 -21.985  0.00  0.00     0.002 A 
ATOM      9  C   UNL d   1      33.238  22.178 -23.266  0.00  0.00     0.000 A 
ATOM     10  C   UNL d   1      33.210  22.861 -22.793  0.00  0.00     0.000 A 
ENDROOT
BRANCH   1  11
ATOM     11  S   UNL d   1      32.868  19.948 -22.244  0.00  0.00     0.286 S 
ATOM     12  O   UNL d   1      33.240  19.540 -21.629  0.00  0.00    -0.198 OA
ATOM     13  O   UNL d   1      32.493  20.359 -22.863  0.00  0.00    -0.198 OA
BRANCH  11  14
ATOM     14  N   UNL d   1      32.895  19.259 -22.717  0.00  0.00    -0.150 N 
ATOM     15  N   UNL d   1      32.967  18.480 -22.438  0.00  0.00    -0.155 NA
ATOM     16  C   UNL d   1      32.971  17.975 -23.092  0.00  0.00     0.104 A 
ATOM     17  C   UNL d   1      33.033  17.148 -23.073  0.00  0.00     0.022 C 
ATOM     18  C   UNL d   1      32.901  18.442 -23.775  0.00  0.00     0.042 A 
ATOM     19  C   UNL d   1      32.854  19.233 -23.540  0.00  0.00     0.115 A 
ENDBRANCH  11  14
ENDBRANCH   1  11
BRANCH   5  20
ATOM     20  O   UNL d   1      32.762  22.671 -20.373  0.00  0.00    -0.305 OA
BRANCH  20  21
ATOM     21  C   UNL d   1      32.868  22.615 -19.561  0.00  0.00     0.123 C 
ATOM     22  C   UNL d   1      32.664  23.242 -19.068  0.00  0.00     0.029 C 
ENDBRANCH  20  21
ENDBRANCH   5  20
TORSDOF 4
ENDMDL
MODEL 4
REMARK VINA RESULT:      -0.4      3.194      5.130
REMARK  4 active torsions:
REMARK  status: ('A' for Active; 'I' for Inactive)
REMARK    1  A    between atoms: N_2  and  S_1 
REMARK    2  A    between atoms: C_3  and  S_1 
REMARK    3  A    between atoms: O_15  and  C_13 
REMARK    4  A    between atoms: C_19  and  O_15 
ROOT
ATOM      1  C   UNL d   1      32.739  19.486 -22.673  0.00  0.00     0.105 A 
ATOM      2  C   UNL d   1      32.903  19.556 -23.488  0.00  0.00     0.014 A 
ATOM      3  C   UNL d   1      32.888  18.888 -23.969  0.00  0.00     0.024 A 
ATOM      4  C   UNL d   1      32.562  18.736 -22.362  0.00  0.00     0.015 A 
ATOM      5  C   UNL d   1      32.713  18.149 -23.655  0.00  0.00     0.100 A 
ATOM      6  C   UNL d   1      32.549  18.072 -22.850  0.00  0.00     0.025 A 
ATOM      7  C   UNL d   1      33.079  20.297 -23.806  0.00  0.00     0.001 A 
ATOM      8  C   UNL d   1      33.050  18.963 -24.771  0.00  0.00     0.002 A 
ATOM      9  C   UNL d   1      33.241  20.372 -24.608  0.00  0.00     0.000 A 
ATOM     10  C   UNL d   1      33.227  19.700 -25.097  0.00  0.00     0.000 A 
ENDROOT
BRANCH   1  11
ATOM     11  S   UNL d   1      32.752  20.149 -22.186  0.00  0.00     0.286 S 
ATOM     12  O   UNL d   1      33.240  19.748 -21.653  0.00  0.00    -0.198 OA
ATOM     13  O   UNL d   1      32.260  20.553 -22.722  0.00  0.00    -0.198 OA
BRANCH  11  14
ATOM     14  N   UNL d   1      32.765  20.823 -21.691  0.00  0.00    -0.150 N 
ATOM     15  N   UNL d   1      32.445  21.568 -21.875  0.00  0.00    -0.155 NA
ATOM     16  C   UNL d   1      32.581  22.068 -21.232  0.00  0.00     0.104 A 
ATOM     17  C   UNL d   1      32.356  22.865 -21.174  0.00  0.00     0.022 C 
ATOM     18  C   UNL d   1      32.984  21.633 -20.650  0.00  0.00     0.042 A 
ATOM     19  C   UNL d   1      33.095  20.867 -20.938  0.00  0.00     0.115 A 
ENDBRANCH  11  14
ENDBRANCH   1  11
BRANCH   5  20
ATOM     20  O   UNL d   1      32.700  17.486 -24.142  0.00  0.00    -0.305 OA
BRANCH  20  21
ATOM     21  C   UNL d   1      32.587  16.740 -23.818  0.00  0.00     0.123 C 
ATOM     22  C   UNL d   1      32.889  16.071 -24.190  0.00  0.00     0.029 C 
ENDBRANCH  20  21
ENDBRANCH   5  20
TORSDOF 4
ENDMDL
MODEL 5
REMARK VINA RESULT:      -0.0      1.338      2.165
REMARK  4 active torsions:
REMARK  status: ('A' for Active; 'I' for Inactive)
REMARK    1  A    between atoms: N_2  and  S_1 
REMARK    2  A    between atoms: C_3  and  S_1 
REMARK    3  A    between atoms: O_15  and  C_13 
REMARK    4  A    between atoms: C_19  and  O_15 
ROOT
ATOM      1  C   UNL d   1      29.708  15.992 -23.815  0.00  0.00     0.105 A 
ATOM      2  C   UNL d   1      30.030  16.634 -24.240  0.00  0.00     0.014 A 
ATOM      3  C   UNL d   1      30.843  16.765 -24.232  0.00  0.00     0.024 A 
ATOM      4  C   UNL d   1      30.221  15.495 -23.390  0.00  0.00     0.015 A 
ATOM      5  C   UNL d   1      31.343  16.269 -23.810  0.00  0.00     0.100 A 
ATOM      6  C   UNL d   1      31.032  15.632 -23.388  0.00  0.00     0.025 A 
ATOM      7  C   UNL d   1      29.529  17.133 -24.665  0.00  0.00     0.001 A 
ATOM      8  C   UNL d   1      31.154  17.399 -24.652  0.00  0.00     0.002 A 
ATOM      9  C   UNL d   1      29.841  17.767 -25.085  0.00  0.00     0.000 A 
ATOM     10  C   UNL d   1      30.661  17.903 -25.080  0.00  0.00     0.000 A 
ENDROOT
BRANCH   1  11
ATOM     11  S   UNL d   1      28.896  15.854 -23.818  0.00  0.00     0.286 S 
ATOM     12  O   UNL d   1      28.965  15.463 -24.543  0.00  0.00    -0.198 OA
ATOM     13  O   UNL d   1      28.827  16.248 -23.088  0.00  0.00    -0.198 OA
BRANCH  11  14
ATOM     14  N   UNL d   1      28.072  15.714 -23.821  0.00  0.00    -0.150 N 
ATOM     15  N   UNL d   1      27.577  15.714 -23.154  0.00  0.00    -0.155 NA
ATOM     16  C   UNL d   1      26.808  15.552 -23.408  0.00  0.00     0.104 A 
ATOM     17  C   UNL d   1      26.133  15.498 -22.928  0.00  0.00     0.022 C 
ATOM     18  C   UNL d   1      26.828  15.453 -24.233  0.00  0.00     0.042 A 
ATOM     19  C   UNL d   1      27.609  15.554 -24.483  0.00  0.00     0.115 A 
ENDBRANCH  11  14
ENDBRANCH   1  11
BRANCH   5  20
ATOM     20  O   UNL d   1      32.155  16.407 -23.807  0.00  0.00    -0.305 OA
BRANCH  20  21
ATOM     21  C   UNL d   1      32.640  15.993 -23.290  0.00  0.00     0.123 C 
ATOM     22  C   UNL d   1      33.241  16.378 -22.880  0.00  0.00     0.029 C 
ENDBRANCH  20  21
ENDBRANCH   5  20
TORSDOF 4
ENDMDL
