MODEL 1
REMARK VINA RESULT:      -0.6      0.000      0.000
REMARK  9 active torsions:
REMARK  status: ('A' for Active; 'I' for Inactive)
REMARK    1  A    between atoms: C_14  and  N_1 
REMARK    2  A    between atoms: C_8  and  C_2 
REMARK    3  A    between atoms: C_3  and  N_11 
REMARK    4  A    between atoms: S_16  and  C_4 
REMARK    5  A    between atoms: C_10  and  C_8 
REMARK       I    between atoms: N_11  and  C_17 
REMARK    6  A    between atoms: C_23  and  C_14 
REMARK    7  A    between atoms: C_22  and  S_16 
REMARK    8  A    between atoms: C_17  and  C_22 
REMARK    9  A    between atoms: C_25  and  C_23 
ROOT
ATOM      1  N   UNL d   1      33.062  21.871 -21.596  0.00  0.00    -0.268 N 
ATOM      2  C   UNL d   1      32.854  22.159 -20.849  0.00  0.00     0.172 A 
ATOM      3  C   UNL d   1      33.065  21.048 -21.563  0.00  0.00     0.201 A 
ATOM      4  N   UNL d   1      32.729  21.515 -20.356  0.00  0.00    -0.128 NA
ATOM      5  N   UNL d   1      32.858  20.825 -20.789  0.00  0.00    -0.121 NA
ENDROOT
BRANCH   3   6
ATOM      6  S   UNL d   1      33.241  20.537 -22.179  0.00  0.00    -0.043 SA
BRANCH   6   7
ATOM      7  C   UNL d   1      32.634  20.186 -22.614  0.00  0.00     0.101 C 
BRANCH   7   8
ATOM      8  C   UNL d   1      32.753  19.450 -22.970  0.00  0.00     0.288 C 
ATOM      9  N   UNL d   1      32.406  18.781 -22.646  0.00  0.00    -0.182 NA
ATOM     10  O   UNL d   1      33.220  19.389 -23.647  0.00  0.00    -0.265 OA
BRANCH   9  11
ATOM     11  C   UNL d   1      32.521  18.048 -22.995  0.00  0.00     0.197 A 
ATOM     12  N   UNL d   1      32.932  17.410 -22.665  0.00  0.00    -0.221 NA
ATOM     13  C   UNL d   1      32.911  16.789 -23.202  0.00  0.00     0.090 A 
ATOM     14  C   UNL d   1      33.219  16.031 -23.176  0.00  0.00     0.020 A 
ATOM     15  C   UNL d   1      32.489  17.034 -23.869  0.00  0.00     0.050 A 
ATOM     16  C   UNL d   1      33.111  15.513 -23.809  0.00  0.00     0.002 A 
ATOM     17  C   UNL d   1      32.687  15.766 -24.474  0.00  0.00     0.001 A 
ATOM     18  C   UNL d   1      32.381  16.516 -24.502  0.00  0.00     0.008 A 
ATOM     19  S   UNL d   1      32.241  17.816 -23.752  0.00  0.00    -0.047 SA
ENDBRANCH   9  11
ENDBRANCH   7   8
ENDBRANCH   6   7
ENDBRANCH   3   6
BRANCH   1  20
ATOM     20  C   UNL d   1      33.236  22.331 -22.259  0.00  0.00     0.084 C 
BRANCH  20  21
ATOM     21  C   UNL d   1      33.020  22.062 -23.018  0.00  0.00     0.019 C 
BRANCH  21  22
ATOM     22  C   UNL d   1      32.728  22.596 -23.581  0.00  0.00     0.002 A 
ATOM     23  C   UNL d   1      32.191  23.170 -23.352  0.00  0.00     0.000 A 
ATOM     24  C   UNL d   1      31.904  23.699 -23.916  0.00  0.00     0.000 A 
ATOM     25  C   UNL d   1      32.160  23.646 -24.703  0.00  0.00     0.000 A 
ATOM     26  C   UNL d   1      32.704  23.063 -24.927  0.00  0.00     0.000 A 
ATOM     27  C   UNL d   1      32.984  22.539 -24.354  0.00  0.00     0.000 A 
ENDBRANCH  21  22
ENDBRANCH  20  21
ENDBRANCH   1  20
BRANCH   2  28
ATOM     28  C   UNL d   1      32.784  22.955 -20.636  0.00  0.00     0.057 C 
BRANCH  28  29
ATOM     29  C   UNL d   1      32.602  23.161 -19.861  0.00  0.00     0.067 A 
ATOM     30  N   UNL d   1      31.898  23.504 -19.597  0.00  0.00    -0.303 N 
ATOM     31  C   UNL d   1      31.956  23.615 -18.781  0.00  0.00     0.080 A 
ATOM     32  C   UNL d   1      31.253  23.698 -20.071  0.00  0.00     0.100 C 
ATOM     33  C   UNL d   1      32.692  23.343 -18.536  0.00  0.00     0.021 A 
ATOM     34  C   UNL d   1      33.094  23.063 -19.199  0.00  0.00     0.019 A 
ENDBRANCH  28  29
ENDBRANCH   2  28
TORSDOF 9
ENDMDL
