MODEL 1
REMARK VINA RESULT:      -8.7      0.000      0.000
REMARK  5 active torsions:
REMARK  status: ('A' for Active; 'I' for Inactive)
REMARK    1  A    between atoms: C_11  and  N_2 
REMARK    2  A    between atoms: C_6  and  O_13 
REMARK    3  A    between atoms: C_12  and  C_7 
REMARK    4  A    between atoms: C_16  and  C_11 
REMARK    5  A    between atoms: O_13  and  C_16 
ROOT
ATOM      1  C   UNL d   1      53.426  32.126  53.648  0.00  0.00     0.142 C 
ENDROOT
BRANCH   1   2
ATOM      2  O   UNL d   1      53.915  32.721  53.936  0.00  0.00    -0.304 OA
BRANCH   2   3
ATOM      3  C   UNL d   1      53.606  33.476  54.056  0.00  0.00     0.100 A 
ATOM      4  C   UNL d   1      53.947  33.977  54.613  0.00  0.00     0.023 A 
ATOM      5  C   UNL d   1      53.646  34.730  54.738  0.00  0.00     0.002 A 
ATOM      6  C   UNL d   1      52.989  34.987  54.295  0.00  0.00     0.000 A 
ATOM      7  C   UNL d   1      52.645  34.485  53.736  0.00  0.00     0.002 A 
ATOM      8  C   UNL d   1      52.954  33.730  53.616  0.00  0.00     0.025 A 
ATOM      9  C   UNL d   1      51.996  34.739  53.299  0.00  0.00     0.000 C 
BRANCH   4  10
ATOM     10  C   UNL d   1      54.598  33.720  55.050  0.00  0.00     0.002 C 
ATOM     11  C   UNL d   1      55.365  33.838  54.767  0.00  0.00     0.000 C 
ATOM     12  C   UNL d   1      54.489  33.342  55.774  0.00  0.00     0.000 C 
ENDBRANCH   4  10
ENDBRANCH   2   3
ENDBRANCH   1   2
BRANCH   1  13
ATOM     13  C   UNL d   1      53.763  31.461  53.293  0.00  0.00     0.112 C 
BRANCH  13  14
ATOM     14  N   UNL d   1      53.393  30.732  53.361  0.00  0.00    -0.249 N 
ATOM     15  C   UNL d   1      52.884  30.545  52.729  0.00  0.00     0.378 A 
ATOM     16  O   UNL d   1      52.551  29.800  52.866  0.00  0.00    -0.258 OA
ATOM     17  O   UNL d   1      52.741  31.029  52.077  0.00  0.00    -0.237 OA
ATOM     18  C   UNL d   1      52.854  29.517  53.591  0.00  0.00     0.121 A 
ATOM     19  C   UNL d   1      52.728  28.817  54.012  0.00  0.00     0.026 A 
ATOM     20  C   UNL d   1      53.373  30.095  53.892  0.00  0.00     0.092 A 
ATOM     21  C   UNL d   1      53.114  28.692  54.727  0.00  0.00     0.002 A 
ATOM     22  C   UNL d   1      53.628  29.264  55.025  0.00  0.00     0.002 A 
ATOM     23  C   UNL d   1      53.761  29.968  54.611  0.00  0.00     0.020 A 
ENDBRANCH  13  14
ENDBRANCH   1  13
TORSDOF 5
ENDMDL
MODEL 2
REMARK VINA RESULT:      -7.9      2.043      4.416
REMARK  5 active torsions:
REMARK  status: ('A' for Active; 'I' for Inactive)
REMARK    1  A    between atoms: C_11  and  N_2 
REMARK    2  A    between atoms: C_6  and  O_13 
REMARK    3  A    between atoms: C_12  and  C_7 
REMARK    4  A    between atoms: C_16  and  C_11 
REMARK    5  A    between atoms: O_13  and  C_16 
ROOT
ATOM      1  C   UNL d   1      52.304  33.334  53.016  0.00  0.00     0.142 C 
ENDROOT
BRANCH   1   2
ATOM      2  O   UNL d   1      53.076  33.107  53.186  0.00  0.00    -0.304 OA
BRANCH   2   3
ATOM      3  C   UNL d   1      53.243  32.311  53.324  0.00  0.00     0.100 A 
ATOM      4  C   UNL d   1      53.892  32.100  53.783  0.00  0.00     0.023 A 
ATOM      5  C   UNL d   1      54.066  31.311  53.925  0.00  0.00     0.002 A 
ATOM      6  C   UNL d   1      53.578  30.720  53.599  0.00  0.00     0.000 A 
ATOM      7  C   UNL d   1      52.926  30.930  53.137  0.00  0.00     0.002 A 
ATOM      8  C   UNL d   1      52.759  31.726  53.000  0.00  0.00     0.025 A 
ATOM      9  C   UNL d   1      52.444  30.346  52.815  0.00  0.00     0.000 C 
BRANCH   4  10
ATOM     10  C   UNL d   1      54.374  32.688  54.105  0.00  0.00     0.002 C 
ATOM     11  C   UNL d   1      54.960  33.046  53.647  0.00  0.00     0.000 C 
ATOM     12  C   UNL d   1      54.274  32.924  54.890  0.00  0.00     0.000 C 
ENDBRANCH   4  10
ENDBRANCH   2   3
ENDBRANCH   1   2
BRANCH   1  13
ATOM     13  C   UNL d   1      52.150  34.115  52.798  0.00  0.00     0.112 C 
BRANCH  13  14
ATOM     14  N   UNL d   1      51.384  34.406  52.840  0.00  0.00    -0.249 N 
ATOM     15  C   UNL d   1      51.233  34.880  53.508  0.00  0.00     0.378 A 
ATOM     16  O   UNL d   1      50.447  35.135  53.482  0.00  0.00    -0.258 OA
ATOM     17  O   UNL d   1      51.784  35.059  54.095  0.00  0.00    -0.237 OA
ATOM     18  C   UNL d   1      50.101  34.819  52.790  0.00  0.00     0.121 A 
ATOM     19  C   UNL d   1      49.342  34.880  52.469  0.00  0.00     0.026 A 
ATOM     20  C   UNL d   1      50.683  34.371  52.398  0.00  0.00     0.092 A 
ATOM     21  C   UNL d   1      49.162  34.498  51.763  0.00  0.00     0.002 A 
ATOM     22  C   UNL d   1      49.738  34.053  51.375  0.00  0.00     0.002 A 
ATOM     23  C   UNL d   1      50.501  33.987  51.689  0.00  0.00     0.020 A 
ENDBRANCH  13  14
ENDBRANCH   1  13
TORSDOF 5
ENDMDL
MODEL 3
REMARK VINA RESULT:      -7.1      1.404      2.095
REMARK  5 active torsions:
REMARK  status: ('A' for Active; 'I' for Inactive)
REMARK    1  A    between atoms: C_11  and  N_2 
REMARK    2  A    between atoms: C_6  and  O_13 
REMARK    3  A    between atoms: C_12  and  C_7 
REMARK    4  A    between atoms: C_16  and  C_11 
REMARK    5  A    between atoms: O_13  and  C_16 
ROOT
ATOM      1  C   UNL d   1      52.849  32.723  53.315  0.00  0.00     0.142 C 
ENDROOT
BRANCH   1   2
ATOM      2  O   UNL d   1      52.887  33.543  53.266  0.00  0.00    -0.304 OA
BRANCH   2   3
ATOM      3  C   UNL d   1      52.192  33.977  53.172  0.00  0.00     0.100 A 
ATOM      4  C   UNL d   1      52.140  34.743  53.467  0.00  0.00     0.023 A 
ATOM      5  C   UNL d   1      51.453  35.181  53.377  0.00  0.00     0.002 A 
ATOM      6  C   UNL d   1      50.802  34.844  52.982  0.00  0.00     0.000 A 
ATOM      7  C   UNL d   1      50.851  34.075  52.685  0.00  0.00     0.002 A 
ATOM      8  C   UNL d   1      51.547  33.641  52.779  0.00  0.00     0.025 A 
ATOM      9  C   UNL d   1      50.208  33.742  52.295  0.00  0.00     0.000 C 
BRANCH   4  10
ATOM     10  C   UNL d   1      52.787  35.074  53.858  0.00  0.00     0.002 C 
ATOM     11  C   UNL d   1      52.792  35.135  54.682  0.00  0.00     0.000 C 
ATOM     12  C   UNL d   1      53.436  35.349  53.429  0.00  0.00     0.000 C 
ENDBRANCH   4  10
ENDBRANCH   2   3
ENDBRANCH   1   2
BRANCH   1  13
ATOM     13  C   UNL d   1      53.545  32.289  53.400  0.00  0.00     0.112 C 
BRANCH  13  14
ATOM     14  N   UNL d   1      53.518  31.534  53.720  0.00  0.00    -0.249 N 
ATOM     15  C   UNL d   1      53.816  31.478  54.495  0.00  0.00     0.378 A 
ATOM     16  O   UNL d   1      53.757  30.692  54.748  0.00  0.00    -0.258 OA
ATOM     17  O   UNL d   1      54.119  32.108  54.932  0.00  0.00    -0.237 OA
ATOM     18  C   UNL d   1      53.418  30.251  54.125  0.00  0.00     0.121 A 
ATOM     19  C   UNL d   1      53.224  29.451  54.050  0.00  0.00     0.026 A 
ATOM     20  C   UNL d   1      53.272  30.774  53.493  0.00  0.00     0.092 A 
ATOM     21  C   UNL d   1      52.889  29.172  53.352  0.00  0.00     0.002 A 
ATOM     22  C   UNL d   1      52.745  29.691  52.727  0.00  0.00     0.002 A 
ATOM     23  C   UNL d   1      52.935  30.493  52.793  0.00  0.00     0.020 A 
ENDBRANCH  13  14
ENDBRANCH   1  13
TORSDOF 5
ENDMDL
MODEL 4
REMARK VINA RESULT:      -6.8      1.027      4.634
REMARK  5 active torsions:
REMARK  status: ('A' for Active; 'I' for Inactive)
REMARK    1  A    between atoms: C_11  and  N_2 
REMARK    2  A    between atoms: C_6  and  O_13 
REMARK    3  A    between atoms: C_12  and  C_7 
REMARK    4  A    between atoms: C_16  and  C_11 
REMARK    5  A    between atoms: O_13  and  C_16 
ROOT
ATOM      1  C   UNL d   1      53.729  31.858  54.328  0.00  0.00     0.142 C 
ENDROOT
BRANCH   1   2
ATOM      2  O   UNL d   1      53.693  31.271  53.753  0.00  0.00    -0.304 OA
BRANCH   2   3
ATOM      3  C   UNL d   1      53.440  30.514  53.962  0.00  0.00     0.100 A 
ATOM      4  C   UNL d   1      53.003  30.065  53.430  0.00  0.00     0.023 A 
ATOM      5  C   UNL d   1      52.747  29.312  53.629  0.00  0.00     0.002 A 
ATOM      6  C   UNL d   1      52.935  29.001  54.379  0.00  0.00     0.000 A 
ATOM      7  C   UNL d   1      53.374  29.451  54.915  0.00  0.00     0.002 A 
ATOM      8  C   UNL d   1      53.627  30.208  54.706  0.00  0.00     0.025 A 
ATOM      9  C   UNL d   1      53.559  29.145  55.656  0.00  0.00     0.000 C 
BRANCH   4  10
ATOM     10  C   UNL d   1      52.818  30.375  52.688  0.00  0.00     0.002 C 
ATOM     11  C   UNL d   1      53.315  30.239  52.042  0.00  0.00     0.000 C 
ATOM     12  C   UNL d   1      52.135  30.826  52.583  0.00  0.00     0.000 C 
ENDBRANCH   4  10
ENDBRANCH   2   3
ENDBRANCH   1   2
BRANCH   1  13
ATOM     13  C   UNL d   1      54.232  32.503  54.219  0.00  0.00     0.112 C 
BRANCH  13  14
ATOM     14  N   UNL d   1      53.980  33.257  54.424  0.00  0.00    -0.249 N 
ATOM     15  C   UNL d   1      54.296  33.541  55.140  0.00  0.00     0.378 A 
ATOM     16  O   UNL d   1      53.998  34.301  55.279  0.00  0.00    -0.258 OA
ATOM     17  O   UNL d   1      54.818  33.127  55.624  0.00  0.00    -0.237 OA
ATOM     18  C   UNL d   1      53.491  34.495  54.644  0.00  0.00     0.121 A 
ATOM     19  C   UNL d   1      53.041  35.167  54.477  0.00  0.00     0.026 A 
ATOM     20  C   UNL d   1      53.483  33.848  54.120  0.00  0.00     0.092 A 
ATOM     21  C   UNL d   1      52.585  35.197  53.792  0.00  0.00     0.002 A 
ATOM     22  C   UNL d   1      52.577  34.556  53.273  0.00  0.00     0.002 A 
ATOM     23  C   UNL d   1      53.025  33.879  53.432  0.00  0.00     0.020 A 
ENDBRANCH  13  14
ENDBRANCH   1  13
TORSDOF 5
ENDMDL
MODEL 5
REMARK VINA RESULT:      -6.0      3.152      5.381
REMARK  5 active torsions:
REMARK  status: ('A' for Active; 'I' for Inactive)
REMARK    1  A    between atoms: C_11  and  N_2 
REMARK    2  A    between atoms: C_6  and  O_13 
REMARK    3  A    between atoms: C_12  and  C_7 
REMARK    4  A    between atoms: C_16  and  C_11 
REMARK    5  A    between atoms: O_13  and  C_16 
ROOT
ATOM      1  C   UNL d   1      50.573  34.387  52.787  0.00  0.00     0.142 C 
ENDROOT
BRANCH   1   2
ATOM      2  O   UNL d   1      51.165  33.820  52.848  0.00  0.00    -0.304 OA
BRANCH   2   3
ATOM      3  C   UNL d   1      51.855  33.998  53.263  0.00  0.00     0.100 A 
ATOM      4  C   UNL d   1      52.410  33.409  53.411  0.00  0.00     0.023 A 
ATOM      5  C   UNL d   1      53.100  33.577  53.822  0.00  0.00     0.002 A 
ATOM      6  C   UNL d   1      53.236  34.354  54.091  0.00  0.00     0.000 A 
ATOM      7  C   UNL d   1      52.680  34.947  53.943  0.00  0.00     0.002 A 
ATOM      8  C   UNL d   1      51.989  34.769  53.528  0.00  0.00     0.025 A 
ATOM      9  C   UNL d   1      52.816  35.713  54.208  0.00  0.00     0.000 C 
BRANCH   4  10
ATOM     10  C   UNL d   1      52.272  32.640  53.144  0.00  0.00     0.002 C 
ATOM     11  C   UNL d   1      51.814  32.118  53.590  0.00  0.00     0.000 C 
ATOM     12  C   UNL d   1      52.591  32.386  52.427  0.00  0.00     0.000 C 
ENDBRANCH   4  10
ENDBRANCH   2   3
ENDBRANCH   1   2
BRANCH   1  13
ATOM     13  C   UNL d   1      49.807  34.154  52.589  0.00  0.00     0.112 C 
BRANCH  13  14
ATOM     14  N   UNL d   1      49.249  34.719  52.382  0.00  0.00    -0.249 N 
ATOM     15  C   UNL d   1      49.066  34.739  51.569  0.00  0.00     0.378 A 
ATOM     16  O   UNL d   1      48.501  35.329  51.438  0.00  0.00    -0.258 OA
ATOM     17  O   UNL d   1      49.398  34.247  50.998  0.00  0.00    -0.237 OA
ATOM     18  C   UNL d   1      48.328  35.683  52.175  0.00  0.00     0.121 A 
ATOM     19  C   UNL d   1      47.815  36.293  52.393  0.00  0.00     0.026 A 
ATOM     20  C   UNL d   1      48.791  35.304  52.753  0.00  0.00     0.092 A 
ATOM     21  C   UNL d   1      47.763  36.526  53.180  0.00  0.00     0.002 A 
ATOM     22  C   UNL d   1      48.223  36.150  53.753  0.00  0.00     0.002 A 
ATOM     23  C   UNL d   1      48.739  35.538  53.544  0.00  0.00     0.020 A 
ENDBRANCH  13  14
ENDBRANCH   1  13
TORSDOF 5
ENDMDL
