MODEL 1
REMARK VINA RESULT:      77.0      0.000      0.000
REMARK  5 active torsions:
REMARK  status: ('A' for Active; 'I' for Inactive)
REMARK    1  A    between atoms: C_6  and  C_1 
REMARK    2  A    between atoms: C_9  and  N_2 
REMARK    3  A    between atoms: O_13  and  C_8 
REMARK    4  A    between atoms: O_15  and  C_9 
REMARK    5  A    between atoms: O_14  and  C_10 
ROOT
ATOM      1  C   UNL d   1      59.282  48.732  51.409  0.00  0.00     0.149 A 
ATOM      2  N   UNL d   1      58.789  49.064  51.983  0.00  0.00    -0.269 N 
ATOM      3  N   UNL d   1      58.844  48.728  50.708  0.00  0.00    -0.227 NA
ATOM      4  C   UNL d   1      58.076  49.255  51.647  0.00  0.00     0.085 A 
ATOM      5  C   UNL d   1      58.111  49.038  50.823  0.00  0.00     0.099 A 
ATOM      6  C   UNL d   1      57.416  49.585  51.954  0.00  0.00     0.019 A 
ATOM      7  C   UNL d   1      57.427  49.191  50.378  0.00  0.00     0.021 A 
ATOM      8  C   UNL d   1      56.787  49.707  51.472  0.00  0.00     0.002 A 
ATOM      9  C   UNL d   1      56.820  49.503  50.698  0.00  0.00     0.002 A 
ENDROOT
BRANCH   1  10
ATOM     10  C   UNL d   1      59.942  48.403  51.101  0.00  0.00     0.037 A 
ATOM     11  C   UNL d   1      60.497  48.881  50.721  0.00  0.00     0.029 A 
ATOM     12  C   UNL d   1      61.183  48.555  50.399  0.00  0.00     0.116 A 
ATOM     13  C   UNL d   1      61.316  47.735  50.457  0.00  0.00     0.116 A 
ATOM     14  C   UNL d   1      60.762  47.252  50.837  0.00  0.00     0.026 A 
ATOM     15  C   UNL d   1      60.075  47.583  51.159  0.00  0.00     0.005 A 
BRANCH  12  16
ATOM     16  O   UNL d   1      61.737  49.033  50.020  0.00  0.00    -0.326 OA
ATOM     17  C   UNL d   1      62.042  49.708  50.395  0.00  0.00     0.181 C 
ENDBRANCH  12  16
BRANCH  13  18
ATOM     18  O   UNL d   1      62.002  47.404  50.135  0.00  0.00    -0.326 OA
ATOM     19  C   UNL d   1      61.951  46.739  49.637  0.00  0.00     0.181 C 
ENDBRANCH  13  18
ENDBRANCH   1  10
BRANCH   2  20
ATOM     20  C   UNL d   1      59.121  49.112  52.696  0.00  0.00     0.205 C 
BRANCH  20  21
ATOM     21  O   UNL d   1      59.639  49.707  52.895  0.00  0.00    -0.310 OA
ATOM     22  C   UNL d   1      60.175  49.653  53.512  0.00  0.00     0.183 C 
ENDBRANCH  20  21
ENDBRANCH   2  20
TORSDOF 5
ENDMDL
MODEL 2
REMARK VINA RESULT:      78.2      2.054      4.183
REMARK  5 active torsions:
REMARK  status: ('A' for Active; 'I' for Inactive)
REMARK    1  A    between atoms: C_6  and  C_1 
REMARK    2  A    between atoms: C_9  and  N_2 
REMARK    3  A    between atoms: O_13  and  C_8 
REMARK    4  A    between atoms: O_15  and  C_9 
REMARK    5  A    between atoms: O_14  and  C_10 
ROOT
ATOM      1  C   UNL d   1      61.168  46.850  50.582  0.00  0.00     0.149 A 
ATOM      2  N   UNL d   1      61.443  46.340  49.993  0.00  0.00    -0.269 N 
ATOM      3  N   UNL d   1      60.736  46.381  51.107  0.00  0.00    -0.227 NA
ATOM      4  C   UNL d   1      61.189  45.586  50.151  0.00  0.00     0.085 A 
ATOM      5  C   UNL d   1      60.732  45.613  50.871  0.00  0.00     0.099 A 
ATOM      6  C   UNL d   1      61.299  44.897  49.763  0.00  0.00     0.019 A 
ATOM      7  C   UNL d   1      60.420  44.888  51.129  0.00  0.00     0.021 A 
ATOM      8  C   UNL d   1      60.971  44.229  50.063  0.00  0.00     0.002 A 
ATOM      9  C   UNL d   1      60.542  44.255  50.739  0.00  0.00     0.002 A 
ENDROOT
BRANCH   1  10
ATOM     10  C   UNL d   1      61.058  47.540  50.971  0.00  0.00     0.037 A 
ATOM     11  C   UNL d   1      60.944  48.236  50.541  0.00  0.00     0.029 A 
ATOM     12  C   UNL d   1      60.829  48.955  50.930  0.00  0.00     0.116 A 
ATOM     13  C   UNL d   1      60.828  48.979  51.761  0.00  0.00     0.116 A 
ATOM     14  C   UNL d   1      60.942  48.284  52.196  0.00  0.00     0.026 A 
ATOM     15  C   UNL d   1      61.057  47.564  51.803  0.00  0.00     0.005 A 
BRANCH  12  16
ATOM     16  O   UNL d   1      60.714  49.650  50.500  0.00  0.00    -0.326 OA
ATOM     17  C   UNL d   1      60.150  49.685  49.893  0.00  0.00     0.181 C 
ENDBRANCH  12  16
BRANCH  13  18
ATOM     18  O   UNL d   1      60.713  49.698  52.155  0.00  0.00    -0.326 OA
ATOM     19  C   UNL d   1      60.442  49.705  52.941  0.00  0.00     0.181 C 
ENDBRANCH  13  18
ENDBRANCH   1  10
BRANCH   2  20
ATOM     20  C   UNL d   1      61.873  46.699  49.438  0.00  0.00     0.205 C 
BRANCH  20  21
ATOM     21  O   UNL d   1      62.686  46.707  49.455  0.00  0.00    -0.310 OA
ATOM     22  C   UNL d   1      63.154  46.463  48.829  0.00  0.00     0.183 C 
ENDBRANCH  20  21
ENDBRANCH   2  20
TORSDOF 5
ENDMDL
