MODEL 1
REMARK VINA RESULT:      -4.3      0.000      0.000
REMARK  5 active torsions:
REMARK  status: ('A' for Active; 'I' for Inactive)
REMARK    1  A    between atoms: C_13  and  C_4 
REMARK    2  A    between atoms: C_7  and  S_11 
REMARK    3  A    between atoms: O_14  and  C_7 
REMARK    4  A    between atoms: S_11  and  C_13 
REMARK    5  A    between atoms: C_16  and  O_14 
ROOT
ATOM      1  C   UNL d   1     -41.655-122.519 -53.687  0.00  0.00     0.148 A 
ATOM      2  N   UNL d   1     -41.294-123.255 -53.544  0.00  0.00    -0.288 N 
ATOM      3  N   UNL d   1     -41.699-122.132 -52.945  0.00  0.00    -0.226 NA
ATOM      4  C   UNL d   1     -41.378-122.611 -52.367  0.00  0.00     0.107 A 
ATOM      5  C   UNL d   1     -41.123-123.316 -52.740  0.00  0.00     0.101 A 
ATOM      6  C   UNL d   1     -41.887-122.306 -54.449  0.00  0.00     0.035 A 
ATOM      7  C   UNL d   1     -41.171-123.775 -54.185  0.00  0.00     0.082 A 
ATOM      8  C   UNL d   1     -41.406-123.555 -54.944  0.00  0.00     0.019 A 
ATOM      9  C   UNL d   1     -41.762-122.827 -55.078  0.00  0.00     0.004 A 
ATOM     10  C   UNL d   1     -42.249-121.568 -54.591  0.00  0.00     0.003 C 
ENDROOT
BRANCH   4  11
ATOM     11  C   UNL d   1     -41.311-122.444 -51.562  0.00  0.00     0.059 C 
BRANCH  11  12
ATOM     12  S   UNL d   1     -41.767-122.849 -51.019  0.00  0.00    -0.049 SA
BRANCH  12  13
ATOM     13  C   UNL d   1     -41.725-122.649 -50.212  0.00  0.00     0.185 C 
ATOM     14  S   UNL d   1     -41.127-122.161 -49.949  0.00  0.00    -0.044 SA
BRANCH  13  15
ATOM     15  O   UNL d   1     -42.285-122.946 -49.689  0.00  0.00    -0.288 OA
BRANCH  15  16
ATOM     16  C   UNL d   1     -42.852-123.243 -49.173  0.00  0.00     0.124 C 
ATOM     17  C   UNL d   1     -42.662-123.370 -48.377  0.00  0.00     0.029 C 
ENDBRANCH  15  16
ENDBRANCH  13  15
ENDBRANCH  12  13
ENDBRANCH  11  12
ENDBRANCH   4  11
TORSDOF 5
ENDMDL
MODEL 2
REMARK VINA RESULT:      -4.2      0.540      1.186
REMARK  5 active torsions:
REMARK  status: ('A' for Active; 'I' for Inactive)
REMARK    1  A    between atoms: C_13  and  C_4 
REMARK    2  A    between atoms: C_7  and  S_11 
REMARK    3  A    between atoms: O_14  and  C_7 
REMARK    4  A    between atoms: S_11  and  C_13 
REMARK    5  A    between atoms: C_16  and  O_14 
ROOT
ATOM      1  C   UNL d   1     -41.588-122.686 -53.814  0.00  0.00     0.148 A 
ATOM      2  N   UNL d   1     -41.950-121.941 -53.743  0.00  0.00    -0.288 N 
ATOM      3  N   UNL d   1     -41.347-122.905 -53.041  0.00  0.00    -0.226 NA
ATOM      4  C   UNL d   1     -41.554-122.315 -52.515  0.00  0.00     0.107 A 
ATOM      5  C   UNL d   1     -41.932-121.710 -52.952  0.00  0.00     0.101 A 
ATOM      6  C   UNL d   1     -41.527-123.055 -54.549  0.00  0.00     0.035 A 
ATOM      7  C   UNL d   1     -42.251-121.571 -54.428  0.00  0.00     0.082 A 
ATOM      8  C   UNL d   1     -42.186-121.946 -55.159  0.00  0.00     0.019 A 
ATOM      9  C   UNL d   1     -41.828-122.683 -55.222  0.00  0.00     0.004 A 
ATOM     10  C   UNL d   1     -41.164-123.803 -54.619  0.00  0.00     0.003 C 
ENDROOT
BRANCH   4  11
ATOM     11  C   UNL d   1     -41.421-122.307 -51.701  0.00  0.00     0.059 C 
BRANCH  11  12
ATOM     12  S   UNL d   1     -42.043-122.412 -51.182  0.00  0.00    -0.049 SA
BRANCH  12  13
ATOM     13  C   UNL d   1     -41.891-122.641 -50.395  0.00  0.00     0.185 C 
ATOM     14  S   UNL d   1     -41.123-122.671 -50.126  0.00  0.00    -0.044 SA
BRANCH  13  15
ATOM     15  O   UNL d   1     -42.518-122.834 -49.900  0.00  0.00    -0.288 OA
BRANCH  15  16
ATOM     16  C   UNL d   1     -43.146-123.035 -49.409  0.00  0.00     0.124 C 
ATOM     17  C   UNL d   1     -43.039-123.067 -48.589  0.00  0.00     0.029 C 
ENDBRANCH  15  16
ENDBRANCH  13  15
ENDBRANCH  12  13
ENDBRANCH  11  12
ENDBRANCH   4  11
TORSDOF 5
ENDMDL
MODEL 3
REMARK VINA RESULT:      -1.3      1.318      2.035
REMARK  5 active torsions:
REMARK  status: ('A' for Active; 'I' for Inactive)
REMARK    1  A    between atoms: C_13  and  C_4 
REMARK    2  A    between atoms: C_7  and  S_11 
REMARK    3  A    between atoms: O_14  and  C_7 
REMARK    4  A    between atoms: S_11  and  C_13 
REMARK    5  A    between atoms: C_16  and  O_14 
ROOT
ATOM      1  C   UNL d   1     -41.160-122.925 -52.089  0.00  0.00     0.148 A 
ATOM      2  N   UNL d   1     -41.162-122.176 -51.727  0.00  0.00    -0.288 N 
ATOM      3  N   UNL d   1     -41.145-123.485 -51.466  0.00  0.00    -0.226 NA
ATOM      4  C   UNL d   1     -41.138-123.096 -50.749  0.00  0.00     0.107 A 
ATOM      5  C   UNL d   1     -41.148-122.275 -50.909  0.00  0.00     0.101 A 
ATOM      6  C   UNL d   1     -41.173-122.994 -52.910  0.00  0.00     0.035 A 
ATOM      7  C   UNL d   1     -41.176-121.495 -52.209  0.00  0.00     0.082 A 
ATOM      8  C   UNL d   1     -41.188-121.572 -53.030  0.00  0.00     0.019 A 
ATOM      9  C   UNL d   1     -41.186-122.315 -53.381  0.00  0.00     0.004 A 
ATOM     10  C   UNL d   1     -41.171-123.745 -53.273  0.00  0.00     0.003 C 
ENDROOT
BRANCH   4  11
ATOM     11  C   UNL d   1     -41.123-123.437 -49.998  0.00  0.00     0.059 C 
BRANCH  11  12
ATOM     12  S   UNL d   1     -41.822-123.611 -49.612  0.00  0.00    -0.049 SA
BRANCH  12  13
ATOM     13  C   UNL d   1     -41.832-123.669 -48.781  0.00  0.00     0.185 C 
ATOM     14  S   UNL d   1     -41.137-123.809 -48.378  0.00  0.00    -0.044 SA
BRANCH  13  15
ATOM     15  O   UNL d   1     -42.542-123.583 -48.376  0.00  0.00    -0.288 OA
BRANCH  15  16
ATOM     16  C   UNL d   1     -43.252-123.506 -47.968  0.00  0.00     0.124 C 
ATOM     17  C   UNL d   1     -43.952-123.805 -48.293  0.00  0.00     0.029 C 
ENDBRANCH  15  16
ENDBRANCH  13  15
ENDBRANCH  12  13
ENDBRANCH  11  12
ENDBRANCH   4  11
TORSDOF 5
ENDMDL
