MODEL 1
REMARK VINA RESULT:      31.5      0.000      0.000
REMARK  3 active torsions:
REMARK  status: ('A' for Active; 'I' for Inactive)
REMARK    1  A    between atoms: C_6  and  N_1 
REMARK    2  A    between atoms: C_2  and  C_8 
REMARK    3  A    between atoms: N_3  and  C_2 
REMARK       I    between atoms: C_5  and  N_4 
ROOT
ATOM      1  C   UNL d   1      13.183  12.395  -3.734  0.00  0.00     0.120 C 
ATOM      2  S   UNL d   1      12.838  11.780  -4.164  0.00  0.00    -0.059 SA
ENDROOT
BRANCH   1   3
ATOM      3  C   UNL d   1      13.250  13.143  -4.069  0.00  0.00     0.027 A 
ATOM      4  C   UNL d   1      12.785  13.765  -3.788  0.00  0.00     0.004 A 
ATOM      5  C   UNL d   1      12.854  14.517  -4.126  0.00  0.00     0.024 A 
ATOM      6  C   UNL d   1      13.387  14.645  -4.741  0.00  0.00     0.127 A 
ATOM      7  C   UNL d   1      13.852  14.024  -5.022  0.00  0.00     0.024 A 
ATOM      8  C   UNL d   1      13.784  13.275  -4.687  0.00  0.00     0.004 A 
BRANCH   6   9
ATOM      9  N   UNL d   1      13.454  15.395  -5.076  0.00  0.00    -0.114 N 
ATOM     10  O   UNL d   1      14.126  15.830  -4.867  0.00  0.00    -0.532 OA
ATOM     11  O   UNL d   1      12.897  15.721  -5.595  0.00  0.00    -0.532 OA
ENDBRANCH   6   9
ENDBRANCH   1   3
BRANCH   1  12
ATOM     12  N   UNL d   1      13.460  12.260  -2.970  0.00  0.00    -0.293 N 
ATOM     13  C   UNL d   1      12.925  12.187  -2.339  0.00  0.00     0.100 A 
ATOM     14  C   UNL d   1      13.203  12.052  -1.576  0.00  0.00     0.102 A 
ATOM     15  N   UNL d   1      14.013  11.988  -1.436  0.00  0.00    -0.269 N 
ATOM     16  C   UNL d   1      14.548  12.061  -2.067  0.00  0.00     0.102 A 
ATOM     17  C   UNL d   1      14.291  11.853  -0.672  0.00  0.00     0.265 C 
ATOM     18  C   UNL d   1      14.270  12.197  -2.831  0.00  0.00     0.100 A 
ATOM     19  O   UNL d   1      15.102  11.790  -0.532  0.00  0.00    -0.267 OA
ATOM     20  C   UNL d   1      13.761  11.780  -0.044  0.00  0.00     0.066 C 
ENDBRANCH   1  12
TORSDOF 3
ENDMDL
