MODEL 1
REMARK VINA RESULT:      16.6      0.000      0.000
REMARK  0 active torsions:
REMARK  status: ('A' for Active; 'I' for Inactive)
ROOT
ATOM      1  C   UNL d   1     -52.274  25.505  33.336  0.00  0.00     0.267 A 
ATOM      2  N   UNL d   1     -51.723  26.085  33.337  0.00  0.00    -0.270 N 
ATOM      3  C   UNL d   1     -52.156  24.833  33.328  0.00  0.00     0.081 A 
ATOM      4  C   UNL d   1     -51.479  24.371  33.316  0.00  0.00     0.105 A 
ATOM      5  O   UNL d   1     -50.786  24.514  33.310  0.00  0.00    -0.305 OA
ATOM      6  C   UNL d   1     -50.897  25.974  33.327  0.00  0.00     0.090 A 
ATOM      7  C   UNL d   1     -50.461  25.246  33.315  0.00  0.00     0.116 A 
ATOM      8  C   UNL d   1     -52.893  24.479  33.331  0.00  0.00     0.028 A 
ATOM      9  O   UNL d   1     -53.061  25.740  33.347  0.00  0.00    -0.267 OA
ATOM     10  C   UNL d   1     -51.539  23.556  33.307  0.00  0.00     0.026 A 
ATOM     11  C   UNL d   1     -52.958  23.657  33.323  0.00  0.00     0.103 A 
ATOM     12  C   UNL d   1     -51.993  26.856  33.348  0.00  0.00     0.102 C 
ATOM     13  N   UNL d   1     -53.699  23.305  33.327  0.00  0.00    -0.148 N 
ATOM     14  C   UNL d   1     -52.281  23.195  33.311  0.00  0.00     0.023 A 
ATOM     15  C   UNL d   1     -50.484  26.713  33.331  0.00  0.00     0.020 A 
ATOM     16  C   UNL d   1     -49.624  25.261  33.306  0.00  0.00     0.026 A 
ATOM     17  C   UNL d   1     -49.639  26.725  33.323  0.00  0.00     0.002 A 
ATOM     18  C   UNL d   1     -49.206  25.994  33.310  0.00  0.00     0.002 A 
ENDROOT
TORSDOF 0
ENDMDL
MODEL 2
REMARK VINA RESULT:      18.5      1.018      2.968
REMARK  0 active torsions:
REMARK  status: ('A' for Active; 'I' for Inactive)
ROOT
ATOM      1  C   UNL d   1     -51.367  25.785  33.308  0.00  0.00     0.267 A 
ATOM      2  N   UNL d   1     -52.132  25.550  33.308  0.00  0.00    -0.270 N 
ATOM      3  C   UNL d   1     -50.818  25.379  33.309  0.00  0.00     0.081 A 
ATOM      4  C   UNL d   1     -50.707  24.567  33.311  0.00  0.00     0.105 A 
ATOM      5  O   UNL d   1     -51.145  24.010  33.312  0.00  0.00    -0.305 OA
ATOM      6  C   UNL d   1     -52.401  24.762  33.310  0.00  0.00     0.090 A 
ATOM      7  C   UNL d   1     -51.945  24.047  33.312  0.00  0.00     0.116 A 
ATOM      8  C   UNL d   1     -50.173  25.880  33.308  0.00  0.00     0.028 A 
ATOM      9  O   UNL d   1     -51.226  26.593  33.306  0.00  0.00    -0.267 OA
ATOM     10  C   UNL d   1     -49.952  24.256  33.312  0.00  0.00     0.026 A 
ATOM     11  C   UNL d   1     -49.408  25.571  33.309  0.00  0.00     0.103 A 
ATOM     12  C   UNL d   1     -52.702  26.137  33.307  0.00  0.00     0.102 C 
ATOM     13  N   UNL d   1     -48.762  26.077  33.308  0.00  0.00    -0.148 N 
ATOM     14  C   UNL d   1     -49.297  24.759  33.311  0.00  0.00     0.023 A 
ATOM     15  C   UNL d   1     -53.248  24.722  33.310  0.00  0.00     0.020 A 
ATOM     16  C   UNL d   1     -52.332  23.305  33.313  0.00  0.00     0.026 A 
ATOM     17  C   UNL d   1     -53.635  23.972  33.311  0.00  0.00     0.002 A 
ATOM     18  C   UNL d   1     -53.174  23.258  33.313  0.00  0.00     0.002 A 
ENDROOT
TORSDOF 0
ENDMDL
