MODEL 1
REMARK VINA RESULT:      -3.2      0.000      0.000
REMARK  1 active torsions:
REMARK  status: ('A' for Active; 'I' for Inactive)
REMARK    1  A    between atoms: C_9  and  C_5 
ROOT
ATOM      1  C   UNL d   1      57.847  -0.652  30.785  0.00  0.00     0.062 A 
ATOM      2  C   UNL d   1      57.912  -1.277  30.275  0.00  0.00     0.197 A 
ATOM      3  C   UNL d   1      58.373   0.010  30.692  0.00  0.00     0.044 A 
ATOM      4  C   UNL d   1      57.270  -0.669  31.385  0.00  0.00     0.112 A 
ATOM      5  C   UNL d   1      57.233  -0.008  31.890  0.00  0.00     0.084 A 
ATOM      6  C   UNL d   1      58.941   0.015  30.094  0.00  0.00     0.196 A 
ATOM      7  C   UNL d   1      58.493  -1.285  29.653  0.00  0.00     0.042 A 
ATOM      8  C   UNL d   1      59.000  -0.647  29.564  0.00  0.00     0.042 A 
ATOM      9  C   UNL d   1      58.327   0.659  31.199  0.00  0.00     0.004 A 
ATOM     10  C   UNL d   1      57.782   0.682  31.793  0.00  0.00     0.008 A 
ATOM     11  O   UNL d   1      57.386  -1.938  30.367  0.00  0.00    -0.286 OA
ATOM     12  O   UNL d   1      59.471   0.682  30.000  0.00  0.00    -0.287 OA
ATOM     13  N   UNL d   1      56.772  -1.295  31.473  0.00  0.00    -0.148 N 
ATOM     14  C   UNL d   1      58.539  -1.934  29.147  0.00  0.00     0.003 A 
ATOM     15  C   UNL d   1      59.568  -0.641  28.966  0.00  0.00     0.003 A 
ATOM     16  C   UNL d   1      59.088  -1.952  28.551  0.00  0.00     0.000 A 
ATOM     17  C   UNL d   1      59.614  -1.291  28.458  0.00  0.00     0.000 A 
ENDROOT
BRANCH   5  18
ATOM     18  C   UNL d   1      56.662  -0.041  32.474  0.00  0.00     0.212 C 
ATOM     19  O   UNL d   1      56.888  -0.328  33.197  0.00  0.00    -0.644 OA
ATOM     20  O   UNL d   1      55.883   0.216  32.308  0.00  0.00    -0.644 OA
ENDBRANCH   5  18
TORSDOF 1
ENDMDL
MODEL 2
REMARK VINA RESULT:      -3.1      1.374      2.055
REMARK  1 active torsions:
REMARK  status: ('A' for Active; 'I' for Inactive)
REMARK    1  A    between atoms: C_9  and  C_5 
ROOT
ATOM      1  C   UNL d   1      59.002  -1.086  29.651  0.00  0.00     0.062 A 
ATOM      2  C   UNL d   1      58.979  -1.889  29.553  0.00  0.00     0.197 A 
ATOM      3  C   UNL d   1      59.680  -0.657  29.372  0.00  0.00     0.044 A 
ATOM      4  C   UNL d   1      58.364  -0.699  30.022  0.00  0.00     0.112 A 
ATOM      5  C   UNL d   1      58.422   0.127  30.105  0.00  0.00     0.084 A 
ATOM      6  C   UNL d   1      60.306  -1.051  29.007  0.00  0.00     0.196 A 
ATOM      7  C   UNL d   1      59.617  -2.309  29.179  0.00  0.00     0.042 A 
ATOM      8  C   UNL d   1      60.272  -1.895  28.909  0.00  0.00     0.042 A 
ATOM      9  C   UNL d   1      59.727   0.162  29.461  0.00  0.00     0.004 A 
ATOM     10  C   UNL d   1      59.131   0.575  29.814  0.00  0.00     0.008 A 
ATOM     11  O   UNL d   1      58.300  -2.318  29.833  0.00  0.00    -0.286 OA
ATOM     12  O   UNL d   1      60.991  -0.619  28.725  0.00  0.00    -0.287 OA
ATOM     13  N   UNL d   1      57.721  -1.105  30.286  0.00  0.00    -0.148 N 
ATOM     14  C   UNL d   1      59.570  -3.127  29.090  0.00  0.00     0.003 A 
ATOM     15  C   UNL d   1      60.897  -2.289  28.544  0.00  0.00     0.003 A 
ATOM     16  C   UNL d   1      60.172  -3.537  28.735  0.00  0.00     0.000 A 
ATOM     17  C   UNL d   1      60.851  -3.109  28.455  0.00  0.00     0.000 A 
ENDROOT
BRANCH   5  18
ATOM     18  C   UNL d   1      57.788   0.491  30.470  0.00  0.00     0.212 C 
ATOM     19  O   UNL d   1      57.152   0.682  30.004  0.00  0.00    -0.644 OA
ATOM     20  O   UNL d   1      57.816   0.651  31.291  0.00  0.00    -0.644 OA
ENDBRANCH   5  18
TORSDOF 1
ENDMDL
MODEL 3
REMARK VINA RESULT:      -3.0      9.392      9.699
REMARK  1 active torsions:
REMARK  status: ('A' for Active; 'I' for Inactive)
REMARK    1  A    between atoms: C_9  and  C_5 
ROOT
ATOM      1  C   UNL d   1      59.557  -9.420  33.962  0.00  0.00     0.062 A 
ATOM      2  C   UNL d   1      58.810  -9.504  33.661  0.00  0.00     0.197 A 
ATOM      3  C   UNL d   1      60.219  -9.440  33.429  0.00  0.00     0.044 A 
ATOM      4  C   UNL d   1      59.660  -9.316  34.782  0.00  0.00     0.112 A 
ATOM      5  C   UNL d   1      60.442  -9.233  35.055  0.00  0.00     0.084 A 
ATOM      6  C   UNL d   1      60.104  -9.543  32.619  0.00  0.00     0.196 A 
ATOM      7  C   UNL d   1      58.677  -9.612  32.828  0.00  0.00     0.042 A 
ATOM      8  C   UNL d   1      59.315  -9.631  32.314  0.00  0.00     0.042 A 
ATOM      9  C   UNL d   1      60.990  -9.356  33.712  0.00  0.00     0.004 A 
ATOM     10  C   UNL d   1      61.133  -9.254  34.499  0.00  0.00     0.008 A 
ATOM     11  O   UNL d   1      58.148  -9.485  34.194  0.00  0.00    -0.286 OA
ATOM     12  O   UNL d   1      60.772  -9.563  32.082  0.00  0.00    -0.287 OA
ATOM     13  N   UNL d   1      59.033  -9.298  35.287  0.00  0.00    -0.148 N 
ATOM     14  C   UNL d   1      57.907  -9.695  32.545  0.00  0.00     0.003 A 
ATOM     15  C   UNL d   1      59.201  -9.734  31.504  0.00  0.00     0.003 A 
ATOM     16  C   UNL d   1      57.768  -9.798  31.753  0.00  0.00     0.000 A 
ATOM     17  C   UNL d   1      58.430  -9.818  31.221  0.00  0.00     0.000 A 
ENDROOT
BRANCH   5  18
ATOM     18  C   UNL d   1      60.525  -9.132  35.862  0.00  0.00     0.212 C 
ATOM     19  O   UNL d   1      60.695  -9.792  36.302  0.00  0.00    -0.644 OA
ATOM     20  O   UNL d   1      60.435  -8.371  36.197  0.00  0.00    -0.644 OA
ENDBRANCH   5  18
TORSDOF 1
ENDMDL
MODEL 4
REMARK VINA RESULT:      -2.4      1.254      3.476
REMARK  1 active torsions:
REMARK  status: ('A' for Active; 'I' for Inactive)
REMARK    1  A    between atoms: C_9  and  C_5 
ROOT
ATOM      1  C   UNL d   1      57.602  -0.445  31.350  0.00  0.00     0.062 A 
ATOM      2  C   UNL d   1      57.002  -0.974  31.477  0.00  0.00     0.197 A 
ATOM      3  C   UNL d   1      57.793   0.114  31.961  0.00  0.00     0.044 A 
ATOM      4  C   UNL d   1      58.016  -0.460  30.627  0.00  0.00     0.112 A 
ATOM      5  C   UNL d   1      58.626   0.099  30.532  0.00  0.00     0.084 A 
ATOM      6  C   UNL d   1      57.376   0.118  32.672  0.00  0.00     0.196 A 
ATOM      7  C   UNL d   1      56.564  -0.981  32.206  0.00  0.00     0.042 A 
ATOM      8  C   UNL d   1      56.748  -0.442  32.795  0.00  0.00     0.042 A 
ATOM      9  C   UNL d   1      58.400   0.663  31.854  0.00  0.00     0.004 A 
ATOM     10  C   UNL d   1      58.825   0.682  31.170  0.00  0.00     0.008 A 
ATOM     11  O   UNL d   1      56.811  -1.533  30.866  0.00  0.00    -0.286 OA
ATOM     12  O   UNL d   1      57.569   0.682  33.288  0.00  0.00    -0.287 OA
ATOM     13  N   UNL d   1      57.835  -0.989  30.048  0.00  0.00    -0.148 N 
ATOM     14  C   UNL d   1      55.957  -1.530  32.311  0.00  0.00     0.003 A 
ATOM     15  C   UNL d   1      56.331  -0.437  33.507  0.00  0.00     0.003 A 
ATOM     16  C   UNL d   1      55.533  -1.545  33.002  0.00  0.00     0.000 A 
ATOM     17  C   UNL d   1      55.724  -0.986  33.613  0.00  0.00     0.000 A 
ENDROOT
BRANCH   5  18
ATOM     18  C   UNL d   1      59.022   0.071  29.817  0.00  0.00     0.212 C 
ATOM     19  O   UNL d   1      58.753   0.556  29.226  0.00  0.00    -0.644 OA
ATOM     20  O   UNL d   1      59.674  -0.444  29.724  0.00  0.00    -0.644 OA
ENDBRANCH   5  18
TORSDOF 1
ENDMDL
MODEL 5
REMARK VINA RESULT:      -2.1      1.605      2.073
REMARK  1 active torsions:
REMARK  status: ('A' for Active; 'I' for Inactive)
REMARK    1  A    between atoms: C_9  and  C_5 
ROOT
ATOM      1  C   UNL d   1      57.299   0.282  32.011  0.00  0.00     0.062 A 
ATOM      2  C   UNL d   1      57.387   0.281  31.206  0.00  0.00     0.197 A 
ATOM      3  C   UNL d   1      57.982   0.417  32.498  0.00  0.00     0.044 A 
ATOM      4  C   UNL d   1      56.546   0.151  32.343  0.00  0.00     0.112 A 
ATOM      5  C   UNL d   1      56.494   0.159  33.173  0.00  0.00     0.084 A 
ATOM      6  C   UNL d   1      58.722   0.546  32.159  0.00  0.00     0.196 A 
ATOM      7  C   UNL d   1      58.144   0.412  30.842  0.00  0.00     0.042 A 
ATOM      8  C   UNL d   1      58.803   0.542  31.312  0.00  0.00     0.042 A 
ATOM      9  C   UNL d   1      57.918   0.423  33.321  0.00  0.00     0.004 A 
ATOM     10  C   UNL d   1      57.207   0.300  33.682  0.00  0.00     0.008 A 
ATOM     11  O   UNL d   1      56.703   0.146  30.719  0.00  0.00    -0.286 OA
ATOM     12  O   UNL d   1      59.411   0.682  32.650  0.00  0.00    -0.287 OA
ATOM     13  N   UNL d   1      55.899   0.023  31.881  0.00  0.00    -0.148 N 
ATOM     14  C   UNL d   1      58.208   0.406  30.020  0.00  0.00     0.003 A 
ATOM     15  C   UNL d   1      59.544   0.671  30.973  0.00  0.00     0.003 A 
ATOM     16  C   UNL d   1      58.925   0.530  29.663  0.00  0.00     0.000 A 
ATOM     17  C   UNL d   1      59.608   0.665  30.150  0.00  0.00     0.000 A 
ENDROOT
BRANCH   5  18
ATOM     18  C   UNL d   1      55.748   0.029  33.482  0.00  0.00     0.212 C 
ATOM     19  O   UNL d   1      55.261   0.673  33.555  0.00  0.00    -0.644 OA
ATOM     20  O   UNL d   1      55.520  -0.743  33.706  0.00  0.00    -0.644 OA
ENDBRANCH   5  18
TORSDOF 1
ENDMDL
MODEL 6
REMARK VINA RESULT:      -2.1      1.807      4.075
REMARK  1 active torsions:
REMARK  status: ('A' for Active; 'I' for Inactive)
REMARK    1  A    between atoms: C_9  and  C_5 
ROOT
ATOM      1  C   UNL d   1      57.253   0.676  31.983  0.00  0.00     0.062 A 
ATOM      2  C   UNL d   1      56.457   0.674  32.132  0.00  0.00     0.197 A 
ATOM      3  C   UNL d   1      57.794   0.678  32.638  0.00  0.00     0.044 A 
ATOM      4  C   UNL d   1      57.523   0.675  31.195  0.00  0.00     0.112 A 
ATOM      5  C   UNL d   1      58.347   0.677  31.080  0.00  0.00     0.084 A 
ATOM      6  C   UNL d   1      57.515   0.679  33.414  0.00  0.00     0.196 A 
ATOM      7  C   UNL d   1      56.155   0.675  32.928  0.00  0.00     0.042 A 
ATOM      8  C   UNL d   1      56.677   0.677  33.560  0.00  0.00     0.042 A 
ATOM      9  C   UNL d   1      58.609   0.680  32.511  0.00  0.00     0.004 A 
ATOM     10  C   UNL d   1      58.912   0.680  31.764  0.00  0.00     0.008 A 
ATOM     11  O   UNL d   1      55.916   0.671  31.477  0.00  0.00    -0.286 OA
ATOM     12  O   UNL d   1      58.060   0.682  34.075  0.00  0.00    -0.287 OA
ATOM     13  N   UNL d   1      57.011   0.672  30.574  0.00  0.00    -0.148 N 
ATOM     14  C   UNL d   1      55.340   0.673  33.054  0.00  0.00     0.003 A 
ATOM     15  C   UNL d   1      56.398   0.678  34.336  0.00  0.00     0.003 A 
ATOM     16  C   UNL d   1      55.041   0.673  33.807  0.00  0.00     0.000 A 
ATOM     17  C   UNL d   1      55.582   0.676  34.463  0.00  0.00     0.000 A 
ENDROOT
BRANCH   5  18
ATOM     18  C   UNL d   1      58.595   0.676  30.301  0.00  0.00     0.212 C 
ATOM     19  O   UNL d   1      59.395   0.672  30.167  0.00  0.00    -0.644 OA
ATOM     20  O   UNL d   1      58.030   0.680  29.685  0.00  0.00    -0.644 OA
ENDBRANCH   5  18
TORSDOF 1
ENDMDL
MODEL 7
REMARK VINA RESULT:      -2.0      1.923      2.552
REMARK  1 active torsions:
REMARK  status: ('A' for Active; 'I' for Inactive)
REMARK    1  A    between atoms: C_9  and  C_5 
ROOT
ATOM      1  C   UNL d   1      57.589   0.655  32.423  0.00  0.00     0.062 A 
ATOM      2  C   UNL d   1      58.393   0.667  32.328  0.00  0.00     0.197 A 
ATOM      3  C   UNL d   1      57.094   0.641  31.733  0.00  0.00     0.044 A 
ATOM      4  C   UNL d   1      57.267   0.656  33.192  0.00  0.00     0.112 A 
ATOM      5  C   UNL d   1      56.437   0.642  33.251  0.00  0.00     0.084 A 
ATOM      6  C   UNL d   1      57.424   0.640  30.978  0.00  0.00     0.196 A 
ATOM      7  C   UNL d   1      58.748   0.667  31.555  0.00  0.00     0.042 A 
ATOM      8  C   UNL d   1      58.270   0.653  30.889  0.00  0.00     0.042 A 
ATOM      9  C   UNL d   1      56.272   0.628  31.805  0.00  0.00     0.004 A 
ATOM     10  C   UNL d   1      55.920   0.628  32.531  0.00  0.00     0.008 A 
ATOM     11  O   UNL d   1      58.889   0.681  33.018  0.00  0.00    -0.286 OA
ATOM     12  O   UNL d   1      56.925   0.626  30.281  0.00  0.00    -0.287 OA
ATOM     13  N   UNL d   1      57.736   0.669  33.846  0.00  0.00    -0.148 N 
ATOM     14  C   UNL d   1      59.569   0.680  31.483  0.00  0.00     0.003 A 
ATOM     15  C   UNL d   1      58.600   0.653  30.133  0.00  0.00     0.003 A 
ATOM     16  C   UNL d   1      59.918   0.679  30.751  0.00  0.00     0.000 A 
ATOM     17  C   UNL d   1      59.423   0.666  30.061  0.00  0.00     0.000 A 
ENDROOT
BRANCH   5  18
ATOM     18  C   UNL d   1      56.137   0.644  34.012  0.00  0.00     0.212 C 
ATOM     19  O   UNL d   1      55.330   0.665  34.091  0.00  0.00    -0.644 OA
ATOM     20  O   UNL d   1      56.660   0.623  34.664  0.00  0.00    -0.644 OA
ENDBRANCH   5  18
TORSDOF 1
ENDMDL
MODEL 8
REMARK VINA RESULT:      -1.8      2.111      3.994
REMARK  1 active torsions:
REMARK  status: ('A' for Active; 'I' for Inactive)
REMARK    1  A    between atoms: C_9  and  C_5 
ROOT
ATOM      1  C   UNL d   1      59.618  -2.182  29.069  0.00  0.00     0.062 A 
ATOM      2  C   UNL d   1      58.942  -1.846  29.363  0.00  0.00     0.197 A 
ATOM      3  C   UNL d   1      60.272  -1.679  28.865  0.00  0.00     0.044 A 
ATOM      4  C   UNL d   1      59.657  -3.009  28.974  0.00  0.00     0.112 A 
ATOM      5  C   UNL d   1      60.367  -3.319  28.670  0.00  0.00     0.084 A 
ATOM      6  C   UNL d   1      60.221  -0.862  28.963  0.00  0.00     0.196 A 
ATOM      7  C   UNL d   1      58.876  -1.005  29.470  0.00  0.00     0.042 A 
ATOM      8  C   UNL d   1      59.507  -0.519  29.273  0.00  0.00     0.042 A 
ATOM      9  C   UNL d   1      60.971  -1.999  28.564  0.00  0.00     0.004 A 
ATOM     10  C   UNL d   1      61.050  -2.794  28.457  0.00  0.00     0.008 A 
ATOM     11  O   UNL d   1      58.288  -2.349  29.567  0.00  0.00    -0.286 OA
ATOM     12  O   UNL d   1      60.880  -0.355  28.757  0.00  0.00    -0.287 OA
ATOM     13  N   UNL d   1      59.038  -3.485  29.168  0.00  0.00    -0.148 N 
ATOM     14  C   UNL d   1      58.178  -0.686  29.771  0.00  0.00     0.003 A 
ATOM     15  C   UNL d   1      59.456   0.298  29.371  0.00  0.00     0.003 A 
ATOM     16  C   UNL d   1      58.103   0.114  29.877  0.00  0.00     0.000 A 
ATOM     17  C   UNL d   1      58.757   0.617  29.672  0.00  0.00     0.000 A 
ENDROOT
BRANCH   5  18
ATOM     18  C   UNL d   1      60.389  -4.131  28.583  0.00  0.00     0.212 C 
ATOM     19  O   UNL d   1      61.116  -4.489  28.627  0.00  0.00    -0.644 OA
ATOM     20  O   UNL d   1      59.680  -4.555  28.455  0.00  0.00    -0.644 OA
ENDBRANCH   5  18
TORSDOF 1
ENDMDL
MODEL 9
REMARK VINA RESULT:      -1.3      1.421      3.864
REMARK  1 active torsions:
REMARK  status: ('A' for Active; 'I' for Inactive)
REMARK    1  A    between atoms: C_9  and  C_5 
ROOT
ATOM      1  C   UNL d   1      58.349   0.173  31.442  0.00  0.00     0.062 A 
ATOM      2  C   UNL d   1      58.404   0.415  32.213  0.00  0.00     0.197 A 
ATOM      3  C   UNL d   1      57.598  -0.093  31.148  0.00  0.00     0.044 A 
ATOM      4  C   UNL d   1      59.026   0.190  30.957  0.00  0.00     0.112 A 
ATOM      5  C   UNL d   1      58.932  -0.067  30.171  0.00  0.00     0.084 A 
ATOM      6  C   UNL d   1      56.934  -0.105  31.638  0.00  0.00     0.196 A 
ATOM      7  C   UNL d   1      57.728   0.409  32.729  0.00  0.00     0.042 A 
ATOM      8  C   UNL d   1      57.003   0.152  32.445  0.00  0.00     0.042 A 
ATOM      9  C   UNL d   1      57.517  -0.345  30.366  0.00  0.00     0.004 A 
ATOM     10  C   UNL d   1      58.148  -0.345  29.864  0.00  0.00     0.008 A 
ATOM     11  O   UNL d   1      59.156   0.682  32.507  0.00  0.00    -0.286 OA
ATOM     12  O   UNL d   1      56.176  -0.374  31.341  0.00  0.00    -0.287 OA
ATOM     13  N   UNL d   1      59.738   0.442  31.235  0.00  0.00    -0.148 N 
ATOM     14  C   UNL d   1      57.810   0.660  33.510  0.00  0.00     0.003 A 
ATOM     15  C   UNL d   1      56.340   0.140  32.935  0.00  0.00     0.003 A 
ATOM     16  C   UNL d   1      57.172   0.658  34.011  0.00  0.00     0.000 A 
ATOM     17  C   UNL d   1      56.421   0.392  33.717  0.00  0.00     0.000 A 
ENDROOT
BRANCH   5  18
ATOM     18  C   UNL d   1      59.606  -0.044  29.708  0.00  0.00     0.212 C 
ATOM     19  O   UNL d   1      59.842   0.681  29.434  0.00  0.00    -0.644 OA
ATOM     20  O   UNL d   1      60.017  -0.752  29.539  0.00  0.00    -0.644 OA
ENDBRANCH   5  18
TORSDOF 1
ENDMDL
