MODEL 1
REMARK VINA RESULT:       1.3      0.000      0.000
REMARK  8 active torsions:
REMARK  status: ('A' for Active; 'I' for Inactive)
REMARK    1  A    between atoms: C_4  and  N_1 
REMARK    2  A    between atoms: C_10  and  C_2 
REMARK    3  A    between atoms: N_14  and  C_4 
REMARK    4  A    between atoms: O_17  and  C_8 
REMARK    5  A    between atoms: O_15  and  C_10 
REMARK    6  A    between atoms: O_18  and  C_11 
REMARK    7  A    between atoms: C_16  and  O_15 
REMARK    8  A    between atoms: C_25  and  C_19 
ROOT
ATOM      1  N   UNL d   1      58.107   0.131  30.883  0.00  0.00    -0.280 N 
ATOM      2  C   UNL d   1      57.618  -0.531  30.935  0.00  0.00     0.091 A 
ATOM      3  C   UNL d   1      57.153  -0.639  31.598  0.00  0.00     0.020 A 
ATOM      4  C   UNL d   1      57.171  -0.091  32.214  0.00  0.00     0.005 A 
ATOM      5  C   UNL d   1      56.665  -1.299  31.648  0.00  0.00     0.028 A 
ATOM      6  C   UNL d   1      58.125   0.680  31.499  0.00  0.00     0.082 A 
ATOM      7  C   UNL d   1      56.194  -1.413  32.316  0.00  0.00     0.116 A 
ATOM      8  C   UNL d   1      56.702  -0.202  32.880  0.00  0.00     0.026 A 
ATOM      9  C   UNL d   1      56.212  -0.864  32.931  0.00  0.00     0.116 A 
ATOM     10  C   UNL d   1      57.654   0.567  32.167  0.00  0.00     0.019 A 
ENDROOT
BRANCH   2  11
ATOM     11  C   UNL d   1      57.600  -1.080  30.320  0.00  0.00     0.140 C 
BRANCH  11  12
ATOM     12  O   UNL d   1      57.737  -1.879  30.475  0.00  0.00    -0.304 OA
BRANCH  12  13
ATOM     13  C   UNL d   1      58.218  -2.321  29.971  0.00  0.00     0.100 A 
ATOM     14  C   UNL d   1      58.010  -2.410  29.177  0.00  0.00     0.025 A 
ATOM     15  C   UNL d   1      58.491  -2.851  28.673  0.00  0.00     0.002 A 
ATOM     16  C   UNL d   1      59.180  -3.204  28.962  0.00  0.00     0.000 A 
ATOM     17  C   UNL d   1      59.386  -3.114  29.757  0.00  0.00     0.002 A 
ATOM     18  C   UNL d   1      58.905  -2.673  30.261  0.00  0.00     0.025 A 
BRANCH  16  19
ATOM     19  C   UNL d   1      59.661  -3.646  28.458  0.00  0.00     0.000 C 
ATOM     20  C   UNL d   1      60.399  -3.902  28.713  0.00  0.00     0.000 C 
ENDBRANCH  16  19
ENDBRANCH  12  13
ENDBRANCH  11  12
ENDBRANCH   2  11
BRANCH   1  21
ATOM     21  C   UNL d   1      58.585   0.250  30.211  0.00  0.00     0.206 C 
ATOM     22  S   UNL d   1      58.239   0.517  29.501  0.00  0.00    -0.038 SA
BRANCH  21  23
ATOM     23  N   UNL d   1      59.389   0.105  30.249  0.00  0.00    -0.215 NA
ATOM     24  C   UNL d   1      59.899   0.450  29.700  0.00  0.00     0.122 C 
ENDBRANCH  21  23
ENDBRANCH   1  21
BRANCH   7  25
ATOM     25  O   UNL d   1      55.701  -2.078  32.371  0.00  0.00    -0.326 OA
ATOM     26  C   UNL d   1      55.403  -2.325  33.109  0.00  0.00     0.181 C 
ENDBRANCH   7  25
BRANCH   9  27
ATOM     27  O   UNL d   1      55.737  -0.980  33.602  0.00  0.00    -0.326 OA
ATOM     28  C   UNL d   1      55.881  -0.551  34.302  0.00  0.00     0.181 C 
ENDBRANCH   9  27
TORSDOF 8
ENDMDL
