MODEL 1
REMARK VINA RESULT:      20.7      0.000      0.000
REMARK  5 active torsions:
REMARK  status: ('A' for Active; 'I' for Inactive)
REMARK    1  A    between atoms: C_12  and  N_3 
REMARK    2  A    between atoms: C_11  and  C_5 
REMARK    3  A    between atoms: C_10  and  C_8 
REMARK    4  A    between atoms: O_27  and  C_14 
REMARK    5  A    between atoms: O_28  and  C_21 
ROOT
ATOM      1  C   UNL d   1     -41.945-120.562 -52.212  0.00  0.00     0.143 A 
ATOM      2  C   UNL d   1     -42.127-121.322 -51.941  0.00  0.00     0.172 A 
ATOM      3  N   UNL d   1     -42.241-121.291 -51.120  0.00  0.00    -0.242 N 
ATOM      4  C   UNL d   1     -42.127-120.504 -50.885  0.00  0.00     0.355 A 
ATOM      5  C   UNL d   1     -41.804-120.430 -53.003  0.00  0.00     0.163 A 
ATOM      6  N   UNL d   1     -42.168-121.954 -52.477  0.00  0.00    -0.207 NA
ATOM      7  N   UNL d   1     -41.945-120.061 -51.558  0.00  0.00    -0.187 NA
ATOM      8  C   UNL d   1     -42.024-121.809 -53.280  0.00  0.00     0.166 A 
ATOM      9  N   UNL d   1     -41.842-121.046 -53.543  0.00  0.00    -0.220 NA
ATOM     10  O   UNL d   1     -42.187-120.223 -50.110  0.00  0.00    -0.244 OA
ENDROOT
BRANCH   8  11
ATOM     11  C   UNL d   1     -42.062-122.429 -53.818  0.00  0.00     0.060 A 
ATOM     12  C   UNL d   1     -41.613-123.106 -53.696  0.00  0.00     0.097 A 
ATOM     13  C   UNL d   1     -41.653-123.731 -54.239  0.00  0.00     0.026 A 
ATOM     14  C   UNL d   1     -42.138-123.671 -54.895  0.00  0.00     0.026 A 
ATOM     15  C   UNL d   1     -42.583-122.991 -55.009  0.00  0.00     0.094 A 
ATOM     16  C   UNL d   1     -42.553-122.369 -54.480  0.00  0.00     0.029 A 
BRANCH  12  17
ATOM     17  O   UNL d   1     -41.125-123.159 -53.031  0.00  0.00    -0.328 OA
ATOM     18  C   UNL d   1     -41.207-123.817 -52.533  0.00  0.00     0.181 C 
ENDBRANCH  12  17
BRANCH  15  19
ATOM     19  O   UNL d   1     -43.074-122.931 -55.671  0.00  0.00    -0.328 OA
ATOM     20  C   UNL d   1     -42.976-122.308 -56.203  0.00  0.00     0.181 C 
ENDBRANCH  15  19
ENDBRANCH   8  11
BRANCH   5  21
ATOM     21  C   UNL d   1     -41.622-119.671 -53.273  0.00  0.00     0.316 C 
ATOM     22  O   UNL d   1     -41.930-119.394 -53.986  0.00  0.00    -0.262 OA
ATOM     23  N   UNL d   1     -41.123-119.186 -52.817  0.00  0.00    -0.101 N 
ENDBRANCH   5  21
BRANCH   3  24
ATOM     24  C   UNL d   1     -42.430-121.921 -50.633  0.00  0.00     0.070 A 
ATOM     25  C   UNL d   1     -41.832-122.350 -50.290  0.00  0.00     0.020 A 
ATOM     26  C   UNL d   1     -42.023-122.989 -49.797  0.00  0.00     0.031 A 
ATOM     27  C   UNL d   1     -42.821-123.177 -49.663  0.00  0.00     0.140 A 
ATOM     28  C   UNL d   1     -43.420-122.741 -50.012  0.00  0.00     0.031 A 
ATOM     29  F   UNL d   1     -43.005-123.816 -49.170  0.00  0.00    -0.204 F 
ATOM     30  C   UNL d   1     -43.223-122.108 -50.500  0.00  0.00     0.020 A 
ENDBRANCH   3  24
TORSDOF 5
ENDMDL
