MODEL 1
REMARK VINA RESULT:      -0.4      0.000      0.000
REMARK  4 active torsions:
REMARK  status: ('A' for Active; 'I' for Inactive)
REMARK    1  A    between atoms: C_4  and  C_1 
REMARK    2  A    between atoms: N_8  and  C_4 
REMARK    3  A    between atoms: C_12  and  C_4 
REMARK    4  A    between atoms: C_5  and  N_8 
ROOT
ATOM      1  C   UNL d   1      58.003   0.083  30.818  0.00  0.00     0.085 C 
ENDROOT
BRANCH   1   2
ATOM      2  C   UNL d   1      57.536  -0.513  31.149  0.00  0.00     0.037 A 
ATOM      3  C   UNL d   1      57.504  -1.309  30.897  0.00  0.00     0.083 A 
ATOM      4  N   UNL d   1      56.972  -1.698  31.380  0.00  0.00    -0.245 NA
ATOM      5  C   UNL d   1      57.933  -1.641  30.274  0.00  0.00     0.021 C 
ATOM      6  C   UNL d   1      56.679  -1.149  31.923  0.00  0.00     0.081 A 
ATOM      7  C   UNL d   1      57.028  -0.430  31.775  0.00  0.00     0.021 A 
ATOM      8  C   UNL d   1      56.128  -1.234  32.537  0.00  0.00     0.019 A 
ATOM      9  C   UNL d   1      56.833   0.220  32.238  0.00  0.00     0.002 A 
ATOM     10  C   UNL d   1      56.287   0.151  32.853  0.00  0.00     0.000 A 
ATOM     11  C   UNL d   1      55.938  -0.568  33.001  0.00  0.00     0.002 A 
ENDBRANCH   1   2
BRANCH   1  12
ATOM     12  N   UNL d   1      57.683   0.680  30.429  0.00  0.00    -0.221 NA
BRANCH  12  13
ATOM     13  C   UNL d   1      57.715   0.680  29.657  0.00  0.00     0.194 A 
ATOM     14  N   UNL d   1      57.103   0.678  29.157  0.00  0.00    -0.219 NA
ATOM     15  C   UNL d   1      57.374   0.679  28.455  0.00  0.00     0.108 A 
ATOM     16  C   UNL d   1      58.147   0.681  28.488  0.00  0.00     0.059 A 
ATOM     17  S   UNL d   1      58.365   0.682  29.234  0.00  0.00    -0.046 SA
ENDBRANCH  12  13
ENDBRANCH   1  12
BRANCH   1  18
ATOM     18  C   UNL d   1      58.825   0.066  30.889  0.00  0.00     0.021 A 
ATOM     19  C   UNL d   1      59.201   0.675  31.301  0.00  0.00     0.022 A 
ATOM     20  C   UNL d   1      60.026   0.670  31.380  0.00  0.00     0.099 A 
ATOM     21  N   UNL d   1      60.465   0.059  31.047  0.00  0.00    -0.242 NA
ATOM     22  C   UNL d   1      60.085  -0.552  30.634  0.00  0.00     0.099 A 
ATOM     23  C   UNL d   1      59.264  -0.545  30.557  0.00  0.00     0.022 A 
ENDBRANCH   1  18
TORSDOF 4
ENDMDL
MODEL 2
REMARK VINA RESULT:       0.2      1.002      2.086
REMARK  4 active torsions:
REMARK  status: ('A' for Active; 'I' for Inactive)
REMARK    1  A    between atoms: C_4  and  C_1 
REMARK    2  A    between atoms: N_8  and  C_4 
REMARK    3  A    between atoms: C_12  and  C_4 
REMARK    4  A    between atoms: C_5  and  N_8 
ROOT
ATOM      1  C   UNL d   1      57.726   0.130  31.141  0.00  0.00     0.085 C 
ENDROOT
BRANCH   1   2
ATOM      2  C   UNL d   1      57.212  -0.417  31.487  0.00  0.00     0.037 A 
ATOM      3  C   UNL d   1      57.236  -1.246  31.386  0.00  0.00     0.083 A 
ATOM      4  N   UNL d   1      56.628  -1.564  31.829  0.00  0.00    -0.245 NA
ATOM      5  C   UNL d   1      57.776  -1.666  30.924  0.00  0.00     0.021 C 
ATOM      6  C   UNL d   1      56.233  -0.939  32.198  0.00  0.00     0.081 A 
ATOM      7  C   UNL d   1      56.596  -0.244  31.984  0.00  0.00     0.021 A 
ATOM      8  C   UNL d   1      55.579  -0.935  32.708  0.00  0.00     0.019 A 
ATOM      9  C   UNL d   1      56.313   0.470  32.275  0.00  0.00     0.002 A 
ATOM     10  C   UNL d   1      55.663   0.490  32.784  0.00  0.00     0.000 A 
ATOM     11  C   UNL d   1      55.300  -0.206  32.998  0.00  0.00     0.002 A 
ENDBRANCH   1   2
BRANCH   1  12
ATOM     12  N   UNL d   1      58.089   0.673  31.568  0.00  0.00    -0.221 NA
BRANCH  12  13
ATOM     13  C   UNL d   1      58.860   0.646  31.626  0.00  0.00     0.194 A 
ATOM     14  N   UNL d   1      59.381   0.665  31.032  0.00  0.00    -0.219 NA
ATOM     15  C   UNL d   1      60.072   0.627  31.327  0.00  0.00     0.108 A 
ATOM     16  C   UNL d   1      60.012   0.585  32.097  0.00  0.00     0.059 A 
ATOM     17  S   UNL d   1      59.258   0.596  32.289  0.00  0.00    -0.046 SA
ENDBRANCH  12  13
ENDBRANCH   1  12
BRANCH   1  18
ATOM     18  C   UNL d   1      57.872   0.118  30.328  0.00  0.00     0.021 A 
ATOM     19  C   UNL d   1      58.373  -0.463  30.022  0.00  0.00     0.022 A 
ATOM     20  C   UNL d   1      58.528  -0.485  29.209  0.00  0.00     0.099 A 
ATOM     21  N   UNL d   1      58.182   0.070  28.711  0.00  0.00    -0.242 NA
ATOM     22  C   UNL d   1      57.679   0.653  29.019  0.00  0.00     0.099 A 
ATOM     23  C   UNL d   1      57.526   0.674  29.829  0.00  0.00     0.022 A 
ENDBRANCH   1  18
TORSDOF 4
ENDMDL
MODEL 3
REMARK VINA RESULT:       0.5      2.200      3.619
REMARK  4 active torsions:
REMARK  status: ('A' for Active; 'I' for Inactive)
REMARK    1  A    between atoms: C_4  and  C_1 
REMARK    2  A    between atoms: N_8  and  C_4 
REMARK    3  A    between atoms: C_12  and  C_4 
REMARK    4  A    between atoms: C_5  and  N_8 
ROOT
ATOM      1  C   UNL d   1      59.525  -1.290  29.710  0.00  0.00     0.085 C 
ENDROOT
BRANCH   1   2
ATOM      2  C   UNL d   1      59.465  -2.003  29.297  0.00  0.00     0.037 A 
ATOM      3  C   UNL d   1      58.890  -2.190  28.720  0.00  0.00     0.083 A 
ATOM      4  N   UNL d   1      59.041  -2.950  28.461  0.00  0.00    -0.245 NA
ATOM      5  C   UNL d   1      58.281  -1.696  28.460  0.00  0.00     0.021 C 
ATOM      6  C   UNL d   1      59.700  -3.229  28.873  0.00  0.00     0.081 A 
ATOM      7  C   UNL d   1      59.952  -2.645  29.380  0.00  0.00     0.021 A 
ATOM      8  C   UNL d   1      60.096  -3.956  28.836  0.00  0.00     0.019 A 
ATOM      9  C   UNL d   1      60.605  -2.778  29.861  0.00  0.00     0.002 A 
ATOM     10  C   UNL d   1      61.009  -3.497  29.835  0.00  0.00     0.000 A 
ATOM     11  C   UNL d   1      60.757  -4.080  29.328  0.00  0.00     0.002 A 
ENDBRANCH   1   2
BRANCH   1  12
ATOM     12  N   UNL d   1      59.221  -1.207  30.424  0.00  0.00    -0.221 NA
BRANCH  12  13
ATOM     13  C   UNL d   1      58.598  -0.757  30.513  0.00  0.00     0.194 A 
ATOM     14  N   UNL d   1      57.890  -0.856  30.177  0.00  0.00    -0.219 NA
ATOM     15  C   UNL d   1      57.441  -0.298  30.409  0.00  0.00     0.108 A 
ATOM     16  C   UNL d   1      57.842   0.159  30.887  0.00  0.00     0.059 A 
ATOM     17  S   UNL d   1      58.563  -0.122  30.956  0.00  0.00    -0.046 SA
ENDBRANCH  12  13
ENDBRANCH   1  12
BRANCH   1  18
ATOM     18  C   UNL d   1      59.911  -0.639  29.378  0.00  0.00     0.021 A 
ATOM     19  C   UNL d   1      59.520  -0.198  28.800  0.00  0.00     0.022 A 
ATOM     20  C   UNL d   1      59.896   0.456  28.459  0.00  0.00     0.099 A 
ATOM     21  N   UNL d   1      60.655   0.663  28.698  0.00  0.00    -0.242 NA
ATOM     22  C   UNL d   1      61.046   0.219  29.280  0.00  0.00     0.099 A 
ATOM     23  C   UNL d   1      60.670  -0.432  29.618  0.00  0.00     0.022 A 
ENDBRANCH   1  18
TORSDOF 4
ENDMDL
MODEL 4
REMARK VINA RESULT:       0.5      2.166      4.255
REMARK  4 active torsions:
REMARK  status: ('A' for Active; 'I' for Inactive)
REMARK    1  A    between atoms: C_4  and  C_1 
REMARK    2  A    between atoms: N_8  and  C_4 
REMARK    3  A    between atoms: C_12  and  C_4 
REMARK    4  A    between atoms: C_5  and  N_8 
ROOT
ATOM      1  C   UNL d   1      56.351   0.138  33.183  0.00  0.00     0.085 C 
ENDROOT
BRANCH   1   2
ATOM      2  C   UNL d   1      56.485  -0.528  32.712  0.00  0.00     0.037 A 
ATOM      3  C   UNL d   1      56.300  -1.317  32.914  0.00  0.00     0.083 A 
ATOM      4  N   UNL d   1      56.528  -1.790  32.288  0.00  0.00    -0.245 NA
ATOM      5  C   UNL d   1      55.951  -1.572  33.619  0.00  0.00     0.021 C 
ATOM      6  C   UNL d   1      56.849  -1.298  31.707  0.00  0.00     0.081 A 
ATOM      7  C   UNL d   1      56.819  -0.531  31.974  0.00  0.00     0.021 A 
ATOM      8  C   UNL d   1      57.166  -1.475  30.961  0.00  0.00     0.019 A 
ATOM      9  C   UNL d   1      57.104   0.076  31.501  0.00  0.00     0.002 A 
ATOM     10  C   UNL d   1      57.423  -0.083  30.756  0.00  0.00     0.000 A 
ATOM     11  C   UNL d   1      57.453  -0.851  30.489  0.00  0.00     0.002 A 
ENDBRANCH   1   2
BRANCH   1  12
ATOM     12  N   UNL d   1      56.901   0.682  33.283  0.00  0.00    -0.221 NA
BRANCH  12  13
ATOM     13  C   UNL d   1      57.328   0.666  33.928  0.00  0.00     0.194 A 
ATOM     14  N   UNL d   1      57.061   0.662  34.673  0.00  0.00    -0.219 NA
ATOM     15  C   UNL d   1      57.656   0.645  35.133  0.00  0.00     0.108 A 
ATOM     16  C   UNL d   1      58.300   0.637  34.706  0.00  0.00     0.059 A 
ATOM     17  S   UNL d   1      58.102   0.649  33.954  0.00  0.00    -0.046 SA
ENDBRANCH  12  13
ENDBRANCH   1  12
BRANCH   1  18
ATOM     18  C   UNL d   1      55.626   0.249  33.564  0.00  0.00     0.021 A 
ATOM     19  C   UNL d   1      54.986   0.532  33.125  0.00  0.00     0.022 A 
ATOM     20  C   UNL d   1      54.254   0.647  33.495  0.00  0.00     0.099 A 
ATOM     21  N   UNL d   1      54.169   0.481  34.296  0.00  0.00    -0.242 NA
ATOM     22  C   UNL d   1      54.813   0.197  34.734  0.00  0.00     0.099 A 
ATOM     23  C   UNL d   1      55.541   0.082  34.365  0.00  0.00     0.022 A 
ENDBRANCH   1  18
TORSDOF 4
ENDMDL
MODEL 5
REMARK VINA RESULT:       0.5      2.067      4.237
REMARK  4 active torsions:
REMARK  status: ('A' for Active; 'I' for Inactive)
REMARK    1  A    between atoms: C_4  and  C_1 
REMARK    2  A    between atoms: N_8  and  C_4 
REMARK    3  A    between atoms: C_12  and  C_4 
REMARK    4  A    between atoms: C_5  and  N_8 
ROOT
ATOM      1  C   UNL d   1      56.333   0.128  32.883  0.00  0.00     0.085 C 
ENDROOT
BRANCH   1   2
ATOM      2  C   UNL d   1      57.101   0.328  32.651  0.00  0.00     0.037 A 
ATOM      3  C   UNL d   1      57.733   0.523  33.162  0.00  0.00     0.083 A 
ATOM      4  N   UNL d   1      58.385   0.680  32.696  0.00  0.00    -0.245 NA
ATOM      5  C   UNL d   1      57.702   0.552  33.987  0.00  0.00     0.021 C 
ATOM      6  C   UNL d   1      58.159   0.583  31.907  0.00  0.00     0.081 A 
ATOM      7  C   UNL d   1      57.375   0.368  31.890  0.00  0.00     0.021 A 
ATOM      8  C   UNL d   1      58.590   0.669  31.204  0.00  0.00     0.019 A 
ATOM      9  C   UNL d   1      57.005   0.235  31.169  0.00  0.00     0.002 A 
ATOM     10  C   UNL d   1      57.421   0.316  30.460  0.00  0.00     0.000 A 
ATOM     11  C   UNL d   1      58.205   0.531  30.478  0.00  0.00     0.002 A 
ENDBRANCH   1   2
BRANCH   1  12
ATOM     12  N   UNL d   1      55.798   0.678  33.030  0.00  0.00    -0.221 NA
BRANCH  12  13
ATOM     13  C   UNL d   1      55.420   0.657  33.704  0.00  0.00     0.194 A 
ATOM     14  N   UNL d   1      55.739   0.677  34.427  0.00  0.00    -0.219 NA
ATOM     15  C   UNL d   1      55.179   0.646  34.929  0.00  0.00     0.108 A 
ATOM     16  C   UNL d   1      54.507   0.607  34.550  0.00  0.00     0.059 A 
ATOM     17  S   UNL d   1      54.650   0.614  33.786  0.00  0.00    -0.046 SA
ENDBRANCH  12  13
ENDBRANCH   1  12
BRANCH   1  18
ATOM     18  C   UNL d   1      56.107  -0.662  32.966  0.00  0.00     0.021 A 
ATOM     19  C   UNL d   1      55.480  -0.945  32.510  0.00  0.00     0.022 A 
ATOM     20  C   UNL d   1      55.243  -1.735  32.583  0.00  0.00     0.099 A 
ATOM     21  N   UNL d   1      55.632  -2.232  33.110  0.00  0.00    -0.242 NA
ATOM     22  C   UNL d   1      56.262  -1.945  33.568  0.00  0.00     0.099 A 
ATOM     23  C   UNL d   1      56.496  -1.158  33.493  0.00  0.00     0.022 A 
ENDBRANCH   1  18
TORSDOF 4
ENDMDL
MODEL 6
REMARK VINA RESULT:       0.9      1.400      2.534
REMARK  4 active torsions:
REMARK  status: ('A' for Active; 'I' for Inactive)
REMARK    1  A    between atoms: C_4  and  C_1 
REMARK    2  A    between atoms: N_8  and  C_4 
REMARK    3  A    between atoms: C_12  and  C_4 
REMARK    4  A    between atoms: C_5  and  N_8 
ROOT
ATOM      1  C   UNL d   1      58.865  -0.523  29.970  0.00  0.00     0.085 C 
ENDROOT
BRANCH   1   2
ATOM      2  C   UNL d   1      58.181  -0.087  30.126  0.00  0.00     0.037 A 
ATOM      3  C   UNL d   1      57.729   0.335  29.563  0.00  0.00     0.083 A 
ATOM      4  N   UNL d   1      57.105   0.681  29.961  0.00  0.00    -0.245 NA
ATOM      5  C   UNL d   1      57.885   0.391  28.754  0.00  0.00     0.021 C 
ATOM      6  C   UNL d   1      57.171   0.476  30.759  0.00  0.00     0.081 A 
ATOM      7  C   UNL d   1      57.829   0.007  30.850  0.00  0.00     0.021 A 
ATOM      8  C   UNL d   1      56.696   0.669  31.410  0.00  0.00     0.019 A 
ATOM      9  C   UNL d   1      58.027  -0.277  31.594  0.00  0.00     0.002 A 
ATOM     10  C   UNL d   1      57.564  -0.093  32.252  0.00  0.00     0.000 A 
ATOM     11  C   UNL d   1      56.906   0.375  32.161  0.00  0.00     0.002 A 
ENDBRANCH   1   2
BRANCH   1  12
ATOM     12  N   UNL d   1      59.574  -0.235  30.122  0.00  0.00    -0.221 NA
BRANCH  12  13
ATOM     13  C   UNL d   1      60.098  -0.215  29.554  0.00  0.00     0.194 A 
ATOM     14  N   UNL d   1      60.693  -0.724  29.441  0.00  0.00    -0.219 NA
ATOM     15  C   UNL d   1      61.071  -0.507  28.827  0.00  0.00     0.108 A 
ATOM     16  C   UNL d   1      60.736   0.128  28.541  0.00  0.00     0.059 A 
ATOM     17  S   UNL d   1      60.129   0.314  28.989  0.00  0.00    -0.046 SA
ENDBRANCH  12  13
ENDBRANCH   1  12
BRANCH   1  18
ATOM     18  C   UNL d   1      58.819  -1.282  29.646  0.00  0.00     0.021 A 
ATOM     19  C   UNL d   1      58.482  -1.375  28.899  0.00  0.00     0.022 A 
ATOM     20  C   UNL d   1      58.430  -2.130  28.562  0.00  0.00     0.099 A 
ATOM     21  N   UNL d   1      58.715  -2.782  28.975  0.00  0.00    -0.242 NA
ATOM     22  C   UNL d   1      59.054  -2.687  29.726  0.00  0.00     0.099 A 
ATOM     23  C   UNL d   1      59.105  -1.934  30.059  0.00  0.00     0.022 A 
ENDBRANCH   1  18
TORSDOF 4
ENDMDL
MODEL 7
REMARK VINA RESULT:       1.3      1.634      3.630
REMARK  4 active torsions:
REMARK  status: ('A' for Active; 'I' for Inactive)
REMARK    1  A    between atoms: C_4  and  C_1 
REMARK    2  A    between atoms: N_8  and  C_4 
REMARK    3  A    between atoms: C_12  and  C_4 
REMARK    4  A    between atoms: C_5  and  N_8 
ROOT
ATOM      1  C   UNL d   1      58.491  -0.883  30.059  0.00  0.00     0.085 C 
ENDROOT
BRANCH   1   2
ATOM      2  C   UNL d   1      58.874  -0.391  29.516  0.00  0.00     0.037 A 
ATOM      3  C   UNL d   1      58.537  -0.071  28.821  0.00  0.00     0.083 A 
ATOM      4  N   UNL d   1      59.112   0.379  28.455  0.00  0.00    -0.245 NA
ATOM      5  C   UNL d   1      57.764  -0.189  28.554  0.00  0.00     0.021 C 
ATOM      6  C   UNL d   1      59.796   0.337  28.918  0.00  0.00     0.081 A 
ATOM      7  C   UNL d   1      59.641  -0.134  29.562  0.00  0.00     0.021 A 
ATOM      8  C   UNL d   1      60.543   0.682  28.816  0.00  0.00     0.019 A 
ATOM      9  C   UNL d   1      60.230  -0.271  30.117  0.00  0.00     0.002 A 
ATOM     10  C   UNL d   1      60.979   0.066  30.030  0.00  0.00     0.000 A 
ATOM     11  C   UNL d   1      61.133   0.537  29.385  0.00  0.00     0.002 A 
ENDBRANCH   1   2
BRANCH   1  12
ATOM     12  N   UNL d   1      58.702  -1.629  30.149  0.00  0.00    -0.221 NA
BRANCH  12  13
ATOM     13  C   UNL d   1      58.565  -2.127  29.574  0.00  0.00     0.194 A 
ATOM     14  N   UNL d   1      57.926  -2.148  29.108  0.00  0.00    -0.219 NA
ATOM     15  C   UNL d   1      58.012  -2.716  28.621  0.00  0.00     0.108 A 
ATOM     16  C   UNL d   1      58.689  -3.062  28.761  0.00  0.00     0.059 A 
ATOM     17  S   UNL d   1      59.038  -2.700  29.353  0.00  0.00    -0.046 SA
ENDBRANCH  12  13
ENDBRANCH   1  12
BRANCH   1  18
ATOM     18  C   UNL d   1      57.871  -0.599  30.525  0.00  0.00     0.021 A 
ATOM     19  C   UNL d   1      57.563  -1.086  31.116  0.00  0.00     0.022 A 
ATOM     20  C   UNL d   1      56.942  -0.813  31.590  0.00  0.00     0.099 A 
ATOM     21  N   UNL d   1      56.635  -0.060  31.469  0.00  0.00    -0.242 NA
ATOM     22  C   UNL d   1      56.945   0.428  30.875  0.00  0.00     0.099 A 
ATOM     23  C   UNL d   1      57.565   0.155  30.404  0.00  0.00     0.022 A 
ENDBRANCH   1  18
TORSDOF 4
ENDMDL
