MODEL 1
REMARK VINA RESULT:      46.9      0.000      0.000
REMARK  3 active torsions:
REMARK  status: ('A' for Active; 'I' for Inactive)
REMARK    1  A    between atoms: C_2  and  C_4 
REMARK    2  A    between atoms: N_3  and  C_2 
REMARK    3  A    between atoms: C_5  and  N_3 
ROOT
ATOM      1  C   UNL d   1     -54.789-101.283 -42.751  0.00  0.00     0.153 C 
ATOM      2  S   UNL d   1     -54.860-101.724 -43.442  0.00  0.00    -0.056 SA
ENDROOT
BRANCH   1   3
ATOM      3  C   UNL d   1     -54.775-101.664 -42.020  0.00  0.00     0.109 A 
ATOM      4  N   UNL d   1     -54.778-101.214 -41.316  0.00  0.00    -0.243 NA
ATOM      5  C   UNL d   1     -54.764-101.598 -40.582  0.00  0.00     0.081 A 
ATOM      6  C   UNL d   1     -54.747-102.426 -40.551  0.00  0.00     0.018 A 
ATOM      7  C   UNL d   1     -54.768-101.158 -39.886  0.00  0.00     0.019 A 
ATOM      8  C   UNL d   1     -54.744-102.872 -41.248  0.00  0.00     0.003 A 
ATOM      9  C   UNL d   1     -54.733-102.804 -39.821  0.00  0.00     0.002 A 
ATOM     10  C   UNL d   1     -54.758-102.491 -41.979  0.00  0.00     0.021 A 
ATOM     11  C   UNL d   1     -54.737-102.369 -39.127  0.00  0.00     0.000 A 
ATOM     12  C   UNL d   1     -54.754-101.548 -39.159  0.00  0.00     0.002 A 
ENDBRANCH   1   3
BRANCH   1  13
ATOM     13  N   UNL d   1     -54.732-100.461 -42.788  0.00  0.00    -0.233 NA
BRANCH  13  14
ATOM     14  C   UNL d   1     -54.821-100.075 -43.514  0.00  0.00     0.082 A 
ATOM     15  C   UNL d   1     -54.921 -99.250 -43.525  0.00  0.00     0.018 A 
ATOM     16  C   UNL d   1     -55.010 -98.870 -44.256  0.00  0.00     0.002 A 
ATOM     17  C   UNL d   1     -54.931 -98.820 -42.825  0.00  0.00     0.002 C 
ATOM     18  C   UNL d   1     -55.000 -99.300 -44.956  0.00  0.00     0.000 A 
ATOM     19  C   UNL d   1     -54.900-100.121 -44.938  0.00  0.00     0.002 A 
ATOM     20  C   UNL d   1     -55.090 -98.913 -45.683  0.00  0.00     0.000 C 
ATOM     21  C   UNL d   1     -54.811-100.509 -44.215  0.00  0.00     0.019 A 
ENDBRANCH  13  14
ENDBRANCH   1  13
TORSDOF 3
ENDMDL
