MODEL 1
REMARK VINA RESULT:      -7.3      0.000      0.000
REMARK  6 active torsions:
REMARK  status: ('A' for Active; 'I' for Inactive)
REMARK       I    between atoms: N_2  and  C_1 
REMARK    1  A    between atoms: C_5  and  C_1 
REMARK    2  A    between atoms: C_3  and  N_2 
REMARK    3  A    between atoms: O_14  and  C_10 
REMARK    4  A    between atoms: C_18  and  O_14 
REMARK    5  A    between atoms: C_19  and  C_18 
REMARK    6  A    between atoms: C_20  and  C_19 
ROOT
ATOM      1  C   UNL d   1     -49.786  14.795  22.608  0.00  0.00     0.058 A 
ATOM      2  C   UNL d   1     -49.358  14.937  21.918  0.00  0.00     0.007 A 
ATOM      3  C   UNL d   1     -49.397  14.637  23.300  0.00  0.00     0.007 A 
ATOM      4  C   UNL d   1     -48.129  14.760  22.625  0.00  0.00     0.100 A 
ATOM      5  C   UNL d   1     -48.536  14.917  21.937  0.00  0.00     0.025 A 
ATOM      6  C   UNL d   1     -48.586  14.615  23.328  0.00  0.00     0.025 A 
ENDROOT
BRANCH   1   7
ATOM      7  C   UNL d   1     -50.619  14.820  22.568  0.00  0.00     0.281 C 
ATOM      8  N   UNL d   1     -51.063  14.137  22.449  0.00  0.00    -0.189 NA
ATOM      9  O   UNL d   1     -51.002  15.542  22.649  0.00  0.00    -0.265 OA
BRANCH   8  10
ATOM     10  C   UNL d   1     -50.671  13.397  22.366  0.00  0.00     0.166 A 
ATOM     11  N   UNL d   1     -50.645  12.906  23.037  0.00  0.00    -0.227 NA
ATOM     12  C   UNL d   1     -50.277  12.193  22.986  0.00  0.00     0.083 A 
ATOM     13  C   UNL d   1     -50.212  11.630  23.645  0.00  0.00     0.021 C 
ATOM     14  C   UNL d   1     -49.928  11.965  22.255  0.00  0.00     0.019 A 
ATOM     15  C   UNL d   1     -49.966  12.471  21.598  0.00  0.00     0.005 A 
ATOM     16  C   UNL d   1     -50.341  13.177  21.681  0.00  0.00     0.039 A 
ENDBRANCH   8  10
ENDBRANCH   1   7
BRANCH   4  17
ATOM     17  O   UNL d   1     -47.300  14.738  22.648  0.00  0.00    -0.305 OA
BRANCH  17  18
ATOM     18  C   UNL d   1     -46.893  14.036  22.783  0.00  0.00     0.123 C 
BRANCH  18  19
ATOM     19  C   UNL d   1     -46.108  13.973  22.546  0.00  0.00     0.027 C 
BRANCH  19  20
ATOM     20  C   UNL d   1     -45.720  13.237  22.658  0.00  0.00     0.002 C 
ATOM     21  C   UNL d   1     -45.138  12.989  22.126  0.00  0.00     0.000 C 
ENDBRANCH  19  20
ENDBRANCH  18  19
ENDBRANCH  17  18
ENDBRANCH   4  17
TORSDOF 6
ENDMDL
MODEL 2
REMARK VINA RESULT:      -7.1      1.459      2.440
REMARK  6 active torsions:
REMARK  status: ('A' for Active; 'I' for Inactive)
REMARK       I    between atoms: N_2  and  C_1 
REMARK    1  A    between atoms: C_5  and  C_1 
REMARK    2  A    between atoms: C_3  and  N_2 
REMARK    3  A    between atoms: O_14  and  C_10 
REMARK    4  A    between atoms: C_18  and  O_14 
REMARK    5  A    between atoms: C_19  and  C_18 
REMARK    6  A    between atoms: C_20  and  C_19 
ROOT
ATOM      1  C   UNL d   1     -49.541  12.053  23.034  0.00  0.00     0.058 A 
ATOM      2  C   UNL d   1     -49.062  12.153  23.697  0.00  0.00     0.007 A 
ATOM      3  C   UNL d   1     -49.207  11.981  22.300  0.00  0.00     0.007 A 
ATOM      4  C   UNL d   1     -47.892  12.110  22.877  0.00  0.00     0.100 A 
ATOM      5  C   UNL d   1     -48.244  12.180  23.609  0.00  0.00     0.025 A 
ATOM      6  C   UNL d   1     -48.401  12.007  22.204  0.00  0.00     0.025 A 
ENDROOT
BRANCH   1   7
ATOM      7  C   UNL d   1     -50.368  12.028  23.145  0.00  0.00     0.281 C 
ATOM      8  N   UNL d   1     -50.839  12.689  23.005  0.00  0.00    -0.189 NA
ATOM      9  O   UNL d   1     -50.716  11.329  23.398  0.00  0.00    -0.265 OA
BRANCH   8  10
ATOM     10  C   UNL d   1     -50.482  13.405  22.746  0.00  0.00     0.166 A 
ATOM     11  N   UNL d   1     -50.357  13.994  23.319  0.00  0.00    -0.227 NA
ATOM     12  C   UNL d   1     -50.018  14.690  23.099  0.00  0.00     0.083 A 
ATOM     13  C   UNL d   1     -49.858  15.348  23.644  0.00  0.00     0.021 C 
ATOM     14  C   UNL d   1     -49.799  14.800  22.294  0.00  0.00     0.019 A 
ATOM     15  C   UNL d   1     -49.932  14.198  21.739  0.00  0.00     0.005 A 
ATOM     16  C   UNL d   1     -50.273  13.514  21.990  0.00  0.00     0.039 A 
ENDBRANCH   8  10
ENDBRANCH   1   7
BRANCH   4  17
ATOM     17  O   UNL d   1     -47.068  12.137  22.784  0.00  0.00    -0.305 OA
BRANCH  17  18
ATOM     18  C   UNL d   1     -46.675  12.847  22.649  0.00  0.00     0.123 C 
BRANCH  18  19
ATOM     19  C   UNL d   1     -45.853  12.858  22.638  0.00  0.00     0.027 C 
BRANCH  19  20
ATOM     20  C   UNL d   1     -45.472  13.278  22.020  0.00  0.00     0.002 C 
ATOM     21  C   UNL d   1     -44.652  13.233  21.930  0.00  0.00     0.000 C 
ENDBRANCH  19  20
ENDBRANCH  18  19
ENDBRANCH  17  18
ENDBRANCH   4  17
TORSDOF 6
ENDMDL
MODEL 3
REMARK VINA RESULT:      -6.5      1.007      1.592
REMARK  6 active torsions:
REMARK  status: ('A' for Active; 'I' for Inactive)
REMARK       I    between atoms: N_2  and  C_1 
REMARK    1  A    between atoms: C_5  and  C_1 
REMARK    2  A    between atoms: C_3  and  N_2 
REMARK    3  A    between atoms: O_14  and  C_10 
REMARK    4  A    between atoms: C_18  and  O_14 
REMARK    5  A    between atoms: C_19  and  C_18 
REMARK    6  A    between atoms: C_20  and  C_19 
ROOT
ATOM      1  C   UNL d   1     -48.298  14.259  22.561  0.00  0.00     0.058 A 
ATOM      2  C   UNL d   1     -47.902  14.040  23.251  0.00  0.00     0.007 A 
ATOM      3  C   UNL d   1     -48.006  14.034  21.840  0.00  0.00     0.007 A 
ATOM      4  C   UNL d   1     -46.907  13.360  22.484  0.00  0.00     0.100 A 
ATOM      5  C   UNL d   1     -47.213  13.594  23.202  0.00  0.00     0.025 A 
ATOM      6  C   UNL d   1     -47.327  13.593  21.783  0.00  0.00     0.025 A 
ENDROOT
BRANCH   1   7
ATOM      7  C   UNL d   1     -48.995  14.712  22.633  0.00  0.00     0.281 C 
ATOM      8  N   UNL d   1     -49.739  14.362  22.586  0.00  0.00    -0.189 NA
ATOM      9  O   UNL d   1     -48.935  15.522  22.753  0.00  0.00    -0.265 OA
BRANCH   8  10
ATOM     10  C   UNL d   1     -49.800  13.532  22.463  0.00  0.00     0.166 A 
ATOM     11  N   UNL d   1     -49.954  13.062  23.131  0.00  0.00    -0.227 NA
ATOM     12  C   UNL d   1     -50.018  12.265  23.043  0.00  0.00     0.083 A 
ATOM     13  C   UNL d   1     -50.177  11.714  23.696  0.00  0.00     0.021 C 
ATOM     14  C   UNL d   1     -49.927  11.931  22.276  0.00  0.00     0.019 A 
ATOM     15  C   UNL d   1     -49.774  12.419  21.623  0.00  0.00     0.005 A 
ATOM     16  C   UNL d   1     -49.716  13.212  21.744  0.00  0.00     0.039 A 
ENDBRANCH   8  10
ENDBRANCH   1   7
BRANCH   4  17
ATOM     17  O   UNL d   1     -46.213  12.909  22.431  0.00  0.00    -0.305 OA
BRANCH  17  18
ATOM     18  C   UNL d   1     -45.520  13.226  22.119  0.00  0.00     0.123 C 
BRANCH  18  19
ATOM     19  C   UNL d   1     -44.837  12.768  22.106  0.00  0.00     0.027 C 
BRANCH  19  20
ATOM     20  C   UNL d   1     -44.228  12.983  21.570  0.00  0.00     0.002 C 
ATOM     21  C   UNL d   1     -43.485  12.622  21.618  0.00  0.00     0.000 C 
ENDBRANCH  19  20
ENDBRANCH  18  19
ENDBRANCH  17  18
ENDBRANCH   4  17
TORSDOF 6
ENDMDL
MODEL 4
REMARK VINA RESULT:      -6.4      1.698      2.764
REMARK  6 active torsions:
REMARK  status: ('A' for Active; 'I' for Inactive)
REMARK       I    between atoms: N_2  and  C_1 
REMARK    1  A    between atoms: C_5  and  C_1 
REMARK    2  A    between atoms: C_3  and  N_2 
REMARK    3  A    between atoms: O_14  and  C_10 
REMARK    4  A    between atoms: C_18  and  O_14 
REMARK    5  A    between atoms: C_19  and  C_18 
REMARK    6  A    between atoms: C_20  and  C_19 
ROOT
ATOM      1  C   UNL d   1     -50.058  12.593  22.179  0.00  0.00     0.058 A 
ATOM      2  C   UNL d   1     -49.291  12.533  21.878  0.00  0.00     0.007 A 
ATOM      3  C   UNL d   1     -50.231  12.286  22.908  0.00  0.00     0.007 A 
ATOM      4  C   UNL d   1     -48.865  11.848  23.057  0.00  0.00     0.100 A 
ATOM      5  C   UNL d   1     -48.707  12.162  22.322  0.00  0.00     0.025 A 
ATOM      6  C   UNL d   1     -49.660  11.918  23.353  0.00  0.00     0.025 A 
ENDROOT
BRANCH   1   7
ATOM      7  C   UNL d   1     -50.636  12.973  21.713  0.00  0.00     0.281 C 
ATOM      8  N   UNL d   1     -50.792  13.777  21.796  0.00  0.00    -0.189 NA
ATOM      9  O   UNL d   1     -51.056  12.534  21.160  0.00  0.00    -0.265 OA
BRANCH   8  10
ATOM     10  C   UNL d   1     -50.361  14.227  22.362  0.00  0.00     0.166 A 
ATOM     11  N   UNL d   1     -49.711  14.663  22.082  0.00  0.00    -0.227 NA
ATOM     12  C   UNL d   1     -49.281  15.102  22.601  0.00  0.00     0.083 A 
ATOM     13  C   UNL d   1     -48.592  15.582  22.379  0.00  0.00     0.021 C 
ATOM     14  C   UNL d   1     -49.504  15.107  23.413  0.00  0.00     0.019 A 
ATOM     15  C   UNL d   1     -50.156  14.664  23.670  0.00  0.00     0.005 A 
ATOM     16  C   UNL d   1     -50.565  14.235  23.127  0.00  0.00     0.039 A 
ENDBRANCH   8  10
ENDBRANCH   1   7
BRANCH   4  17
ATOM     17  O   UNL d   1     -48.279  11.473  23.508  0.00  0.00    -0.305 OA
BRANCH  17  18
ATOM     18  C   UNL d   1     -47.537  11.305  23.193  0.00  0.00     0.123 C 
BRANCH  18  19
ATOM     19  C   UNL d   1     -46.895  11.214  23.698  0.00  0.00     0.027 C 
BRANCH  19  20
ATOM     20  C   UNL d   1     -46.129  11.176  23.358  0.00  0.00     0.002 C 
ATOM     21  C   UNL d   1     -45.554  10.678  23.683  0.00  0.00     0.000 C 
ENDBRANCH  19  20
ENDBRANCH  18  19
ENDBRANCH  17  18
ENDBRANCH   4  17
TORSDOF 6
ENDMDL
MODEL 5
REMARK VINA RESULT:      -6.1      1.303      1.770
REMARK  6 active torsions:
REMARK  status: ('A' for Active; 'I' for Inactive)
REMARK       I    between atoms: N_2  and  C_1 
REMARK    1  A    between atoms: C_5  and  C_1 
REMARK    2  A    between atoms: C_3  and  N_2 
REMARK    3  A    between atoms: O_14  and  C_10 
REMARK    4  A    between atoms: C_18  and  O_14 
REMARK    5  A    between atoms: C_19  and  C_18 
REMARK    6  A    between atoms: C_20  and  C_19 
ROOT
ATOM      1  C   UNL d   1     -48.278  14.277  22.542  0.00  0.00     0.058 A 
ATOM      2  C   UNL d   1     -48.072  14.097  23.320  0.00  0.00     0.007 A 
ATOM      3  C   UNL d   1     -47.810  14.024  21.931  0.00  0.00     0.007 A 
ATOM      4  C   UNL d   1     -46.911  13.399  22.868  0.00  0.00     0.100 A 
ATOM      5  C   UNL d   1     -47.392  13.660  23.471  0.00  0.00     0.025 A 
ATOM      6  C   UNL d   1     -47.137  13.593  22.072  0.00  0.00     0.025 A 
ENDROOT
BRANCH   1   7
ATOM      7  C   UNL d   1     -48.972  14.721  22.410  0.00  0.00     0.281 C 
ATOM      8  N   UNL d   1     -49.690  14.354  22.242  0.00  0.00    -0.189 NA
ATOM      9  O   UNL d   1     -48.936  15.540  22.449  0.00  0.00    -0.265 OA
BRANCH   8  10
ATOM     10  C   UNL d   1     -49.727  13.514  22.203  0.00  0.00     0.166 A 
ATOM     11  N   UNL d   1     -50.006  13.116  22.877  0.00  0.00    -0.227 NA
ATOM     12  C   UNL d   1     -50.053  12.313  22.867  0.00  0.00     0.083 A 
ATOM     13  C   UNL d   1     -50.334  11.833  23.534  0.00  0.00     0.021 C 
ATOM     14  C   UNL d   1     -49.816  11.899  22.173  0.00  0.00     0.019 A 
ATOM     15  C   UNL d   1     -49.540  12.318  21.511  0.00  0.00     0.005 A 
ATOM     16  C   UNL d   1     -49.506  13.120  21.553  0.00  0.00     0.039 A 
ENDBRANCH   8  10
ENDBRANCH   1   7
BRANCH   4  17
ATOM     17  O   UNL d   1     -46.224  12.958  23.016  0.00  0.00    -0.305 OA
BRANCH  17  18
ATOM     18  C   UNL d   1     -46.256  12.147  23.154  0.00  0.00     0.123 C 
BRANCH  18  19
ATOM     19  C   UNL d   1     -45.562  11.739  23.323  0.00  0.00     0.027 C 
BRANCH  19  20
ATOM     20  C   UNL d   1     -45.626  10.991  23.698  0.00  0.00     0.002 C 
ATOM     21  C   UNL d   1     -45.357  10.310  23.315  0.00  0.00     0.000 C 
ENDBRANCH  19  20
ENDBRANCH  18  19
ENDBRANCH  17  18
ENDBRANCH   4  17
TORSDOF 6
ENDMDL
MODEL 6
REMARK VINA RESULT:      -6.0      9.483     10.613
REMARK  6 active torsions:
REMARK  status: ('A' for Active; 'I' for Inactive)
REMARK       I    between atoms: N_2  and  C_1 
REMARK    1  A    between atoms: C_5  and  C_1 
REMARK    2  A    between atoms: C_3  and  N_2 
REMARK    3  A    between atoms: O_14  and  C_10 
REMARK    4  A    between atoms: C_18  and  O_14 
REMARK    5  A    between atoms: C_19  and  C_18 
REMARK    6  A    between atoms: C_20  and  C_19 
ROOT
ATOM      1  C   UNL d   1     -40.692  15.148  17.861  0.00  0.00     0.058 A 
ATOM      2  C   UNL d   1     -40.829  14.411  18.205  0.00  0.00     0.007 A 
ATOM      3  C   UNL d   1     -40.453  15.771  18.320  0.00  0.00     0.007 A 
ATOM      4  C   UNL d   1     -40.482  14.929  19.490  0.00  0.00     0.100 A 
ATOM      5  C   UNL d   1     -40.722  14.313  19.014  0.00  0.00     0.025 A 
ATOM      6  C   UNL d   1     -40.345  15.682  19.120  0.00  0.00     0.025 A 
ENDROOT
BRANCH   1   7
ATOM      7  C   UNL d   1     -40.807  15.227  17.038  0.00  0.00     0.281 C 
ATOM      8  N   UNL d   1     -40.184  15.135  16.508  0.00  0.00    -0.189 NA
ATOM      9  O   UNL d   1     -41.558  15.400  16.754  0.00  0.00    -0.265 OA
BRANCH   8  10
ATOM     10  C   UNL d   1     -39.414  14.958  16.799  0.00  0.00     0.166 A 
ATOM     11  N   UNL d   1     -39.169  14.165  16.758  0.00  0.00    -0.227 NA
ATOM     12  C   UNL d   1     -38.438  13.967  17.029  0.00  0.00     0.083 A 
ATOM     13  C   UNL d   1     -38.116  13.160  17.018  0.00  0.00     0.021 C 
ATOM     14  C   UNL d   1     -37.943  14.570  17.346  0.00  0.00     0.019 A 
ATOM     15  C   UNL d   1     -38.209  15.355  17.377  0.00  0.00     0.005 A 
ATOM     16  C   UNL d   1     -38.945  15.521  17.098  0.00  0.00     0.039 A 
ENDBRANCH   8  10
ENDBRANCH   1   7
BRANCH   4  17
ATOM     17  O   UNL d   1     -40.372  14.833  20.307  0.00  0.00    -0.305 OA
BRANCH  17  18
ATOM     18  C   UNL d   1     -39.761  14.370  20.606  0.00  0.00     0.123 C 
BRANCH  18  19
ATOM     19  C   UNL d   1     -39.679  14.287  21.421  0.00  0.00     0.027 C 
BRANCH  19  20
ATOM     20  C   UNL d   1     -38.978  13.931  21.712  0.00  0.00     0.002 C 
ATOM     21  C   UNL d   1     -38.976  13.556  22.448  0.00  0.00     0.000 C 
ENDBRANCH  19  20
ENDBRANCH  18  19
ENDBRANCH  17  18
ENDBRANCH   4  17
TORSDOF 6
ENDMDL
MODEL 7
REMARK VINA RESULT:      -4.6      2.113      4.287
REMARK  6 active torsions:
REMARK  status: ('A' for Active; 'I' for Inactive)
REMARK       I    between atoms: N_2  and  C_1 
REMARK    1  A    between atoms: C_5  and  C_1 
REMARK    2  A    between atoms: C_3  and  N_2 
REMARK    3  A    between atoms: O_14  and  C_10 
REMARK    4  A    between atoms: C_18  and  O_14 
REMARK    5  A    between atoms: C_19  and  C_18 
REMARK    6  A    between atoms: C_20  and  C_19 
ROOT
ATOM      1  C   UNL d   1     -48.107  11.692  22.770  0.00  0.00     0.058 A 
ATOM      2  C   UNL d   1     -48.762  11.901  23.225  0.00  0.00     0.007 A 
ATOM      3  C   UNL d   1     -48.029  11.982  22.017  0.00  0.00     0.007 A 
ATOM      4  C   UNL d   1     -49.269  12.703  22.157  0.00  0.00     0.100 A 
ATOM      5  C   UNL d   1     -49.334  12.403  22.912  0.00  0.00     0.025 A 
ATOM      6  C   UNL d   1     -48.588  12.478  21.701  0.00  0.00     0.025 A 
ENDROOT
BRANCH   1   7
ATOM      7  C   UNL d   1     -47.539  11.181  23.106  0.00  0.00     0.281 C 
ATOM      8  N   UNL d   1     -46.806  11.461  23.355  0.00  0.00    -0.189 NA
ATOM      9  O   UNL d   1     -47.718  10.384  23.189  0.00  0.00    -0.265 OA
BRANCH   8  10
ATOM     10  C   UNL d   1     -46.623  12.278  23.270  0.00  0.00     0.166 A 
ATOM     11  N   UNL d   1     -46.026  12.476  22.725  0.00  0.00    -0.227 NA
ATOM     12  C   UNL d   1     -45.830  13.250  22.624  0.00  0.00     0.083 A 
ATOM     13  C   UNL d   1     -45.218  13.529  22.074  0.00  0.00     0.021 C 
ATOM     14  C   UNL d   1     -46.236  13.836  23.072  0.00  0.00     0.019 A 
ATOM     15  C   UNL d   1     -46.828  13.615  23.610  0.00  0.00     0.005 A 
ATOM     16  C   UNL d   1     -47.001  12.833  23.688  0.00  0.00     0.039 A 
ENDBRANCH   8  10
ENDBRANCH   1   7
BRANCH   4  17
ATOM     17  O   UNL d   1     -49.843  13.210  21.838  0.00  0.00    -0.305 OA
BRANCH  17  18
ATOM     18  C   UNL d   1     -50.114  13.867  22.253  0.00  0.00     0.123 C 
BRANCH  18  19
ATOM     19  C   UNL d   1     -50.608  14.407  21.878  0.00  0.00     0.027 C 
BRANCH  19  20
ATOM     20  C   UNL d   1     -50.821  15.102  22.295  0.00  0.00     0.002 C 
ATOM     21  C   UNL d   1     -50.244  15.545  22.688  0.00  0.00     0.000 C 
ENDBRANCH  19  20
ENDBRANCH  18  19
ENDBRANCH  17  18
ENDBRANCH   4  17
TORSDOF 6
ENDMDL
MODEL 8
REMARK VINA RESULT:      -4.6      6.959      9.875
REMARK  6 active torsions:
REMARK  status: ('A' for Active; 'I' for Inactive)
REMARK       I    between atoms: N_2  and  C_1 
REMARK    1  A    between atoms: C_5  and  C_1 
REMARK    2  A    between atoms: C_3  and  N_2 
REMARK    3  A    between atoms: O_14  and  C_10 
REMARK    4  A    between atoms: C_18  and  O_14 
REMARK    5  A    between atoms: C_19  and  C_18 
REMARK    6  A    between atoms: C_20  and  C_19 
ROOT
ATOM      1  C   UNL d   1     -39.327  15.234  20.108  0.00  0.00     0.058 A 
ATOM      2  C   UNL d   1     -39.276  14.431  20.291  0.00  0.00     0.007 A 
ATOM      3  C   UNL d   1     -39.972  15.662  20.346  0.00  0.00     0.007 A 
ATOM      4  C   UNL d   1     -40.536  14.487  20.962  0.00  0.00     0.100 A 
ATOM      5  C   UNL d   1     -39.881  14.070  20.716  0.00  0.00     0.025 A 
ATOM      6  C   UNL d   1     -40.574  15.313  20.765  0.00  0.00     0.025 A 
ENDROOT
BRANCH   1   7
ATOM      7  C   UNL d   1     -38.703  15.581  19.677  0.00  0.00     0.281 C 
ATOM      8  N   UNL d   1     -38.702  15.587  18.854  0.00  0.00    -0.189 NA
ATOM      9  O   UNL d   1     -38.077  15.922  20.085  0.00  0.00    -0.265 OA
BRANCH   8  10
ATOM     10  C   UNL d   1     -39.343  15.236  18.436  0.00  0.00     0.166 A 
ATOM     11  N   UNL d   1     -39.916  15.752  18.124  0.00  0.00    -0.227 NA
ATOM     12  C   UNL d   1     -40.540  15.445  17.719  0.00  0.00     0.083 A 
ATOM     13  C   UNL d   1     -41.175  15.922  17.367  0.00  0.00     0.021 C 
ATOM     14  C   UNL d   1     -40.593  14.610  17.624  0.00  0.00     0.019 A 
ATOM     15  C   UNL d   1     -40.009  14.115  17.944  0.00  0.00     0.005 A 
ATOM     16  C   UNL d   1     -39.399  14.453  18.343  0.00  0.00     0.039 A 
ENDBRANCH   8  10
ENDBRANCH   1   7
BRANCH   4  17
ATOM     17  O   UNL d   1     -41.149  14.127  21.389  0.00  0.00    -0.305 OA
BRANCH  17  18
ATOM     18  C   UNL d   1     -41.810  13.815  21.011  0.00  0.00     0.123 C 
BRANCH  18  19
ATOM     19  C   UNL d   1     -42.328  13.335  21.434  0.00  0.00     0.027 C 
BRANCH  19  20
ATOM     20  C   UNL d   1     -43.061  13.138  21.078  0.00  0.00     0.002 C 
ATOM     21  C   UNL d   1     -43.598  12.649  21.474  0.00  0.00     0.000 C 
ENDBRANCH  19  20
ENDBRANCH  18  19
ENDBRANCH  17  18
ENDBRANCH   4  17
TORSDOF 6
ENDMDL
