MODEL 1
REMARK VINA RESULT:      -3.2      0.000      0.000
REMARK  6 active torsions:
REMARK  status: ('A' for Active; 'I' for Inactive)
REMARK    1  A    between atoms: C_9  and  N_1 
REMARK    2  A    between atoms: S_14  and  C_3 
REMARK    3  A    between atoms: N_8  and  C_10 
REMARK    4  A    between atoms: C_18  and  C_9 
REMARK    5  A    between atoms: C_19  and  S_14 
REMARK    6  A    between atoms: C_20  and  C_18 
ROOT
ATOM      1  N   UNL d   1      61.126   0.655  29.161  0.00  0.00    -0.195 NA
ATOM      2  C   UNL d   1      60.362   0.652  29.507  0.00  0.00     0.086 C 
ATOM      3  C   UNL d   1      59.618   0.641  29.839  0.00  0.00     0.170 C 
ENDROOT
BRANCH   3   4
ATOM      4  S   UNL d   1      59.085   0.040  29.645  0.00  0.00    -0.060 SA
BRANCH   4   5
ATOM      5  C   UNL d   1      58.486  -0.177  30.179  0.00  0.00     0.178 A 
ATOM      6  N   UNL d   1      58.139  -0.924  30.133  0.00  0.00    -0.253 N 
ATOM      7  C   UNL d   1      57.543  -1.138  30.666  0.00  0.00     0.268 A 
ATOM      8  C   UNL d   1      57.305  -0.594  31.239  0.00  0.00     0.076 A 
ATOM      9  O   UNL d   1      57.198  -1.881  30.621  0.00  0.00    -0.267 OA
ATOM     10  C   UNL d   1      56.716  -0.811  31.763  0.00  0.00     0.024 A 
ATOM     11  C   UNL d   1      57.649   0.145  31.285  0.00  0.00     0.088 A 
ATOM     12  C   UNL d   1      56.463  -0.279  32.345  0.00  0.00     0.065 A 
ATOM     13  C   UNL d   1      56.820   0.469  32.382  0.00  0.00     0.019 A 
ATOM     14  C   UNL d   1      57.406   0.681  31.858  0.00  0.00     0.021 A 
ATOM     15  N   UNL d   1      58.240   0.361  30.758  0.00  0.00    -0.222 NA
BRANCH   6  16
ATOM     16  C   UNL d   1      58.390  -1.454  29.554  0.00  0.00     0.085 C 
BRANCH  16  17
ATOM     17  C   UNL d   1      58.338  -2.266  29.695  0.00  0.00     0.019 C 
BRANCH  17  18
ATOM     18  C   UNL d   1      58.827  -2.791  29.282  0.00  0.00     0.002 A 
ATOM     19  C   UNL d   1      59.638  -2.662  29.253  0.00  0.00     0.000 A 
ATOM     20  C   UNL d   1      60.126  -3.183  28.842  0.00  0.00     0.000 A 
ATOM     21  C   UNL d   1      59.797  -3.842  28.455  0.00  0.00     0.000 A 
ATOM     22  C   UNL d   1      58.978  -3.968  28.487  0.00  0.00     0.000 A 
ATOM     23  C   UNL d   1      58.489  -3.447  28.898  0.00  0.00     0.000 A 
ENDBRANCH  17  18
ENDBRANCH  16  17
ENDBRANCH   6  16
BRANCH  12  24
ATOM     24  N   UNL d   1      55.873  -0.487  32.876  0.00  0.00    -0.300 N 
ATOM     25  C   UNL d   1      55.376   0.094  33.195  0.00  0.00     0.107 A 
ATOM     26  C   UNL d   1      54.788  -0.122  33.725  0.00  0.00     0.142 A 
ATOM     27  O   UNL d   1      54.690  -0.916  33.941  0.00  0.00    -0.300 OA
ATOM     28  C   UNL d   1      55.186  -1.497  33.622  0.00  0.00     0.142 A 
ATOM     29  C   UNL d   1      55.781  -1.283  33.087  0.00  0.00     0.107 A 
ENDBRANCH  12  24
ENDBRANCH   4   5
ENDBRANCH   3   4
TORSDOF 6
ENDMDL
