MODEL 1
REMARK VINA RESULT:      -3.3      0.000      0.000
REMARK  6 active torsions:
REMARK  status: ('A' for Active; 'I' for Inactive)
REMARK    1  A    between atoms: C_9  and  C_2 
REMARK    2  A    between atoms: C_13  and  C_8 
REMARK       I    between atoms: N_10  and  C_9 
REMARK    3  A    between atoms: C_15  and  N_10 
REMARK    4  A    between atoms: N_14  and  C_12 
REMARK    5  A    between atoms: C_21  and  N_14 
REMARK    6  A    between atoms: C_22  and  N_14 
ROOT
ATOM      1  C   UNL d   1     -44.770  13.160  21.930  0.00  0.00     0.180 A 
ATOM      2  C   UNL d   1     -43.496  13.039  21.575  0.00  0.00     0.106 A 
ATOM      3  N   UNL d   1     -44.480  12.450  22.256  0.00  0.00    -0.283 N 
ATOM      4  S   UNL d   1     -44.155  13.511  21.515  0.00  0.00    -0.044 SA
ATOM      5  N   UNL d   1     -45.558  13.230  22.152  0.00  0.00    -0.221 NA
ATOM      6  C   UNL d   1     -43.693  12.379  22.034  0.00  0.00     0.077 A 
ATOM      7  C   UNL d   1     -45.095  12.099  22.672  0.00  0.00     0.101 A 
ATOM      8  C   UNL d   1     -45.760  12.586  22.604  0.00  0.00     0.101 A 
ATOM      9  C   UNL d   1     -43.186  11.747  22.241  0.00  0.00     0.020 C 
ENDROOT
BRANCH   2  10
ATOM     10  C   UNL d   1     -42.755  13.200  21.231  0.00  0.00     0.287 C 
ATOM     11  N   UNL d   1     -42.348  13.888  21.437  0.00  0.00    -0.208 NA
ATOM     12  O   UNL d   1     -42.441  12.673  20.692  0.00  0.00    -0.265 OA
BRANCH  11  13
ATOM     13  C   UNL d   1     -41.615  14.039  21.091  0.00  0.00     0.085 A 
ATOM     14  C   UNL d   1     -40.913  13.898  21.513  0.00  0.00     0.021 A 
ATOM     15  C   UNL d   1     -40.182  14.048  21.174  0.00  0.00     0.019 A 
ATOM     16  C   UNL d   1     -40.156  14.344  20.399  0.00  0.00     0.064 A 
ATOM     17  C   UNL d   1     -40.846  14.487  19.972  0.00  0.00     0.019 A 
ATOM     18  C   UNL d   1     -41.570  14.334  20.323  0.00  0.00     0.021 A 
BRANCH  16  19
ATOM     19  N   UNL d   1     -39.432  14.501  20.039  0.00  0.00    -0.304 N 
BRANCH  19  20
ATOM     20  C   UNL d   1     -38.924  15.052  20.372  0.00  0.00     0.080 C 
ATOM     21  C   UNL d   1     -38.583  15.636  19.898  0.00  0.00     0.021 C 
ENDBRANCH  19  20
BRANCH  19  22
ATOM     22  C   UNL d   1     -39.214  14.111  19.350  0.00  0.00     0.080 C 
ATOM     23  C   UNL d   1     -38.467  13.768  19.279  0.00  0.00     0.021 C 
ENDBRANCH  19  22
ENDBRANCH  16  19
ENDBRANCH  11  13
ENDBRANCH   2  10
BRANCH   8  24
ATOM     24  C   UNL d   1     -46.504  12.476  22.919  0.00  0.00     0.019 A 
ATOM     25  C   UNL d   1     -46.674  11.816  23.379  0.00  0.00     0.002 A 
ATOM     26  C   UNL d   1     -47.427  11.704  23.698  0.00  0.00     0.000 A 
ATOM     27  C   UNL d   1     -48.027  12.266  23.555  0.00  0.00     0.000 A 
ATOM     28  C   UNL d   1     -47.857  12.927  23.094  0.00  0.00     0.000 A 
ATOM     29  C   UNL d   1     -47.101  13.038  22.774  0.00  0.00     0.002 A 
ENDBRANCH   8  24
TORSDOF 6
ENDMDL
MODEL 2
REMARK VINA RESULT:      -3.1      1.092      6.686
REMARK  6 active torsions:
REMARK  status: ('A' for Active; 'I' for Inactive)
REMARK    1  A    between atoms: C_9  and  C_2 
REMARK    2  A    between atoms: C_13  and  C_8 
REMARK       I    between atoms: N_10  and  C_9 
REMARK    3  A    between atoms: C_15  and  N_10 
REMARK    4  A    between atoms: N_14  and  C_12 
REMARK    5  A    between atoms: C_21  and  N_14 
REMARK    6  A    between atoms: C_22  and  N_14 
ROOT
ATOM      1  C   UNL d   1     -42.963  13.784  21.236  0.00  0.00     0.180 A 
ATOM      2  C   UNL d   1     -43.958  13.087  21.771  0.00  0.00     0.106 A 
ATOM      3  N   UNL d   1     -42.657  13.050  21.484  0.00  0.00    -0.283 N 
ATOM      4  S   UNL d   1     -43.763  13.792  21.418  0.00  0.00    -0.044 SA
ATOM      5  N   UNL d   1     -42.343  14.210  20.905  0.00  0.00    -0.221 NA
ATOM      6  C   UNL d   1     -43.275  12.622  21.815  0.00  0.00     0.077 A 
ATOM      7  C   UNL d   1     -41.856  13.040  21.302  0.00  0.00     0.101 A 
ATOM      8  C   UNL d   1     -41.668  13.761  20.944  0.00  0.00     0.101 A 
ATOM      9  C   UNL d   1     -43.215  11.853  22.136  0.00  0.00     0.020 C 
ENDROOT
BRANCH   2  10
ATOM     10  C   UNL d   1     -44.719  12.877  22.040  0.00  0.00     0.287 C 
ATOM     11  N   UNL d   1     -45.290  13.462  22.152  0.00  0.00    -0.208 NA
ATOM     12  O   UNL d   1     -44.888  12.092  22.188  0.00  0.00    -0.265 OA
BRANCH  11  13
ATOM     13  C   UNL d   1     -46.039  13.246  22.417  0.00  0.00     0.085 A 
ATOM     14  C   UNL d   1     -46.199  13.193  23.232  0.00  0.00     0.021 A 
ATOM     15  C   UNL d   1     -46.943  12.979  23.500  0.00  0.00     0.019 A 
ATOM     16  C   UNL d   1     -47.535  12.815  22.944  0.00  0.00     0.064 A 
ATOM     17  C   UNL d   1     -47.388  12.863  22.134  0.00  0.00     0.019 A 
ATOM     18  C   UNL d   1     -46.640  13.079  21.878  0.00  0.00     0.021 A 
BRANCH  16  19
ATOM     19  N   UNL d   1     -48.290  12.597  23.192  0.00  0.00    -0.304 N 
BRANCH  19  20
ATOM     20  C   UNL d   1     -48.940  13.035  22.950  0.00  0.00     0.080 C 
ATOM     21  C   UNL d   1     -49.534  13.223  23.491  0.00  0.00     0.021 C 
ENDBRANCH  19  20
BRANCH  19  22
ATOM     22  C   UNL d   1     -48.399  11.946  23.681  0.00  0.00     0.080 C 
ATOM     23  C   UNL d   1     -49.038  11.438  23.568  0.00  0.00     0.021 C 
ENDBRANCH  19  22
ENDBRANCH  16  19
ENDBRANCH  11  13
ENDBRANCH   2  10
BRANCH   8  24
ATOM     24  C   UNL d   1     -40.945  14.016  20.665  0.00  0.00     0.019 A 
ATOM     25  C   UNL d   1     -40.834  14.178  19.866  0.00  0.00     0.002 A 
ATOM     26  C   UNL d   1     -40.103  14.435  19.584  0.00  0.00     0.000 A 
ATOM     27  C   UNL d   1     -39.464  14.534  20.112  0.00  0.00     0.000 A 
ATOM     28  C   UNL d   1     -39.574  14.371  20.911  0.00  0.00     0.000 A 
ATOM     29  C   UNL d   1     -40.309  14.113  21.194  0.00  0.00     0.002 A 
ENDBRANCH   8  24
TORSDOF 6
ENDMDL
MODEL 3
REMARK VINA RESULT:      -3.1      1.524      2.841
REMARK  6 active torsions:
REMARK  status: ('A' for Active; 'I' for Inactive)
REMARK    1  A    between atoms: C_9  and  C_2 
REMARK    2  A    between atoms: C_13  and  C_8 
REMARK       I    between atoms: N_10  and  C_9 
REMARK    3  A    between atoms: C_15  and  N_10 
REMARK    4  A    between atoms: N_14  and  C_12 
REMARK    5  A    between atoms: C_21  and  N_14 
REMARK    6  A    between atoms: C_22  and  N_14 
ROOT
ATOM      1  C   UNL d   1     -47.425  13.010  22.402  0.00  0.00     0.180 A 
ATOM      2  C   UNL d   1     -46.099  13.061  22.451  0.00  0.00     0.106 A 
ATOM      3  N   UNL d   1     -47.173  12.515  23.023  0.00  0.00    -0.283 N 
ATOM      4  S   UNL d   1     -46.755  13.338  22.060  0.00  0.00    -0.044 SA
ATOM      5  N   UNL d   1     -48.245  12.975  22.375  0.00  0.00    -0.221 NA
ATOM      6  C   UNL d   1     -46.353  12.550  23.050  0.00  0.00     0.077 A 
ATOM      7  C   UNL d   1     -47.843  12.187  23.365  0.00  0.00     0.101 A 
ATOM      8  C   UNL d   1     -48.504  12.475  22.960  0.00  0.00     0.101 A 
ATOM      9  C   UNL d   1     -45.869  12.136  23.592  0.00  0.00     0.020 C 
ENDROOT
BRANCH   2  10
ATOM     10  C   UNL d   1     -45.310  13.262  22.273  0.00  0.00     0.287 C 
ATOM     11  N   UNL d   1     -44.874  12.791  21.754  0.00  0.00    -0.208 NA
ATOM     12  O   UNL d   1     -44.980  13.926  22.615  0.00  0.00    -0.265 OA
BRANCH  11  13
ATOM     13  C   UNL d   1     -44.095  12.997  21.583  0.00  0.00     0.085 A 
ATOM     14  C   UNL d   1     -43.485  12.436  21.651  0.00  0.00     0.021 A 
ATOM     15  C   UNL d   1     -42.709  12.636  21.482  0.00  0.00     0.019 A 
ATOM     16  C   UNL d   1     -42.542  13.412  21.242  0.00  0.00     0.064 A 
ATOM     17  C   UNL d   1     -43.138  13.977  21.171  0.00  0.00     0.019 A 
ATOM     18  C   UNL d   1     -43.910  13.764  21.343  0.00  0.00     0.021 A 
BRANCH  16  19
ATOM     19  N   UNL d   1     -41.768  13.635  21.067  0.00  0.00    -0.304 N 
BRANCH  19  20
ATOM     20  C   UNL d   1     -41.619  14.106  20.411  0.00  0.00     0.080 C 
ATOM     21  C   UNL d   1     -40.914  14.016  19.992  0.00  0.00     0.021 C 
ENDBRANCH  19  20
BRANCH  19  22
ATOM     22  C   UNL d   1     -41.144  13.391  21.542  0.00  0.00     0.080 C 
ATOM     23  C   UNL d   1     -40.508  13.893  21.691  0.00  0.00     0.021 C 
ENDBRANCH  19  22
ENDBRANCH  16  19
ENDBRANCH  11  13
ENDBRANCH   2  10
BRANCH   8  24
ATOM     24  C   UNL d   1     -49.292  12.311  23.093  0.00  0.00     0.019 A 
ATOM     25  C   UNL d   1     -49.517  11.672  23.560  0.00  0.00     0.002 A 
ATOM     26  C   UNL d   1     -50.314  11.507  23.695  0.00  0.00     0.000 A 
ATOM     27  C   UNL d   1     -50.903  11.991  23.354  0.00  0.00     0.000 A 
ATOM     28  C   UNL d   1     -50.678  12.629  22.887  0.00  0.00     0.000 A 
ATOM     29  C   UNL d   1     -49.877  12.795  22.752  0.00  0.00     0.002 A 
ENDBRANCH   8  24
TORSDOF 6
ENDMDL
MODEL 4
REMARK VINA RESULT:      -1.8      1.202      6.732
REMARK  6 active torsions:
REMARK  status: ('A' for Active; 'I' for Inactive)
REMARK    1  A    between atoms: C_9  and  C_2 
REMARK    2  A    between atoms: C_13  and  C_8 
REMARK       I    between atoms: N_10  and  C_9 
REMARK    3  A    between atoms: C_15  and  N_10 
REMARK    4  A    between atoms: N_14  and  C_12 
REMARK    5  A    between atoms: C_21  and  N_14 
REMARK    6  A    between atoms: C_22  and  N_14 
ROOT
ATOM      1  C   UNL d   1     -40.994  14.058  19.479  0.00  0.00     0.180 A 
ATOM      2  C   UNL d   1     -41.740  13.848  20.557  0.00  0.00     0.106 A 
ATOM      3  N   UNL d   1     -40.520  14.200  20.150  0.00  0.00    -0.283 N 
ATOM      4  S   UNL d   1     -41.740  13.842  19.745  0.00  0.00    -0.044 SA
ATOM      5  N   UNL d   1     -40.528  14.189  18.816  0.00  0.00    -0.221 NA
ATOM      6  C   UNL d   1     -40.986  14.069  20.814  0.00  0.00     0.077 A 
ATOM      7  C   UNL d   1     -39.773  14.416  19.885  0.00  0.00     0.101 A 
ATOM      8  C   UNL d   1     -39.784  14.407  19.059  0.00  0.00     0.101 A 
ATOM      9  C   UNL d   1     -40.732  14.149  21.607  0.00  0.00     0.020 C 
ENDROOT
BRANCH   2  10
ATOM     10  C   UNL d   1     -42.393  13.661  21.040  0.00  0.00     0.287 C 
ATOM     11  N   UNL d   1     -42.812  12.962  20.910  0.00  0.00    -0.208 NA
ATOM     12  O   UNL d   1     -42.610  14.175  21.637  0.00  0.00    -0.265 OA
BRANCH  11  13
ATOM     13  C   UNL d   1     -43.457  12.785  21.392  0.00  0.00     0.085 A 
ATOM     14  C   UNL d   1     -43.394  12.202  21.982  0.00  0.00     0.021 A 
ATOM     15  C   UNL d   1     -44.032  12.023  22.464  0.00  0.00     0.019 A 
ATOM     16  C   UNL d   1     -44.744  12.434  22.351  0.00  0.00     0.064 A 
ATOM     17  C   UNL d   1     -44.817  13.013  21.770  0.00  0.00     0.019 A 
ATOM     18  C   UNL d   1     -44.172  13.183  21.295  0.00  0.00     0.021 A 
BRANCH  16  19
ATOM     19  N   UNL d   1     -45.398  12.269  22.825  0.00  0.00    -0.304 N 
BRANCH  19  20
ATOM     20  C   UNL d   1     -46.031  12.791  22.840  0.00  0.00     0.080 C 
ATOM     21  C   UNL d   1     -46.468  12.887  23.533  0.00  0.00     0.021 C 
ENDBRANCH  19  20
BRANCH  19  22
ATOM     22  C   UNL d   1     -45.424  11.587  23.282  0.00  0.00     0.080 C 
ATOM     23  C   UNL d   1     -46.140  11.207  23.431  0.00  0.00     0.021 C 
ENDBRANCH  19  22
ENDBRANCH  16  19
ENDBRANCH  11  13
ENDBRANCH   2  10
BRANCH   8  24
ATOM     24  C   UNL d   1     -39.177  14.581  18.542  0.00  0.00     0.019 A 
ATOM     25  C   UNL d   1     -38.869  15.342  18.493  0.00  0.00     0.002 A 
ATOM     26  C   UNL d   1     -38.255  15.516  17.970  0.00  0.00     0.000 A 
ATOM     27  C   UNL d   1     -37.940  14.917  17.482  0.00  0.00     0.000 A 
ATOM     28  C   UNL d   1     -38.248  14.156  17.531  0.00  0.00     0.000 A 
ATOM     29  C   UNL d   1     -38.865  13.981  18.057  0.00  0.00     0.002 A 
ENDBRANCH   8  24
TORSDOF 6
ENDMDL
