MODEL 1
REMARK VINA RESULT:      53.8      0.000      0.000
REMARK  5 active torsions:
REMARK  status: ('A' for Active; 'I' for Inactive)
REMARK    1  A    between atoms: C_11  and  N_2 
REMARK    2  A    between atoms: C_6  and  O_13 
REMARK    3  A    between atoms: C_12  and  C_7 
REMARK    4  A    between atoms: C_16  and  C_11 
REMARK    5  A    between atoms: O_13  and  C_16 
ROOT
ATOM      1  C   UNL d   1      58.698  49.345  51.604  0.00  0.00     0.142 C 
ENDROOT
BRANCH   1   2
ATOM      2  O   UNL d   1      57.960  49.707  51.594  0.00  0.00    -0.304 OA
BRANCH   2   3
ATOM      3  C   UNL d   1      57.413  49.497  51.013  0.00  0.00     0.100 A 
ATOM      4  C   UNL d   1      56.734  49.081  51.219  0.00  0.00     0.023 A 
ATOM      5  C   UNL d   1      56.185  48.868  50.648  0.00  0.00     0.002 A 
ATOM      6  C   UNL d   1      56.320  49.076  49.853  0.00  0.00     0.000 A 
ATOM      7  C   UNL d   1      57.002  49.494  49.645  0.00  0.00     0.002 A 
ATOM      8  C   UNL d   1      57.549  49.704  50.225  0.00  0.00     0.025 A 
ATOM      9  C   UNL d   1      57.135  49.699  48.859  0.00  0.00     0.000 C 
BRANCH   4  10
ATOM     10  C   UNL d   1      56.603  48.876  52.007  0.00  0.00     0.002 C 
ATOM     11  C   UNL d   1      56.034  48.311  52.204  0.00  0.00     0.000 C 
ATOM     12  C   UNL d   1      57.040  49.234  52.608  0.00  0.00     0.000 C 
ENDBRANCH   4  10
ENDBRANCH   2   3
ENDBRANCH   1   2
BRANCH   1  13
ATOM     13  C   UNL d   1      59.322  49.707  52.005  0.00  0.00     0.112 C 
BRANCH  13  14
ATOM     14  N   UNL d   1      60.096  49.542  51.790  0.00  0.00    -0.249 N 
ATOM     15  C   UNL d   1      60.628  49.494  52.430  0.00  0.00     0.378 A 
ATOM     16  O   UNL d   1      61.383  49.326  52.136  0.00  0.00    -0.258 OA
ATOM     17  O   UNL d   1      60.425  49.599  53.221  0.00  0.00    -0.237 OA
ATOM     18  C   UNL d   1      61.325  49.267  51.305  0.00  0.00     0.121 A 
ATOM     19  C   UNL d   1      61.885  49.112  50.717  0.00  0.00     0.026 A 
ATOM     20  C   UNL d   1      60.530  49.401  51.096  0.00  0.00     0.092 A 
ATOM     21  C   UNL d   1      61.657  49.089  49.927  0.00  0.00     0.002 A 
ATOM     22  C   UNL d   1      60.869  49.221  49.721  0.00  0.00     0.002 A 
ATOM     23  C   UNL d   1      60.302  49.378  50.302  0.00  0.00     0.020 A 
ENDBRANCH  13  14
ENDBRANCH   1  13
TORSDOF 5
ENDMDL
