MODEL 1
REMARK VINA RESULT:      83.2      0.000      0.000
REMARK  8 active torsions:
REMARK  status: ('A' for Active; 'I' for Inactive)
REMARK    1  A    between atoms: C_8  and  C_5 
REMARK    2  A    between atoms: S_22  and  C_6 
REMARK    3  A    between atoms: C_9  and  C_7 
REMARK    4  A    between atoms: C_12  and  C_9 
REMARK    5  A    between atoms: C_25  and  S_22 
REMARK    6  A    between atoms: O_24  and  C_26 
REMARK    7  A    between atoms: C_27  and  O_24 
REMARK    8  A    between atoms: C_26  and  C_25 
ROOT
ATOM      1  C   UNL d   1     -51.609  25.986  34.563  0.00  0.00     0.082 A 
ATOM      2  N   UNL d   1     -51.678  26.180  35.380  0.00  0.00    -0.238 NA
ATOM      3  C   UNL d   1     -50.470  26.983  35.272  0.00  0.00     0.092 A 
ATOM      4  C   UNL d   1     -50.980  26.291  34.125  0.00  0.00     0.019 A 
ATOM      5  C   UNL d   1     -50.415  26.784  34.474  0.00  0.00     0.019 A 
ATOM      6  C   UNL d   1     -51.116  26.672  35.729  0.00  0.00     0.120 A 
ATOM      7  C   UNL d   1     -52.074  25.518  34.069  0.00  0.00     0.018 A 
ATOM      8  C   UNL d   1     -49.887  27.489  35.620  0.00  0.00     0.103 C 
ATOM      9  N   UNL d   1     -49.310  27.990  35.965  0.00  0.00    -0.191 NA
ATOM     10  C   UNL d   1     -51.060  26.007  33.354  0.00  0.00     0.002 A 
ATOM     11  C   UNL d   1     -51.739  25.525  33.313  0.00  0.00     0.002 A 
ENDROOT
BRANCH   5  12
ATOM     12  C   UNL d   1     -49.784  27.084  34.014  0.00  0.00     0.030 A 
ATOM     13  S   UNL d   1     -49.190  26.582  33.783  0.00  0.00    -0.086 SA
ATOM     14  C   UNL d   1     -48.645  27.008  33.343  0.00  0.00     0.035 A 
ATOM     15  C   UNL d   1     -48.921  27.778  33.312  0.00  0.00     0.007 A 
ATOM     16  C   UNL d   1     -49.624  27.815  33.729  0.00  0.00     0.007 A 
ENDBRANCH   5  12
BRANCH   6  17
ATOM     17  S   UNL d   1     -51.183  26.862  36.528  0.00  0.00    -0.065 SA
BRANCH  17  18
ATOM     18  C   UNL d   1     -51.016  26.293  37.112  0.00  0.00     0.064 C 
BRANCH  18  19
ATOM     19  C   UNL d   1     -51.412  26.318  37.859  0.00  0.00     0.130 C 
BRANCH  19  20
ATOM     20  O   UNL d   1     -51.789  25.634  38.139  0.00  0.00    -0.303 OA
BRANCH  20  21
ATOM     21  C   UNL d   1     -52.591  25.686  38.402  0.00  0.00     0.123 C 
ATOM     22  C   UNL d   1     -52.837  25.230  39.024  0.00  0.00     0.029 C 
ENDBRANCH  20  21
ENDBRANCH  19  20
ENDBRANCH  18  19
ENDBRANCH  17  18
ENDBRANCH   6  17
BRANCH   7  23
ATOM     23  C   UNL d   1     -52.777  25.093  34.276  0.00  0.00     0.008 C 
BRANCH  23  24
ATOM     24  C   UNL d   1     -52.947  24.370  33.896  0.00  0.00     0.029 A 
ATOM     25  S   UNL d   1     -52.461  23.764  33.648  0.00  0.00    -0.086 SA
ATOM     26  C   UNL d   1     -52.950  23.189  33.306  0.00  0.00     0.035 A 
ATOM     27  C   UNL d   1     -53.708  23.457  33.355  0.00  0.00     0.007 A 
ATOM     28  C   UNL d   1     -53.724  24.175  33.712  0.00  0.00     0.007 A 
ENDBRANCH  23  24
ENDBRANCH   7  23
TORSDOF 8
ENDMDL
