MODEL 1
REMARK VINA RESULT:       3.0      0.000      0.000
REMARK  5 active torsions:
REMARK  status: ('A' for Active; 'I' for Inactive)
REMARK    1  A    between atoms: C_3  and  C_1 
REMARK    2  A    between atoms: C_7  and  C_3 
REMARK    3  A    between atoms: N_9  and  C_3 
REMARK    4  A    between atoms: C_17  and  C_8 
REMARK    5  A    between atoms: C_10  and  N_9 
ROOT
ATOM      1  C   UNL d   1      58.314  -0.879  29.905  0.00  0.00     0.111 C 
ENDROOT
BRANCH   1   2
ATOM      2  C   UNL d   1      58.063  -0.640  30.665  0.00  0.00     0.160 A 
ATOM      3  C   UNL d   1      57.362  -0.928  30.987  0.00  0.00     0.258 A 
ATOM      4  C   UNL d   1      57.131  -0.676  31.745  0.00  0.00     0.238 A 
ATOM      5  O   UNL d   1      56.873  -1.472  30.567  0.00  0.00    -0.281 OA
ATOM      6  O   UNL d   1      56.420  -0.969  32.072  0.00  0.00    -0.283 OA
ATOM      7  C   UNL d   1      57.588  -0.145  32.180  0.00  0.00     0.073 A 
ATOM      8  C   UNL d   1      58.290   0.143  31.858  0.00  0.00     0.146 A 
ATOM      9  O   UNL d   1      58.523  -0.104  31.105  0.00  0.00    -0.299 OA
BRANCH   8  10
ATOM     10  C   UNL d   1      58.738   0.682  32.318  0.00  0.00     0.259 C 
ATOM     11  O   UNL d   1      58.730   0.635  33.139  0.00  0.00    -0.281 OA
ENDBRANCH   8  10
ENDBRANCH   1   2
BRANCH   1  12
ATOM     12  C   UNL d   1      58.789  -0.357  29.452  0.00  0.00     0.047 A 
ATOM     13  C   UNL d   1      58.438   0.153  28.907  0.00  0.00     0.142 A 
ATOM     14  F   UNL d   1      57.937   0.174  28.824  0.00  0.00    -0.204 F 
ATOM     15  C   UNL d   1      58.893   0.672  28.456  0.00  0.00     0.030 A 
ATOM     16  C   UNL d   1      59.711   0.680  28.550  0.00  0.00     0.002 A 
ATOM     17  C   UNL d   1      60.062   0.170  29.095  0.00  0.00     0.000 A 
ATOM     18  C   UNL d   1      59.608  -0.348  29.546  0.00  0.00     0.004 A 
ENDBRANCH   1  12
BRANCH   1  19
ATOM     19  N   UNL d   1      58.099  -1.612  29.606  0.00  0.00    -0.225 NA
BRANCH  19  20
ATOM     20  C   UNL d   1      58.674  -2.214  29.500  0.00  0.00     0.163 A 
ATOM     21  N   UNL d   1      59.329  -2.251  29.986  0.00  0.00    -0.225 NA
ATOM     22  C   UNL d   1      59.888  -2.835  29.883  0.00  0.00     0.101 A 
ATOM     23  C   UNL d   1      59.792  -3.408  29.273  0.00  0.00     0.021 A 
ATOM     24  C   UNL d   1      59.137  -3.371  28.788  0.00  0.00     0.005 A 
ATOM     25  C   UNL d   1      58.564  -2.774  28.891  0.00  0.00     0.039 A 
ENDBRANCH  19  20
ENDBRANCH   1  19
TORSDOF 5
ENDMDL
MODEL 2
REMARK VINA RESULT:       3.3      1.387      2.435
REMARK  5 active torsions:
REMARK  status: ('A' for Active; 'I' for Inactive)
REMARK    1  A    between atoms: C_3  and  C_1 
REMARK    2  A    between atoms: C_7  and  C_3 
REMARK    3  A    between atoms: N_9  and  C_3 
REMARK    4  A    between atoms: C_17  and  C_8 
REMARK    5  A    between atoms: C_10  and  N_9 
ROOT
ATOM      1  C   UNL d   1      58.357  -0.202  30.121  0.00  0.00     0.111 C 
ENDROOT
BRANCH   1   2
ATOM      2  C   UNL d   1      57.755  -0.117  30.693  0.00  0.00     0.160 A 
ATOM      3  C   UNL d   1      57.039   0.243  30.500  0.00  0.00     0.258 A 
ATOM      4  C   UNL d   1      56.452   0.317  31.084  0.00  0.00     0.238 A 
ATOM      5  O   UNL d   1      56.887   0.536  29.724  0.00  0.00    -0.281 OA
ATOM      6  O   UNL d   1      55.726   0.682  30.888  0.00  0.00    -0.283 OA
ATOM      7  C   UNL d   1      56.572   0.040  31.852  0.00  0.00     0.073 A 
ATOM      8  C   UNL d   1      57.287  -0.319  32.045  0.00  0.00     0.146 A 
ATOM      9  O   UNL d   1      57.873  -0.396  31.468  0.00  0.00    -0.299 OA
BRANCH   8  10
ATOM     10  C   UNL d   1      57.386  -0.594  32.831  0.00  0.00     0.259 C 
ATOM     11  O   UNL d   1      57.449  -0.060  33.453  0.00  0.00    -0.281 OA
ENDBRANCH   8  10
ENDBRANCH   1   2
BRANCH   1  12
ATOM     12  C   UNL d   1      58.468  -0.951  29.759  0.00  0.00     0.047 A 
ATOM     13  C   UNL d   1      58.468  -1.015  28.936  0.00  0.00     0.142 A 
ATOM     14  F   UNL d   1      58.404  -0.620  28.623  0.00  0.00    -0.204 F 
ATOM     15  C   UNL d   1      58.576  -1.744  28.567  0.00  0.00     0.030 A 
ATOM     16  C   UNL d   1      58.685  -2.420  29.027  0.00  0.00     0.002 A 
ATOM     17  C   UNL d   1      58.684  -2.355  29.848  0.00  0.00     0.000 A 
ATOM     18  C   UNL d   1      58.576  -1.626  30.218  0.00  0.00     0.004 A 
ENDBRANCH   1  12
BRANCH   1  19
ATOM     19  N   UNL d   1      58.832   0.434  29.916  0.00  0.00    -0.225 NA
BRANCH  19  20
ATOM     20  C   UNL d   1      59.604   0.509  30.237  0.00  0.00     0.163 A 
ATOM     21  N   UNL d   1      59.721   0.489  31.044  0.00  0.00    -0.225 NA
ATOM     22  C   UNL d   1      60.471   0.562  31.356  0.00  0.00     0.101 A 
ATOM     23  C   UNL d   1      61.133   0.660  30.843  0.00  0.00     0.021 A 
ATOM     24  C   UNL d   1      61.016   0.680  30.036  0.00  0.00     0.005 A 
ATOM     25  C   UNL d   1      60.249   0.606  29.715  0.00  0.00     0.039 A 
ENDBRANCH  19  20
ENDBRANCH   1  19
TORSDOF 5
ENDMDL
