MODEL 1
REMARK VINA RESULT:      -2.6      0.000      0.000
REMARK  2 active torsions:
REMARK  status: ('A' for Active; 'I' for Inactive)
REMARK    1  A    between atoms: C_7  and  C_4 
REMARK    2  A    between atoms: O_13  and  C_11 
ROOT
ATOM      1  N   UNL d   1      32.016  18.324 -24.014  0.00  0.00    -0.211 NA
ATOM      2  C   UNL d   1      31.799  17.571 -24.299  0.00  0.00     0.140 A 
ATOM      3  C   UNL d   1      32.178  16.900 -24.011  0.00  0.00     0.051 A 
ATOM      4  C   UNL d   1      32.612  18.388 -23.443  0.00  0.00     0.183 A 
ATOM      5  C   UNL d   1      32.771  16.969 -23.443  0.00  0.00     0.104 A 
ATOM      6  O   UNL d   1      32.989  17.713 -23.158  0.00  0.00    -0.289 OA
ATOM      7  S   UNL d   1      31.206  17.498 -24.867  0.00  0.00    -0.057 SA
ATOM      8  C   UNL d   1      31.967  16.152 -24.290  0.00  0.00     0.004 A 
ATOM      9  C   UNL d   1      33.153  16.302 -23.152  0.00  0.00     0.025 A 
ATOM     10  C   UNL d   1      32.346  15.472 -24.003  0.00  0.00     0.000 A 
ATOM     11  C   UNL d   1      32.939  15.553 -23.435  0.00  0.00     0.002 A 
ENDROOT
BRANCH   4  12
ATOM     12  C   UNL d   1      32.821  19.133 -23.167  0.00  0.00     0.043 A 
ATOM     13  C   UNL d   1      32.868  19.288 -22.368  0.00  0.00     0.028 A 
ATOM     14  C   UNL d   1      33.076  20.032 -22.098  0.00  0.00     0.094 A 
ATOM     15  C   UNL d   1      33.241  20.636 -22.637  0.00  0.00     0.024 A 
ATOM     16  C   UNL d   1      33.193  20.480 -23.448  0.00  0.00     0.002 A 
ATOM     17  C   UNL d   1      32.984  19.733 -23.721  0.00  0.00     0.004 A 
BRANCH  14  18
ATOM     18  O   UNL d   1      33.123  20.185 -21.291  0.00  0.00    -0.328 OA
ATOM     19  C   UNL d   1      32.771  20.859 -20.975  0.00  0.00     0.181 C 
ENDBRANCH  14  18
ENDBRANCH   4  12
TORSDOF 2
ENDMDL
MODEL 2
REMARK VINA RESULT:      -2.6      2.595      5.394
REMARK  2 active torsions:
REMARK  status: ('A' for Active; 'I' for Inactive)
REMARK    1  A    between atoms: C_7  and  C_4 
REMARK    2  A    between atoms: O_13  and  C_11 
ROOT
ATOM      1  N   UNL d   1      32.400  22.392 -21.718  0.00  0.00    -0.211 NA
ATOM      2  C   UNL d   1      32.257  23.034 -21.204  0.00  0.00     0.140 A 
ATOM      3  C   UNL d   1      32.537  23.009 -20.431  0.00  0.00     0.051 A 
ATOM      4  C   UNL d   1      32.825  21.736 -21.443  0.00  0.00     0.183 A 
ATOM      5  C   UNL d   1      32.959  22.354 -20.163  0.00  0.00     0.104 A 
ATOM      6  O   UNL d   1      33.103  21.717 -20.668  0.00  0.00    -0.289 OA
ATOM      7  S   UNL d   1      31.835  23.691 -21.469  0.00  0.00    -0.057 SA
ATOM      8  C   UNL d   1      32.397  23.641 -19.919  0.00  0.00     0.004 A 
ATOM      9  C   UNL d   1      33.241  22.324 -19.392  0.00  0.00     0.025 A 
ATOM     10  C   UNL d   1      32.678  23.621 -19.138  0.00  0.00     0.000 A 
ATOM     11  C   UNL d   1      33.099  22.960 -18.880  0.00  0.00     0.002 A 
ENDROOT
BRANCH   4  12
ATOM     12  C   UNL d   1      32.962  21.109 -21.955  0.00  0.00     0.043 A 
ATOM     13  C   UNL d   1      32.964  20.339 -21.686  0.00  0.00     0.028 A 
ATOM     14  C   UNL d   1      33.102  19.717 -22.200  0.00  0.00     0.094 A 
ATOM     15  C   UNL d   1      33.241  19.866 -23.000  0.00  0.00     0.024 A 
ATOM     16  C   UNL d   1      33.240  20.647 -23.275  0.00  0.00     0.002 A 
ATOM     17  C   UNL d   1      33.101  21.272 -22.760  0.00  0.00     0.004 A 
BRANCH  14  18
ATOM     18  O   UNL d   1      33.103  18.942 -21.925  0.00  0.00    -0.328 OA
ATOM     19  C   UNL d   1      32.979  18.316 -22.446  0.00  0.00     0.181 C 
ENDBRANCH  14  18
ENDBRANCH   4  12
TORSDOF 2
ENDMDL
MODEL 3
REMARK VINA RESULT:      -2.5      2.201      3.104
REMARK  2 active torsions:
REMARK  status: ('A' for Active; 'I' for Inactive)
REMARK    1  A    between atoms: C_7  and  C_4 
REMARK    2  A    between atoms: O_13  and  C_11 
ROOT
ATOM      1  N   UNL d   1      30.314  17.412 -24.550  0.00  0.00    -0.211 NA
ATOM      2  C   UNL d   1      29.494  17.260 -24.549  0.00  0.00     0.140 A 
ATOM      3  C   UNL d   1      29.190  16.659 -24.077  0.00  0.00     0.051 A 
ATOM      4  C   UNL d   1      30.815  16.955 -24.074  0.00  0.00     0.183 A 
ATOM      5  C   UNL d   1      29.693  16.207 -23.605  0.00  0.00     0.104 A 
ATOM      6  O   UNL d   1      30.505  16.354 -23.603  0.00  0.00    -0.289 OA
ATOM      7  S   UNL d   1      28.988  17.710 -25.020  0.00  0.00    -0.057 SA
ATOM      8  C   UNL d   1      28.379  16.504 -24.072  0.00  0.00     0.004 A 
ATOM      9  C   UNL d   1      29.395  15.605 -23.132  0.00  0.00     0.025 A 
ATOM     10  C   UNL d   1      28.068  15.899 -23.598  0.00  0.00     0.000 A 
ATOM     11  C   UNL d   1      28.580  15.453 -23.130  0.00  0.00     0.002 A 
ENDROOT
BRANCH   4  12
ATOM     12  C   UNL d   1      31.621  17.111 -24.080  0.00  0.00     0.043 A 
ATOM     13  C   UNL d   1      31.974  17.527 -23.474  0.00  0.00     0.028 A 
ATOM     14  C   UNL d   1      32.778  17.680 -23.485  0.00  0.00     0.094 A 
ATOM     15  C   UNL d   1      33.241  17.411 -24.114  0.00  0.00     0.024 A 
ATOM     16  C   UNL d   1      32.884  16.988 -24.729  0.00  0.00     0.002 A 
ATOM     17  C   UNL d   1      32.077  16.834 -24.720  0.00  0.00     0.004 A 
BRANCH  14  18
ATOM     18  O   UNL d   1      33.131  18.101 -22.872  0.00  0.00    -0.328 OA
ATOM     19  C   UNL d   1      33.180  18.922 -22.907  0.00  0.00     0.181 C 
ENDBRANCH  14  18
ENDBRANCH   4  12
TORSDOF 2
ENDMDL
MODEL 4
REMARK VINA RESULT:      -2.3      1.341      2.110
REMARK  2 active torsions:
REMARK  status: ('A' for Active; 'I' for Inactive)
REMARK    1  A    between atoms: C_7  and  C_4 
REMARK    2  A    between atoms: O_13  and  C_11 
ROOT
ATOM      1  N   UNL d   1      33.174  20.055 -23.312  0.00  0.00    -0.211 NA
ATOM      2  C   UNL d   1      33.168  19.503 -23.937  0.00  0.00     0.140 A 
ATOM      3  C   UNL d   1      33.091  18.700 -23.773  0.00  0.00     0.051 A 
ATOM      4  C   UNL d   1      33.102  19.788 -22.531  0.00  0.00     0.183 A 
ATOM      5  C   UNL d   1      33.020  18.440 -22.995  0.00  0.00     0.104 A 
ATOM      6  O   UNL d   1      33.025  18.984 -22.373  0.00  0.00    -0.289 OA
ATOM      7  S   UNL d   1      33.240  19.759 -24.718  0.00  0.00    -0.057 SA
ATOM      8  C   UNL d   1      33.085  18.150 -24.388  0.00  0.00     0.004 A 
ATOM      9  C   UNL d   1      32.942  17.640 -22.825  0.00  0.00     0.025 A 
ATOM     10  C   UNL d   1      33.008  17.339 -24.229  0.00  0.00     0.000 A 
ATOM     11  C   UNL d   1      32.937  17.090 -23.445  0.00  0.00     0.002 A 
ENDROOT
BRANCH   4  12
ATOM     12  C   UNL d   1      33.108  20.338 -21.921  0.00  0.00     0.043 A 
ATOM     13  C   UNL d   1      32.994  21.132 -22.068  0.00  0.00     0.028 A 
ATOM     14  C   UNL d   1      33.001  21.675 -21.456  0.00  0.00     0.094 A 
ATOM     15  C   UNL d   1      33.125  21.422 -20.680  0.00  0.00     0.024 A 
ATOM     16  C   UNL d   1      33.241  20.617 -20.529  0.00  0.00     0.002 A 
ATOM     17  C   UNL d   1      33.234  20.070 -21.143  0.00  0.00     0.004 A 
BRANCH  14  18
ATOM     18  O   UNL d   1      32.885  22.476 -21.609  0.00  0.00    -0.328 OA
ATOM     19  C   UNL d   1      32.296  22.893 -21.212  0.00  0.00     0.181 C 
ENDBRANCH  14  18
ENDBRANCH   4  12
TORSDOF 2
ENDMDL
MODEL 5
REMARK VINA RESULT:      -2.2      2.132      4.757
REMARK  2 active torsions:
REMARK  status: ('A' for Active; 'I' for Inactive)
REMARK    1  A    between atoms: C_7  and  C_4 
REMARK    2  A    between atoms: O_13  and  C_11 
ROOT
ATOM      1  N   UNL d   1      32.777  20.645 -21.460  0.00  0.00    -0.211 NA
ATOM      2  C   UNL d   1      32.783  21.425 -21.165  0.00  0.00     0.140 A 
ATOM      3  C   UNL d   1      32.935  22.053 -21.675  0.00  0.00     0.051 A 
ATOM      4  C   UNL d   1      32.924  20.510 -22.264  0.00  0.00     0.183 A 
ATOM      5  C   UNL d   1      33.081  21.914 -22.474  0.00  0.00     0.104 A 
ATOM      6  O   UNL d   1      33.075  21.143 -22.770  0.00  0.00    -0.289 OA
ATOM      7  S   UNL d   1      32.638  21.568 -20.366  0.00  0.00    -0.057 SA
ATOM      8  C   UNL d   1      32.942  22.827 -21.389  0.00  0.00     0.004 A 
ATOM      9  C   UNL d   1      33.233  22.537 -22.987  0.00  0.00     0.025 A 
ATOM     10  C   UNL d   1      33.095  23.464 -21.898  0.00  0.00     0.000 A 
ATOM     11  C   UNL d   1      33.240  23.313 -22.696  0.00  0.00     0.002 A 
ENDROOT
BRANCH   4  12
ATOM     12  C   UNL d   1      32.916  19.740 -22.546  0.00  0.00     0.043 A 
ATOM     13  C   UNL d   1      32.598  19.561 -23.276  0.00  0.00     0.028 A 
ATOM     14  C   UNL d   1      32.592  18.791 -23.552  0.00  0.00     0.094 A 
ATOM     15  C   UNL d   1      32.911  18.185 -23.092  0.00  0.00     0.024 A 
ATOM     16  C   UNL d   1      33.234  18.363 -22.352  0.00  0.00     0.002 A 
ATOM     17  C   UNL d   1      33.240  19.136 -22.072  0.00  0.00     0.004 A 
BRANCH  14  18
ATOM     18  O   UNL d   1      32.270  18.616 -24.289  0.00  0.00    -0.328 OA
ATOM     19  C   UNL d   1      31.913  17.886 -24.423  0.00  0.00     0.181 C 
ENDBRANCH  14  18
ENDBRANCH   4  12
TORSDOF 2
ENDMDL
MODEL 6
REMARK VINA RESULT:      -2.0      2.657      4.387
REMARK  2 active torsions:
REMARK  status: ('A' for Active; 'I' for Inactive)
REMARK    1  A    between atoms: C_7  and  C_4 
REMARK    2  A    between atoms: O_13  and  C_11 
ROOT
ATOM      1  N   UNL d   1      30.518  17.276 -24.612  0.00  0.00    -0.211 NA
ATOM      2  C   UNL d   1      31.279  17.611 -24.553  0.00  0.00     0.140 A 
ATOM      3  C   UNL d   1      31.877  17.200 -24.165  0.00  0.00     0.051 A 
ATOM      4  C   UNL d   1      30.372  16.531 -24.280  0.00  0.00     0.183 A 
ATOM      5  C   UNL d   1      31.727  16.459 -23.836  0.00  0.00     0.104 A 
ATOM      6  O   UNL d   1      30.974  16.124 -23.893  0.00  0.00    -0.289 OA
ATOM      7  S   UNL d   1      31.433  18.351 -24.881  0.00  0.00    -0.057 SA
ATOM      8  C   UNL d   1      32.633  17.527 -24.103  0.00  0.00     0.004 A 
ATOM      9  C   UNL d   1      32.321  16.045 -23.448  0.00  0.00     0.025 A 
ATOM     10  C   UNL d   1      33.240  17.117 -23.714  0.00  0.00     0.000 A 
ATOM     11  C   UNL d   1      33.078  16.376 -23.388  0.00  0.00     0.002 A 
ENDROOT
BRANCH   4  12
ATOM     12  C   UNL d   1      29.620  16.208 -24.342  0.00  0.00     0.043 A 
ATOM     13  C   UNL d   1      29.069  16.303 -23.748  0.00  0.00     0.028 A 
ATOM     14  C   UNL d   1      28.321  15.979 -23.816  0.00  0.00     0.094 A 
ATOM     15  C   UNL d   1      28.116  15.550 -24.491  0.00  0.00     0.024 A 
ATOM     16  C   UNL d   1      28.673  15.453 -25.095  0.00  0.00     0.002 A 
ATOM     17  C   UNL d   1      29.425  15.778 -25.028  0.00  0.00     0.004 A 
BRANCH  14  18
ATOM     18  O   UNL d   1      27.769  16.077 -23.213  0.00  0.00    -0.328 OA
ATOM     19  C   UNL d   1      27.082  15.622 -23.202  0.00  0.00     0.181 C 
ENDBRANCH  14  18
ENDBRANCH   4  12
TORSDOF 2
ENDMDL
MODEL 7
REMARK VINA RESULT:      -1.7      2.035      3.142
REMARK  2 active torsions:
REMARK  status: ('A' for Active; 'I' for Inactive)
REMARK    1  A    between atoms: C_7  and  C_4 
REMARK    2  A    between atoms: O_13  and  C_11 
ROOT
ATOM      1  N   UNL d   1      33.173  21.286 -23.054  0.00  0.00    -0.211 NA
ATOM      2  C   UNL d   1      33.207  20.616 -23.550  0.00  0.00     0.140 A 
ATOM      3  C   UNL d   1      33.207  19.863 -23.219  0.00  0.00     0.051 A 
ATOM      4  C   UNL d   1      33.140  21.185 -22.233  0.00  0.00     0.183 A 
ATOM      5  C   UNL d   1      33.173  19.768 -22.401  0.00  0.00     0.104 A 
ATOM      6  O   UNL d   1      33.140  20.429 -21.907  0.00  0.00    -0.289 OA
ATOM      7  S   UNL d   1      33.241  20.708 -24.369  0.00  0.00    -0.057 SA
ATOM      8  C   UNL d   1      33.240  19.196 -23.705  0.00  0.00     0.004 A 
ATOM      9  C   UNL d   1      33.173  19.018 -22.066  0.00  0.00     0.025 A 
ATOM     10  C   UNL d   1      33.240  18.434 -23.377  0.00  0.00     0.000 A 
ATOM     11  C   UNL d   1      33.207  18.351 -22.557  0.00  0.00     0.002 A 
ENDROOT
BRANCH   4  12
ATOM     12  C   UNL d   1      33.107  21.850 -21.751  0.00  0.00     0.043 A 
ATOM     13  C   UNL d   1      32.983  21.782 -20.948  0.00  0.00     0.028 A 
ATOM     14  C   UNL d   1      32.951  22.447 -20.473  0.00  0.00     0.094 A 
ATOM     15  C   UNL d   1      33.044  23.197 -20.805  0.00  0.00     0.024 A 
ATOM     16  C   UNL d   1      33.170  23.268 -21.620  0.00  0.00     0.002 A 
ATOM     17  C   UNL d   1      33.202  22.600 -22.099  0.00  0.00     0.004 A 
BRANCH  14  18
ATOM     18  O   UNL d   1      32.826  22.374 -19.662  0.00  0.00    -0.328 OA
ATOM     19  C   UNL d   1      33.140  22.931 -19.142  0.00  0.00     0.181 C 
ENDBRANCH  14  18
ENDBRANCH   4  12
TORSDOF 2
ENDMDL
MODEL 8
REMARK VINA RESULT:       0.2      2.855      4.114
REMARK  2 active torsions:
REMARK  status: ('A' for Active; 'I' for Inactive)
REMARK    1  A    between atoms: C_7  and  C_4 
REMARK    2  A    between atoms: O_13  and  C_11 
ROOT
ATOM      1  N   UNL d   1      30.062  16.174 -23.152  0.00  0.00    -0.211 NA
ATOM      2  C   UNL d   1      29.258  15.986 -23.036  0.00  0.00     0.140 A 
ATOM      3  C   UNL d   1      28.781  15.815 -23.684  0.00  0.00     0.051 A 
ATOM      4  C   UNL d   1      30.372  16.186 -23.919  0.00  0.00     0.183 A 
ATOM      5  C   UNL d   1      29.094  15.828 -24.446  0.00  0.00     0.104 A 
ATOM      6  O   UNL d   1      29.891  16.014 -24.565  0.00  0.00    -0.289 OA
ATOM      7  S   UNL d   1      28.941  15.972 -22.275  0.00  0.00    -0.057 SA
ATOM      8  C   UNL d   1      27.984  15.629 -23.575  0.00  0.00     0.004 A 
ATOM      9  C   UNL d   1      28.622  15.658 -25.096  0.00  0.00     0.025 A 
ATOM     10  C   UNL d   1      27.499  15.455 -24.225  0.00  0.00     0.000 A 
ATOM     11  C   UNL d   1      27.823  15.471 -24.983  0.00  0.00     0.002 A 
ENDROOT
BRANCH   4  12
ATOM     12  C   UNL d   1      31.165  16.372 -24.025  0.00  0.00     0.043 A 
ATOM     13  C   UNL d   1      31.753  15.925 -23.678  0.00  0.00     0.028 A 
ATOM     14  C   UNL d   1      32.541  16.115 -23.787  0.00  0.00     0.094 A 
ATOM     15  C   UNL d   1      32.750  16.764 -24.253  0.00  0.00     0.024 A 
ATOM     16  C   UNL d   1      32.155  17.218 -24.605  0.00  0.00     0.002 A 
ATOM     17  C   UNL d   1      31.362  17.029 -24.497  0.00  0.00     0.004 A 
BRANCH  14  18
ATOM     18  O   UNL d   1      33.131  15.661 -23.435  0.00  0.00    -0.328 OA
ATOM     19  C   UNL d   1      33.168  15.593 -22.615  0.00  0.00     0.181 C 
ENDBRANCH  14  18
ENDBRANCH   4  12
TORSDOF 2
ENDMDL
