MODEL 1
REMARK VINA RESULT:      44.7      0.000      0.000
REMARK  6 active torsions:
REMARK  status: ('A' for Active; 'I' for Inactive)
REMARK    1  A    between atoms: C_4  and  C_1 
REMARK    2  A    between atoms: C_13  and  N_3 
REMARK    3  A    between atoms: C_11  and  N_5 
REMARK    4  A    between atoms: C_16  and  C_13 
REMARK    5  A    between atoms: O_14  and  C_16 
REMARK    6  A    between atoms: C_15  and  O_14 
ROOT
ATOM      1  C   UNL d   1      46.142 -18.855  42.313  0.00  0.00     0.149 A 
ATOM      2  N   UNL d   1      46.043 -19.642  42.548  0.00  0.00    -0.227 NA
ATOM      3  N   UNL d   1      46.370 -18.410  42.985  0.00  0.00    -0.287 N 
ATOM      4  C   UNL d   1      46.408 -18.934  43.631  0.00  0.00     0.083 A 
ATOM      5  C   UNL d   1      46.208 -19.693  43.367  0.00  0.00     0.099 A 
ATOM      6  C   UNL d   1      46.602 -18.812  44.431  0.00  0.00     0.019 A 
ATOM      7  C   UNL d   1      46.198 -20.328  43.888  0.00  0.00     0.021 A 
ATOM      8  C   UNL d   1      46.591 -19.457  44.955  0.00  0.00     0.002 A 
ATOM      9  C   UNL d   1      46.389 -20.213  44.684  0.00  0.00     0.002 A 
ENDROOT
BRANCH   1  10
ATOM     10  C   UNL d   1      46.038 -18.555  41.553  0.00  0.00     0.057 A 
ATOM     11  C   UNL d   1      45.355 -18.208  41.257  0.00  0.00     0.081 A 
ATOM     12  N   UNL d   1      45.501 -17.989  40.471  0.00  0.00    -0.298 N 
ATOM     13  C   UNL d   1      46.275 -18.202  40.285  0.00  0.00     0.261 A 
ATOM     14  C   UNL d   1      46.609 -18.553  40.953  0.00  0.00     0.065 A 
ATOM     15  O   UNL d   1      46.647 -18.086  39.562  0.00  0.00    -0.267 OA
BRANCH  12  16
ATOM     16  C   UNL d   1      44.963 -17.621  39.965  0.00  0.00     0.071 C 
ATOM     17  C   UNL d   1      45.181 -17.465  39.185  0.00  0.00     0.023 C 
ATOM     18  C   UNL d   1      44.349 -17.256  39.566  0.00  0.00     0.023 C 
ATOM     19  C   UNL d   1      44.219 -17.413  40.239  0.00  0.00     0.023 C 
ENDBRANCH  12  16
ENDBRANCH   1  10
BRANCH   3  20
ATOM     20  C   UNL d   1      46.527 -17.606  43.002  0.00  0.00     0.108 C 
BRANCH  20  21
ATOM     21  C   UNL d   1      46.217 -17.134  43.608  0.00  0.00     0.142 C 
BRANCH  21  22
ATOM     22  O   UNL d   1      46.316 -16.322  43.594  0.00  0.00    -0.304 OA
BRANCH  22  23
ATOM     23  C   UNL d   1      45.816 -15.845  44.051  0.00  0.00     0.100 A 
ATOM     24  C   UNL d   1      45.941 -15.029  44.057  0.00  0.00     0.025 A 
ATOM     25  C   UNL d   1      45.441 -14.553  44.514  0.00  0.00     0.002 A 
ATOM     26  C   UNL d   1      44.832 -14.886  44.954  0.00  0.00     0.000 A 
ATOM     27  C   UNL d   1      44.720 -15.708  44.938  0.00  0.00     0.002 A 
ATOM     28  C   UNL d   1      45.216 -16.182  44.484  0.00  0.00     0.025 A 
ENDBRANCH  22  23
ENDBRANCH  21  22
ENDBRANCH  20  21
ENDBRANCH   3  20
TORSDOF 6
ENDMDL
