MODEL 1
REMARK VINA RESULT:      54.2      0.000      0.000
REMARK  5 active torsions:
REMARK  status: ('A' for Active; 'I' for Inactive)
REMARK    1  A    between atoms: C_2  and  S_1 
REMARK    2  A    between atoms: N_4  and  S_1 
REMARK    3  A    between atoms: C_15  and  N_4 
REMARK    4  A    between atoms: N_7  and  C_6 
REMARK    5  A    between atoms: C_12  and  C_13 
ROOT
ATOM      1  C   UNL d   1      13.366  13.336  -4.485  0.00  0.00     0.021 A 
ATOM      2  C   UNL d   1      13.029  12.174  -3.726  0.00  0.00     0.094 A 
ATOM      3  C   UNL d   1      13.327  12.942  -3.761  0.00  0.00     0.021 A 
ATOM      4  C   UNL d   1      13.106  12.962  -5.174  0.00  0.00     0.002 A 
ATOM      5  C   UNL d   1      12.809  12.196  -5.136  0.00  0.00     0.002 A 
ATOM      6  C   UNL d   1      12.770  11.802  -4.412  0.00  0.00     0.020 A 
ENDROOT
BRANCH   1   7
ATOM      7  C   UNL d   1      13.664  14.105  -4.521  0.00  0.00     0.103 A 
ATOM      8  N   UNL d   1      13.678  14.509  -5.241  0.00  0.00    -0.147 NA
ATOM      9  N   UNL d   1      13.977  15.278  -5.278  0.00  0.00    -0.130 NA
ATOM     10  C   UNL d   1      14.261  15.643  -4.594  0.00  0.00     0.170 A 
ATOM     11  C   UNL d   1      14.246  15.239  -3.875  0.00  0.00     0.041 A 
ATOM     12  C   UNL d   1      13.948  14.470  -3.838  0.00  0.00     0.024 A 
BRANCH  10  13
ATOM     13  N   UNL d   1      14.557  16.404  -4.627  0.00  0.00    -0.284 N 
ATOM     14  C   UNL d   1      15.072  16.675  -4.042  0.00  0.00     0.108 A 
ATOM     15  C   UNL d   1      15.369  17.436  -4.073  0.00  0.00     0.142 A 
ATOM     16  O   UNL d   1      15.150  17.935  -4.694  0.00  0.00    -0.300 OA
ATOM     17  C   UNL d   1      14.635  17.664  -5.279  0.00  0.00     0.142 A 
ATOM     18  C   UNL d   1      14.338  16.895  -5.243  0.00  0.00     0.108 A 
ENDBRANCH  10  13
ENDBRANCH   1   7
BRANCH   2  19
ATOM     19  N   UNL d   1      12.990  11.779  -3.002  0.00  0.00    -0.158 NA
BRANCH  19  20
ATOM     20  S   UNL d   1      13.519  11.967  -2.401  0.00  0.00     0.285 S 
ATOM     21  O   UNL d   1      14.149  11.903  -2.933  0.00  0.00    -0.198 OA
ATOM     22  O   UNL d   1      12.882  12.032  -1.867  0.00  0.00    -0.198 OA
BRANCH  20  23
ATOM     23  C   UNL d   1      14.056  12.156  -1.802  0.00  0.00     0.106 A 
ATOM     24  C   UNL d   1      13.868  12.708  -1.230  0.00  0.00     0.025 A 
ATOM     25  C   UNL d   1      14.402  12.896  -0.633  0.00  0.00     0.069 A 
ATOM     26 CL   UNL d   1      14.213  13.455  -0.054  0.00  0.00    -0.082 Cl
ATOM     27  C   UNL d   1      15.137  12.522  -0.614  0.00  0.00     0.068 A 
ATOM     28  C   UNL d   1      15.330  11.963  -1.190  0.00  0.00     0.013 A 
ATOM     29 CL   UNL d   1      15.691  12.702  -0.014  0.00  0.00    -0.082 Cl
ATOM     30  C   UNL d   1      14.791  11.781  -1.782  0.00  0.00     0.014 A 
ENDBRANCH  20  23
ENDBRANCH  19  20
ENDBRANCH   2  19
TORSDOF 5
ENDMDL
