MODEL 1
REMARK VINA RESULT:      -3.1      0.000      0.000
REMARK  3 active torsions:
REMARK  status: ('A' for Active; 'I' for Inactive)
REMARK    1  A    between atoms: N_3  and  S_1 
REMARK    2  A    between atoms: C_7  and  S_1 
REMARK    3  A    between atoms: C_10  and  N_3 
ROOT
ATOM      1  S   UNL d   1      32.901  20.675 -21.630  0.00  0.00     0.327 S 
ATOM      2  O   UNL d   1      33.227  21.383 -21.888  0.00  0.00    -0.186 OA
ATOM      3  O   UNL d   1      32.503  20.642 -20.911  0.00  0.00    -0.186 OA
ENDROOT
BRANCH   1   4
ATOM      4  N   UNL d   1      32.834  21.355 -21.176  0.00  0.00    -0.314 NA
BRANCH   4   5
ATOM      5  C   UNL d   1      32.765  22.050 -20.712  0.00  0.00     0.184 A 
ATOM      6  C   UNL d   1      32.219  22.636 -20.935  0.00  0.00     0.226 A 
ATOM      7  O   UNL d   1      31.752  22.536 -21.600  0.00  0.00    -0.284 OA
ATOM      8  C   UNL d   1      32.153  23.321 -20.475  0.00  0.00     0.045 A 
ATOM      9  C   UNL d   1      32.627  23.416 -19.804  0.00  0.00     0.004 A 
ATOM     10  C   UNL d   1      33.164  22.830 -19.593  0.00  0.00     0.003 A 
ATOM     11  C   UNL d   1      33.231  22.147 -20.050  0.00  0.00     0.036 A 
ENDBRANCH   4   5
ENDBRANCH   1   4
BRANCH   1  12
ATOM     12  C   UNL d   1      32.972  20.000 -22.091  0.00  0.00     0.118 A 
ATOM     13  C   UNL d   1      32.879  20.048 -22.905  0.00  0.00     0.035 A 
ATOM     14  C   UNL d   1      32.951  19.369 -23.373  0.00  0.00     0.105 A 
ATOM     15  N   UNL d   1      32.888  19.246 -24.186  0.00  0.00    -0.189 NA
ATOM     16  C   UNL d   1      33.117  18.638 -23.017  0.00  0.00     0.104 A 
ATOM     17  C   UNL d   1      33.016  18.437 -24.337  0.00  0.00     0.369 A 
ATOM     18  O   UNL d   1      33.003  18.075 -25.076  0.00  0.00    -0.242 OA
ATOM     19  N   UNL d   1      33.156  18.068 -23.612  0.00  0.00    -0.189 NA
ATOM     20  C   UNL d   1      33.211  18.593 -22.195  0.00  0.00     0.022 A 
ATOM     21  C   UNL d   1      33.137  19.275 -21.738  0.00  0.00     0.016 A 
ENDBRANCH   1  12
TORSDOF 3
ENDMDL
MODEL 2
REMARK VINA RESULT:      -2.8      1.751      5.117
REMARK  3 active torsions:
REMARK  status: ('A' for Active; 'I' for Inactive)
REMARK    1  A    between atoms: N_3  and  S_1 
REMARK    2  A    between atoms: C_7  and  S_1 
REMARK    3  A    between atoms: C_10  and  N_3 
ROOT
ATOM      1  S   UNL d   1      32.826  18.436 -23.256  0.00  0.00     0.327 S 
ATOM      2  O   UNL d   1      32.347  18.350 -23.918  0.00  0.00    -0.186 OA
ATOM      3  O   UNL d   1      33.194  17.779 -22.926  0.00  0.00    -0.186 OA
ENDROOT
BRANCH   1   4
ATOM      4  N   UNL d   1      32.709  17.697 -23.593  0.00  0.00    -0.314 NA
BRANCH   4   5
ATOM      5  C   UNL d   1      32.589  16.942 -23.938  0.00  0.00     0.184 A 
ATOM      6  C   UNL d   1      31.912  16.505 -23.738  0.00  0.00     0.226 A 
ATOM      7  O   UNL d   1      31.365  16.808 -23.208  0.00  0.00    -0.284 OA
ATOM      8  C   UNL d   1      31.796  15.761 -24.080  0.00  0.00     0.045 A 
ATOM      9  C   UNL d   1      32.351  15.460 -24.614  0.00  0.00     0.004 A 
ATOM     10  C   UNL d   1      33.018  15.901 -24.806  0.00  0.00     0.003 A 
ATOM     11  C   UNL d   1      33.135  16.643 -24.466  0.00  0.00     0.036 A 
ENDBRANCH   4   5
ENDBRANCH   1   4
BRANCH   1  12
ATOM     12  C   UNL d   1      32.938  19.179 -22.926  0.00  0.00     0.118 A 
ATOM     13  C   UNL d   1      32.861  19.281 -22.115  0.00  0.00     0.035 A 
ATOM     14  C   UNL d   1      32.973  20.029 -21.778  0.00  0.00     0.105 A 
ATOM     15  N   UNL d   1      32.934  20.299 -21.000  0.00  0.00    -0.189 NA
ATOM     16  C   UNL d   1      33.163  20.676 -22.263  0.00  0.00     0.104 A 
ATOM     17  C   UNL d   1      33.100  21.115 -20.999  0.00  0.00     0.369 A 
ATOM     18  O   UNL d   1      33.120  21.605 -20.338  0.00  0.00    -0.242 OA
ATOM     19  N   UNL d   1      33.241  21.341 -21.781  0.00  0.00    -0.189 NA
ATOM     20  C   UNL d   1      33.240  20.569 -23.081  0.00  0.00     0.022 A 
ATOM     21  C   UNL d   1      33.126  19.820 -23.406  0.00  0.00     0.016 A 
ENDBRANCH   1  12
TORSDOF 3
ENDMDL
MODEL 3
REMARK VINA RESULT:      -2.1      1.503      2.114
REMARK  3 active torsions:
REMARK  status: ('A' for Active; 'I' for Inactive)
REMARK    1  A    between atoms: N_3  and  S_1 
REMARK    2  A    between atoms: C_7  and  S_1 
REMARK    3  A    between atoms: C_10  and  N_3 
ROOT
ATOM      1  S   UNL d   1      32.866  19.555 -22.822  0.00  0.00     0.327 S 
ATOM      2  O   UNL d   1      32.506  19.499 -22.086  0.00  0.00    -0.186 OA
ATOM      3  O   UNL d   1      33.241  20.252 -23.045  0.00  0.00    -0.186 OA
ENDROOT
BRANCH   1   4
ATOM      4  N   UNL d   1      32.876  20.191 -22.303  0.00  0.00    -0.314 NA
BRANCH   4   5
ATOM      5  C   UNL d   1      32.886  20.840 -21.772  0.00  0.00     0.184 A 
ATOM      6  C   UNL d   1      33.070  20.710 -20.973  0.00  0.00     0.226 A 
ATOM      7  O   UNL d   1      33.241  19.955 -20.704  0.00  0.00    -0.284 OA
ATOM      8  C   UNL d   1      33.079  21.352 -20.451  0.00  0.00     0.045 A 
ATOM      9  C   UNL d   1      32.906  22.112 -20.728  0.00  0.00     0.004 A 
ATOM     10  C   UNL d   1      32.725  22.230 -21.521  0.00  0.00     0.003 A 
ATOM     11  C   UNL d   1      32.716  21.591 -22.042  0.00  0.00     0.036 A 
ENDBRANCH   4   5
ENDBRANCH   1   4
BRANCH   1  12
ATOM     12  C   UNL d   1      32.850  18.915 -23.335  0.00  0.00     0.118 A 
ATOM     13  C   UNL d   1      32.554  18.194 -23.079  0.00  0.00     0.035 A 
ATOM     14  C   UNL d   1      32.536  17.545 -23.594  0.00  0.00     0.105 A 
ATOM     15  N   UNL d   1      32.277  16.768 -23.499  0.00  0.00    -0.189 NA
ATOM     16  C   UNL d   1      32.821  17.627 -24.370  0.00  0.00     0.104 A 
ATOM     17  C   UNL d   1      32.400  16.364 -24.217  0.00  0.00     0.369 A 
ATOM     18  O   UNL d   1      32.219  15.575 -24.366  0.00  0.00    -0.242 OA
ATOM     19  N   UNL d   1      32.735  16.899 -24.750  0.00  0.00    -0.189 NA
ATOM     20  C   UNL d   1      33.120  18.356 -24.624  0.00  0.00     0.022 A 
ATOM     21  C   UNL d   1      33.132  18.996 -24.104  0.00  0.00     0.016 A 
ENDBRANCH   1  12
TORSDOF 3
ENDMDL
MODEL 4
REMARK VINA RESULT:      -2.1      1.511      4.821
REMARK  3 active torsions:
REMARK  status: ('A' for Active; 'I' for Inactive)
REMARK    1  A    between atoms: N_3  and  S_1 
REMARK    2  A    between atoms: C_7  and  S_1 
REMARK    3  A    between atoms: C_10  and  N_3 
ROOT
ATOM      1  S   UNL d   1      32.724  21.323 -21.120  0.00  0.00     0.327 S 
ATOM      2  O   UNL d   1      32.298  21.320 -21.821  0.00  0.00    -0.186 OA
ATOM      3  O   UNL d   1      33.241  20.707 -20.949  0.00  0.00    -0.186 OA
ENDROOT
BRANCH   1   4
ATOM      4  N   UNL d   1      32.808  20.708 -21.656  0.00  0.00    -0.314 NA
BRANCH   4   5
ATOM      5  C   UNL d   1      32.894  20.080 -22.205  0.00  0.00     0.184 A 
ATOM      6  C   UNL d   1      33.110  20.251 -22.989  0.00  0.00     0.226 A 
ATOM      7  O   UNL d   1      33.238  21.024 -23.225  0.00  0.00    -0.284 OA
ATOM      8  C   UNL d   1      33.194  19.629 -23.529  0.00  0.00     0.045 A 
ATOM      9  C   UNL d   1      33.063  18.849 -23.285  0.00  0.00     0.004 A 
ATOM     10  C   UNL d   1      32.850  18.692 -22.507  0.00  0.00     0.003 A 
ATOM     11  C   UNL d   1      32.766  19.310 -21.968  0.00  0.00     0.036 A 
ENDBRANCH   4   5
ENDBRANCH   1   4
BRANCH   1  12
ATOM     12  C   UNL d   1      32.634  21.943 -20.589  0.00  0.00     0.118 A 
ATOM     13  C   UNL d   1      32.862  21.847 -19.807  0.00  0.00     0.035 A 
ATOM     14  C   UNL d   1      32.772  22.469 -19.268  0.00  0.00     0.105 A 
ATOM     15  N   UNL d   1      32.947  22.539 -18.465  0.00  0.00    -0.189 NA
ATOM     16  C   UNL d   1      32.450  23.192 -19.522  0.00  0.00     0.104 A 
ATOM     17  C   UNL d   1      32.733  23.305 -18.218  0.00  0.00     0.369 A 
ATOM     18  O   UNL d   1      32.813  23.608 -17.457  0.00  0.00    -0.242 OA
ATOM     19  N   UNL d   1      32.428  23.702 -18.874  0.00  0.00    -0.189 NA
ATOM     20  C   UNL d   1      32.221  23.284 -20.313  0.00  0.00     0.022 A 
ATOM     21  C   UNL d   1      32.314  22.658 -20.841  0.00  0.00     0.016 A 
ENDBRANCH   1  12
TORSDOF 3
ENDMDL
MODEL 5
REMARK VINA RESULT:      -1.5      3.857      5.545
REMARK  3 active torsions:
REMARK  status: ('A' for Active; 'I' for Inactive)
REMARK    1  A    between atoms: N_3  and  S_1 
REMARK    2  A    between atoms: C_7  and  S_1 
REMARK    3  A    between atoms: C_10  and  N_3 
ROOT
ATOM      1  S   UNL d   1      30.609  17.324 -24.352  0.00  0.00     0.327 S 
ATOM      2  O   UNL d   1      30.696  17.862 -24.966  0.00  0.00    -0.186 OA
ATOM      3  O   UNL d   1      31.179  17.280 -23.760  0.00  0.00    -0.186 OA
ENDROOT
BRANCH   1   4
ATOM      4  N   UNL d   1      31.262  17.821 -24.382  0.00  0.00    -0.314 NA
BRANCH   4   5
ATOM      5  C   UNL d   1      31.930  18.328 -24.413  0.00  0.00     0.184 A 
ATOM      6  C   UNL d   1      32.472  18.326 -23.783  0.00  0.00     0.226 A 
ATOM      7  O   UNL d   1      32.356  17.835 -23.138  0.00  0.00    -0.284 OA
ATOM      8  C   UNL d   1      33.130  18.827 -23.816  0.00  0.00     0.045 A 
ATOM      9  C   UNL d   1      33.241  19.321 -24.470  0.00  0.00     0.004 A 
ATOM     10  C   UNL d   1      32.698  19.314 -25.088  0.00  0.00     0.003 A 
ATOM     11  C   UNL d   1      32.043  18.816 -25.057  0.00  0.00     0.036 A 
ENDBRANCH   4   5
ENDBRANCH   1   4
BRANCH   1  12
ATOM     12  C   UNL d   1      29.954  16.832 -24.329  0.00  0.00     0.118 A 
ATOM     13  C   UNL d   1      29.340  16.993 -23.809  0.00  0.00     0.035 A 
ATOM     14  C   UNL d   1      28.676  16.498 -23.783  0.00  0.00     0.105 A 
ATOM     15  N   UNL d   1      27.987  16.516 -23.330  0.00  0.00    -0.189 NA
ATOM     16  C   UNL d   1      28.634  15.838 -24.286  0.00  0.00     0.104 A 
ATOM     17  C   UNL d   1      27.515  15.867 -23.550  0.00  0.00     0.369 A 
ATOM     18  O   UNL d   1      26.779  15.674 -23.235  0.00  0.00    -0.242 OA
ATOM     19  N   UNL d   1      27.919  15.453 -24.139  0.00  0.00    -0.189 NA
ATOM     20  C   UNL d   1      29.255  15.679 -24.809  0.00  0.00     0.022 A 
ATOM     21  C   UNL d   1      29.912  16.178 -24.827  0.00  0.00     0.016 A 
ENDBRANCH   1  12
TORSDOF 3
ENDMDL
