MODEL 1
REMARK VINA RESULT:      62.9      0.000      0.000
REMARK  9 active torsions:
REMARK  status: ('A' for Active; 'I' for Inactive)
REMARK    1  A    between atoms: N_4  and  C_1 
REMARK       I    between atoms: C_8  and  N_4 
REMARK    2  A    between atoms: C_19  and  N_4 
REMARK    3  A    between atoms: S_6  and  C_11 
REMARK    4  A    between atoms: C_14  and  S_6 
REMARK    5  A    between atoms: C_10  and  C_8 
REMARK    6  A    between atoms: C_11  and  C_10 
REMARK    7  A    between atoms: C_20  and  C_19 
REMARK    8  A    between atoms: C_23  and  C_20 
REMARK    9  A    between atoms: N_21  and  C_23 
ROOT
ATOM      1  N   UNL d   1      14.407  16.551  -4.659  0.00  0.00    -0.253 N 
ATOM      2  C   UNL d   1      13.921  15.927  -4.903  0.00  0.00     0.267 C 
ATOM      3  O   UNL d   1      13.363  16.040  -5.489  0.00  0.00    -0.267 OA
ENDROOT
BRANCH   1   4
ATOM      4  C   UNL d   1      14.322  17.298  -5.021  0.00  0.00     0.182 A 
ATOM      5  N   UNL d   1      14.792  17.956  -4.874  0.00  0.00    -0.222 NA
ATOM      6  C   UNL d   1      14.521  18.584  -5.348  0.00  0.00     0.089 A 
ATOM      7  C   UNL d   1      14.773  19.351  -5.430  0.00  0.00     0.018 A 
ATOM      8  C   UNL d   1      13.881  18.303  -5.784  0.00  0.00     0.050 A 
ATOM      9  C   UNL d   1      14.390  19.863  -5.953  0.00  0.00     0.002 A 
ATOM     10  C   UNL d   1      15.415  19.632  -4.991  0.00  0.00     0.002 C 
ATOM     11  C   UNL d   1      14.638  20.637  -6.041  0.00  0.00     0.000 C 
ATOM     12  C   UNL d   1      13.754  19.582  -6.387  0.00  0.00     0.001 A 
ATOM     13  C   UNL d   1      13.504  18.801  -6.298  0.00  0.00     0.008 A 
ATOM     14  S   UNL d   1      13.753  17.509  -5.587  0.00  0.00    -0.048 SA
ENDBRANCH   1   4
BRANCH   1  15
ATOM     15  C   UNL d   1      14.970  16.438  -4.068  0.00  0.00     0.086 C 
BRANCH  15  16
ATOM     16  C   UNL d   1      14.832  16.734  -3.304  0.00  0.00     0.038 C 
BRANCH  16  17
ATOM     17  C   UNL d   1      15.055  16.290  -2.646  0.00  0.00     0.082 C 
BRANCH  17  18
ATOM     18  N   UNL d   1      14.975  16.605  -1.889  0.00  0.00    -0.300 N 
ATOM     19  C   UNL d   1      14.920  17.422  -1.785  0.00  0.00     0.100 C 
ATOM     20  C   UNL d   1      14.950  16.103  -1.237  0.00  0.00     0.100 C 
ENDBRANCH  17  18
ENDBRANCH  16  17
ENDBRANCH  15  16
ENDBRANCH   1  15
BRANCH   2  21
ATOM     21  C   UNL d   1      14.008  15.187  -4.542  0.00  0.00     0.073 C 
BRANCH  21  22
ATOM     22  C   UNL d   1      13.540  14.554  -4.803  0.00  0.00     0.104 C 
BRANCH  22  23
ATOM     23  S   UNL d   1      13.489  13.856  -4.358  0.00  0.00     0.211 S 
ATOM     24  O   UNL d   1      12.772  14.119  -4.036  0.00  0.00    -0.217 OA
ATOM     25  O   UNL d   1      14.214  13.594  -4.686  0.00  0.00    -0.217 OA
BRANCH  23  26
ATOM     26  C   UNL d   1      13.438  13.162  -3.914  0.00  0.00     0.088 A 
ATOM     27  C   UNL d   1      13.784  13.130  -3.172  0.00  0.00     0.011 A 
ATOM     28  C   UNL d   1      13.733  12.430  -2.724  0.00  0.00     0.001 A 
ATOM     29  C   UNL d   1      13.338  11.781  -3.032  0.00  0.00     0.000 A 
ATOM     30  C   UNL d   1      12.993  11.809  -3.772  0.00  0.00     0.001 A 
ATOM     31  C   UNL d   1      13.043  12.503  -4.215  0.00  0.00     0.011 A 
ENDBRANCH  23  26
ENDBRANCH  22  23
ENDBRANCH  21  22
ENDBRANCH   2  21
TORSDOF 9
ENDMDL
