MODEL 1
REMARK VINA RESULT:      45.8      0.000      0.000
REMARK  4 active torsions:
REMARK  status: ('A' for Active; 'I' for Inactive)
REMARK    1  A    between atoms: C_4  and  C_1 
REMARK    2  A    between atoms: C_13  and  N_3 
REMARK    3  A    between atoms: C_11  and  N_5 
REMARK    4  A    between atoms: C_14  and  C_11 
ROOT
ATOM      1  C   UNL d   1      15.031  13.993  -0.825  0.00  0.00     0.057 A 
ATOM      2  N   UNL d   1      14.906  12.741  -1.293  0.00  0.00    -0.272 N 
ATOM      3  C   UNL d   1      14.865  12.713  -0.464  0.00  0.00     0.265 A 
ATOM      4  C   UNL d   1      15.007  13.525  -1.509  0.00  0.00     0.086 A 
ATOM      5  C   UNL d   1      14.943  13.480  -0.179  0.00  0.00     0.066 A 
ATOM      6  O   UNL d   1      14.765  12.027  -0.014  0.00  0.00    -0.267 OA
ENDROOT
BRANCH   1   7
ATOM      7  C   UNL d   1      15.127  14.804  -0.842  0.00  0.00     0.149 A 
ATOM      8  N   UNL d   1      15.454  15.287  -0.302  0.00  0.00    -0.227 NA
ATOM      9  C   UNL d   1      15.417  16.065  -0.582  0.00  0.00     0.099 A 
ATOM     10  C   UNL d   1      15.666  16.771  -0.258  0.00  0.00     0.021 A 
ATOM     11  C   UNL d   1      15.055  16.043  -1.312  0.00  0.00     0.083 A 
ATOM     12  C   UNL d   1      15.545  17.471  -0.688  0.00  0.00     0.002 A 
ATOM     13  C   UNL d   1      15.184  17.449  -1.418  0.00  0.00     0.002 A 
ATOM     14  C   UNL d   1      14.933  16.727  -1.741  0.00  0.00     0.019 A 
ATOM     15  N   UNL d   1      14.874  15.252  -1.475  0.00  0.00    -0.289 N 
BRANCH  15  16
ATOM     16  C   UNL d   1      14.499  14.960  -2.162  0.00  0.00     0.082 C 
ATOM     17  C   UNL d   1      14.712  15.263  -2.917  0.00  0.00     0.021 C 
ENDBRANCH  15  16
ENDBRANCH   1   7
BRANCH   2  18
ATOM     18  C   UNL d   1      14.852  12.088  -1.813  0.00  0.00     0.083 C 
BRANCH  18  19
ATOM     19  C   UNL d   1      14.175  12.000  -2.289  0.00  0.00     0.018 A 
ATOM     20  C   UNL d   1      14.254  12.049  -3.113  0.00  0.00     0.002 A 
ATOM     21  C   UNL d   1      13.582  11.962  -3.583  0.00  0.00     0.000 A 
ATOM     22  C   UNL d   1      12.846  11.830  -3.246  0.00  0.00     0.000 A 
ATOM     23  C   UNL d   1      12.772  11.782  -2.426  0.00  0.00     0.000 A 
ATOM     24  C   UNL d   1      13.443  11.869  -1.946  0.00  0.00     0.002 A 
ENDBRANCH  18  19
ENDBRANCH   2  18
TORSDOF 4
ENDMDL
MODEL 2
REMARK VINA RESULT:      48.1      2.742      4.328
REMARK  4 active torsions:
REMARK  status: ('A' for Active; 'I' for Inactive)
REMARK    1  A    between atoms: C_4  and  C_1 
REMARK    2  A    between atoms: C_13  and  N_3 
REMARK    3  A    between atoms: C_11  and  N_5 
REMARK    4  A    between atoms: C_14  and  C_11 
ROOT
ATOM      1  C   UNL d   1      13.426  12.321  -3.490  0.00  0.00     0.057 A 
ATOM      2  N   UNL d   1      13.236  12.978  -4.646  0.00  0.00    -0.272 N 
ATOM      3  C   UNL d   1      13.396  12.182  -4.824  0.00  0.00     0.265 A 
ATOM      4  C   UNL d   1      13.255  13.058  -3.830  0.00  0.00     0.086 A 
ATOM      5  C   UNL d   1      13.512  11.781  -4.115  0.00  0.00     0.066 A 
ATOM      6  O   UNL d   1      13.430  11.860  -5.584  0.00  0.00    -0.267 OA
ENDROOT
BRANCH   1   7
ATOM      7  C   UNL d   1      13.486  12.205  -2.684  0.00  0.00     0.149 A 
ATOM      8  N   UNL d   1      12.921  12.026  -2.155  0.00  0.00    -0.227 NA
ATOM      9  C   UNL d   1      13.267  11.967  -1.405  0.00  0.00     0.099 A 
ATOM     10  C   UNL d   1      12.949  11.798  -0.672  0.00  0.00     0.021 A 
ATOM     11  C   UNL d   1      14.063  12.116  -1.493  0.00  0.00     0.083 A 
ATOM     12  C   UNL d   1      13.455  11.781  -0.014  0.00  0.00     0.002 A 
ATOM     13  C   UNL d   1      14.251  11.930  -0.102  0.00  0.00     0.002 A 
ATOM     14  C   UNL d   1      14.567  12.101  -0.850  0.00  0.00     0.019 A 
ATOM     15  N   UNL d   1      14.200  12.265  -2.295  0.00  0.00    -0.289 N 
BRANCH  15  16
ATOM     16  C   UNL d   1      14.936  12.446  -2.647  0.00  0.00     0.082 C 
ATOM     17  C   UNL d   1      15.569  12.730  -2.173  0.00  0.00     0.021 C 
ENDBRANCH  15  16
ENDBRANCH   1   7
BRANCH   2  18
ATOM     18  C   UNL d   1      13.083  13.586  -5.200  0.00  0.00     0.083 C 
BRANCH  18  19
ATOM     19  C   UNL d   1      13.271  14.372  -5.003  0.00  0.00     0.018 A 
ATOM     20  C   UNL d   1      12.910  14.719  -4.342  0.00  0.00     0.002 A 
ATOM     21  C   UNL d   1      13.099  15.498  -4.150  0.00  0.00     0.000 A 
ATOM     22  C   UNL d   1      13.633  15.927  -4.601  0.00  0.00     0.000 A 
ATOM     23  C   UNL d   1      13.990  15.578  -5.257  0.00  0.00     0.000 A 
ATOM     24  C   UNL d   1      13.806  14.794  -5.458  0.00  0.00     0.002 A 
ENDBRANCH  18  19
ENDBRANCH   2  18
TORSDOF 4
ENDMDL
