MODEL 1
REMARK VINA RESULT:      91.7      0.000      0.000
REMARK  3 active torsions:
REMARK  status: ('A' for Active; 'I' for Inactive)
REMARK    1  A    between atoms: N_10  and  C_3 
REMARK    2  A    between atoms: C_11  and  C_5 
REMARK    3  A    between atoms: C_13  and  N_10 
ROOT
ATOM      1  N   UNL d   1     -57.348 -98.995 -43.468  0.00  0.00    -0.184 N 
ATOM      2  C   UNL d   1     -57.004 -98.937 -44.232  0.00  0.00     0.168 A 
ATOM      3  C   UNL d   1     -58.171 -98.986 -43.389  0.00  0.00     0.217 A 
ATOM      4  N   UNL d   1     -56.054 -99.070 -42.891  0.00  0.00    -0.162 NA
ATOM      5  C   UNL d   1     -56.200 -98.946 -44.310  0.00  0.00     0.055 A 
ATOM      6  N   UNL d   1     -57.495 -98.871 -44.888  0.00  0.00    -0.227 NA
ATOM      7  C   UNL d   1     -58.642 -98.921 -44.046  0.00  0.00     0.066 A 
ATOM      8  C   UNL d   1     -55.715 -99.012 -43.642  0.00  0.00     0.104 A 
ATOM      9  C   UNL d   1     -58.307 -98.862 -44.813  0.00  0.00     0.087 A 
ATOM     10  C   UNL d   1     -59.448 -98.897 -44.143  0.00  0.00     0.006 A 
ATOM     11  C   UNL d   1     -54.902 -99.021 -43.730  0.00  0.00     0.023 C 
ATOM     12  C   UNL d   1     -58.913 -98.803 -45.361  0.00  0.00     0.019 A 
ATOM     13  C   UNL d   1     -59.627 -98.826 -44.937  0.00  0.00     0.002 A 
ENDROOT
BRANCH   3  14
ATOM     14  N   UNL d   1     -58.522 -99.045 -42.620  0.00  0.00    -0.383 NA
BRANCH  14  15
ATOM     15  C   UNL d   1     -58.874 -99.105 -41.856  0.00  0.00     0.134 A 
ATOM     16  C   UNL d   1     -59.605 -99.519 -41.770  0.00  0.00     0.032 A 
ATOM     17  C   UNL d   1     -59.961 -99.584 -41.013  0.00  0.00     0.003 A 
ATOM     18  C   UNL d   1     -59.590 -99.234 -40.330  0.00  0.00     0.000 A 
ATOM     19  C   UNL d   1     -58.861 -98.824 -40.431  0.00  0.00     0.003 A 
ATOM     20  C   UNL d   1     -58.502 -98.758 -41.192  0.00  0.00     0.032 A 
ENDBRANCH  14  15
ENDBRANCH   3  14
BRANCH   5  21
ATOM     21  C   UNL d   1     -55.864 -98.889 -45.057  0.00  0.00     0.004 A 
ATOM     22  C   UNL d   1     -56.342 -98.819 -45.721  0.00  0.00     0.000 A 
ATOM     23  C   UNL d   1     -56.010 -98.762 -46.466  0.00  0.00     0.000 A 
ATOM     24  C   UNL d   1     -55.190 -98.775 -46.552  0.00  0.00     0.000 A 
ATOM     25  C   UNL d   1     -54.711 -98.844 -45.901  0.00  0.00     0.000 A 
ATOM     26  C   UNL d   1     -55.052 -98.901 -45.146  0.00  0.00     0.000 A 
ENDBRANCH   5  21
TORSDOF 3
ENDMDL
