MODEL 1
REMARK VINA RESULT:      33.7      0.000      0.000
REMARK  4 active torsions:
REMARK  status: ('A' for Active; 'I' for Inactive)
REMARK    1  A    between atoms: C_5  and  C_1 
REMARK    2  A    between atoms: C_4  and  C_2 
REMARK    3  A    between atoms: C_12  and  C_4 
REMARK    4  A    between atoms: C_13  and  C_5 
ROOT
ATOM      1  C   UNL d   1      13.076  13.518  -4.242  0.00  0.00     0.039 A 
ATOM      2  C   UNL d   1      13.120  12.226  -3.490  0.00  0.00     0.039 A 
ATOM      3  C   UNL d   1      12.992  13.085  -3.504  0.00  0.00     0.196 A 
ATOM      4  C   UNL d   1      13.289  13.101  -4.972  0.00  0.00     0.003 A 
ATOM      5  C   UNL d   1      13.332  11.809  -4.219  0.00  0.00     0.003 A 
ATOM      6  O   UNL d   1      12.790  13.483  -2.809  0.00  0.00    -0.287 OA
ATOM      7  C   UNL d   1      13.416  12.249  -4.962  0.00  0.00     0.000 A 
ATOM      8  C   UNL d   1      13.619  11.851  -5.657  0.00  0.00     0.000 C 
ENDROOT
BRANCH   1   9
ATOM      9  C   UNL d   1      12.956  14.336  -4.262  0.00  0.00     0.005 C 
BRANCH   9  10
ATOM     10  C   UNL d   1      13.591  14.853  -4.228  0.00  0.00     0.019 A 
ATOM     11  C   UNL d   1      13.976  14.978  -3.511  0.00  0.00     0.099 A 
ATOM     12  N   UNL d   1      14.614  15.495  -3.474  0.00  0.00    -0.242 NA
ATOM     13  C   UNL d   1      14.871  15.892  -4.154  0.00  0.00     0.099 A 
ATOM     14  C   UNL d   1      14.482  15.765  -4.874  0.00  0.00     0.021 A 
ATOM     15  C   UNL d   1      13.845  15.247  -4.907  0.00  0.00     0.003 A 
ENDBRANCH   9  10
ENDBRANCH   1   9
BRANCH   2  16
ATOM     16  C   UNL d   1      13.041  11.803  -2.786  0.00  0.00     0.005 C 
BRANCH  16  17
ATOM     17  C   UNL d   1      13.645  11.805  -2.225  0.00  0.00     0.019 A 
ATOM     18  C   UNL d   1      14.430  11.780  -2.469  0.00  0.00     0.099 A 
ATOM     19  N   UNL d   1      15.036  11.781  -1.915  0.00  0.00    -0.242 NA
ATOM     20  C   UNL d   1      14.856  11.807  -1.104  0.00  0.00     0.099 A 
ATOM     21  C   UNL d   1      14.067  11.832  -0.864  0.00  0.00     0.021 A 
ATOM     22  C   UNL d   1      13.466  11.830  -1.426  0.00  0.00     0.003 A 
ENDBRANCH  16  17
ENDBRANCH   2  16
TORSDOF 4
ENDMDL
MODEL 2
REMARK VINA RESULT:      34.1      1.444      2.505
REMARK  4 active torsions:
REMARK  status: ('A' for Active; 'I' for Inactive)
REMARK    1  A    between atoms: C_5  and  C_1 
REMARK    2  A    between atoms: C_4  and  C_2 
REMARK    3  A    between atoms: C_12  and  C_4 
REMARK    4  A    between atoms: C_13  and  C_5 
ROOT
ATOM      1  C   UNL d   1      13.218  13.074  -3.806  0.00  0.00     0.039 A 
ATOM      2  C   UNL d   1      13.626  12.751  -2.403  0.00  0.00     0.039 A 
ATOM      3  C   UNL d   1      13.230  12.526  -3.141  0.00  0.00     0.196 A 
ATOM      4  C   UNL d   1      13.601  13.849  -3.739  0.00  0.00     0.003 A 
ATOM      5  C   UNL d   1      14.010  13.526  -2.337  0.00  0.00     0.003 A 
ATOM      6  O   UNL d   1      12.865  11.788  -3.205  0.00  0.00    -0.287 OA
ATOM      7  C   UNL d   1      13.995  14.075  -3.008  0.00  0.00     0.000 A 
ATOM      8  C   UNL d   1      14.360  14.814  -2.945  0.00  0.00     0.000 C 
ENDROOT
BRANCH   1   9
ATOM      9  C   UNL d   1      12.841  12.865  -4.512  0.00  0.00     0.005 C 
BRANCH   9  10
ATOM     10  C   UNL d   1      13.269  12.544  -5.134  0.00  0.00     0.019 A 
ATOM     11  C   UNL d   1      12.879  12.103  -5.709  0.00  0.00     0.099 A 
ATOM     12  N   UNL d   1      13.304  11.779  -6.334  0.00  0.00    -0.242 NA
ATOM     13  C   UNL d   1      14.123  11.895  -6.387  0.00  0.00     0.099 A 
ATOM     14  C   UNL d   1      14.512  12.339  -5.807  0.00  0.00     0.021 A 
ATOM     15  C   UNL d   1      14.083  12.660  -5.184  0.00  0.00     0.003 A 
ENDBRANCH   9  10
ENDBRANCH   1   9
BRANCH   2  16
ATOM     16  C   UNL d   1      13.643  12.233  -1.762  0.00  0.00     0.005 C 
BRANCH  16  17
ATOM     17  C   UNL d   1      14.276  12.236  -1.234  0.00  0.00     0.019 A 
ATOM     18  C   UNL d   1      14.944  11.783  -1.394  0.00  0.00     0.099 A 
ATOM     19  N   UNL d   1      15.577  11.782  -0.873  0.00  0.00    -0.242 NA
ATOM     20  C   UNL d   1      15.545  12.240  -0.180  0.00  0.00     0.099 A 
ATOM     21  C   UNL d   1      14.874  12.693  -0.024  0.00  0.00     0.021 A 
ATOM     22  C   UNL d   1      14.242  12.688  -0.552  0.00  0.00     0.003 A 
ENDBRANCH  16  17
ENDBRANCH   2  16
TORSDOF 4
ENDMDL
MODEL 3
REMARK VINA RESULT:      34.3      1.410      3.550
REMARK  4 active torsions:
REMARK  status: ('A' for Active; 'I' for Inactive)
REMARK    1  A    between atoms: C_5  and  C_1 
REMARK    2  A    between atoms: C_4  and  C_2 
REMARK    3  A    between atoms: C_12  and  C_4 
REMARK    4  A    between atoms: C_13  and  C_5 
ROOT
ATOM      1  C   UNL d   1      13.693  13.025  -2.222  0.00  0.00     0.039 A 
ATOM      2  C   UNL d   1      13.215  12.796  -3.620  0.00  0.00     0.039 A 
ATOM      3  C   UNL d   1      13.297  12.526  -2.800  0.00  0.00     0.196 A 
ATOM      4  C   UNL d   1      14.011  13.797  -2.456  0.00  0.00     0.003 A 
ATOM      5  C   UNL d   1      13.532  13.568  -3.855  0.00  0.00     0.003 A 
ATOM      6  O   UNL d   1      12.995  11.790  -2.577  0.00  0.00    -0.287 OA
ATOM      7  C   UNL d   1      13.931  14.069  -3.269  0.00  0.00     0.000 A 
ATOM      8  C   UNL d   1      14.234  14.804  -3.493  0.00  0.00     0.000 C 
ENDROOT
BRANCH   1   9
ATOM      9  C   UNL d   1      13.775  12.773  -1.438  0.00  0.00     0.005 C 
BRANCH   9  10
ATOM     10  C   UNL d   1      14.464  12.924  -1.020  0.00  0.00     0.019 A 
ATOM     11  C   UNL d   1      15.109  12.420  -1.105  0.00  0.00     0.099 A 
ATOM     12  N   UNL d   1      15.801  12.568  -0.687  0.00  0.00    -0.242 NA
ATOM     13  C   UNL d   1      15.853  13.223  -0.181  0.00  0.00     0.099 A 
ATOM     14  C   UNL d   1      15.202  13.728  -0.098  0.00  0.00     0.021 A 
ATOM     15  C   UNL d   1      14.512  13.576  -0.518  0.00  0.00     0.003 A 
ENDBRANCH   9  10
ENDBRANCH   1   9
BRANCH   2  16
ATOM     16  C   UNL d   1      12.837  12.325  -4.181  0.00  0.00     0.005 C 
BRANCH  16  17
ATOM     17  C   UNL d   1      13.205  12.143  -4.896  0.00  0.00     0.019 A 
ATOM     18  C   UNL d   1      14.012  11.981  -4.910  0.00  0.00     0.099 A 
ATOM     19  N   UNL d   1      14.385  11.799  -5.618  0.00  0.00    -0.242 NA
ATOM     20  C   UNL d   1      13.947  11.779  -6.324  0.00  0.00     0.099 A 
ATOM     21  C   UNL d   1      13.139  11.943  -6.305  0.00  0.00     0.021 A 
ATOM     22  C   UNL d   1      12.772  12.124  -5.590  0.00  0.00     0.003 A 
ENDBRANCH  16  17
ENDBRANCH   2  16
TORSDOF 4
ENDMDL
MODEL 4
REMARK VINA RESULT:      36.7      2.085      3.540
REMARK  4 active torsions:
REMARK  status: ('A' for Active; 'I' for Inactive)
REMARK    1  A    between atoms: C_5  and  C_1 
REMARK    2  A    between atoms: C_4  and  C_2 
REMARK    3  A    between atoms: C_12  and  C_4 
REMARK    4  A    between atoms: C_13  and  C_5 
ROOT
ATOM      1  C   UNL d   1      14.761  13.647  -0.328  0.00  0.00     0.039 A 
ATOM      2  C   UNL d   1      14.409  12.366  -1.016  0.00  0.00     0.039 A 
ATOM      3  C   UNL d   1      14.171  13.134  -0.689  0.00  0.00     0.196 A 
ATOM      4  C   UNL d   1      15.590  13.399  -0.290  0.00  0.00     0.003 A 
ATOM      5  C   UNL d   1      15.239  12.118  -0.979  0.00  0.00     0.003 A 
ATOM      6  O   UNL d   1      13.381  13.370  -0.725  0.00  0.00    -0.287 OA
ATOM      7  C   UNL d   1      15.830  12.638  -0.614  0.00  0.00     0.000 A 
ATOM      8  C   UNL d   1      16.621  12.401  -0.578  0.00  0.00     0.000 C 
ENDROOT
BRANCH   1   9
ATOM      9  C   UNL d   1      14.540  14.380  -0.014  0.00  0.00     0.005 C 
BRANCH   9  10
ATOM     10  C   UNL d   1      14.841  15.075  -0.327  0.00  0.00     0.019 A 
ATOM     11  C   UNL d   1      14.450  15.442  -0.951  0.00  0.00     0.099 A 
ATOM     12  N   UNL d   1      14.749  16.140  -1.268  0.00  0.00    -0.242 NA
ATOM     13  C   UNL d   1      15.442  16.475  -0.961  0.00  0.00     0.099 A 
ATOM     14  C   UNL d   1      15.833  16.104  -0.333  0.00  0.00     0.021 A 
ATOM     15  C   UNL d   1      15.531  15.407  -0.020  0.00  0.00     0.003 A 
ENDBRANCH   9  10
ENDBRANCH   1   9
BRANCH   2  16
ATOM     16  C   UNL d   1      13.851  11.869  -1.364  0.00  0.00     0.005 C 
BRANCH  16  17
ATOM     17  C   UNL d   1      13.689  11.917  -2.171  0.00  0.00     0.019 A 
ATOM     18  C   UNL d   1      14.292  11.789  -2.717  0.00  0.00     0.099 A 
ATOM     19  N   UNL d   1      14.137  11.836  -3.521  0.00  0.00    -0.242 NA
ATOM     20  C   UNL d   1      13.370  12.012  -3.787  0.00  0.00     0.099 A 
ATOM     21  C   UNL d   1      12.769  12.140  -3.237  0.00  0.00     0.021 A 
ATOM     22  C   UNL d   1      12.932  12.091  -2.431  0.00  0.00     0.003 A 
ENDBRANCH  16  17
ENDBRANCH   2  16
TORSDOF 4
ENDMDL
