MODEL 1
REMARK VINA RESULT:      82.9      0.000      0.000
REMARK  4 active torsions:
REMARK  status: ('A' for Active; 'I' for Inactive)
REMARK    1  A    between atoms: C_6  and  C_1 
REMARK    2  A    between atoms: N_4  and  C_2 
REMARK       I    between atoms: C_3  and  N_4 
REMARK       I    between atoms: N_9  and  C_3 
REMARK    3  A    between atoms: C_15  and  N_9 
REMARK    4  A    between atoms: C_23  and  C_15 
ROOT
ATOM      1  C   UNL d   1      60.200  49.391  51.722  0.00  0.00     0.040 A 
ATOM      2  C   UNL d   1      60.689  48.861  50.737  0.00  0.00     0.109 A 
ATOM      3  C   UNL d   1      60.850  49.248  51.679  0.00  0.00     0.035 A 
ATOM      4  C   UNL d   1      59.740  49.707  52.237  0.00  0.00    -0.023 A 
ATOM      5  C   UNL d   1      59.536  49.163  50.925  0.00  0.00     0.013 A 
ATOM      6  C   UNL d   1      59.644  49.379  51.458  0.00  0.00    -0.011 A 
ATOM      7  C   UNL d   1      59.419  48.866  50.206  0.00  0.00     0.025 A 
ATOM      8  C   UNL d   1      60.411  49.207  51.398  0.00  0.00    -0.005 A 
ATOM      9  C   UNL d   1      60.192  48.690  50.141  0.00  0.00     0.031 A 
ATOM     10  C   UNL d   1      59.148  49.209  50.862  0.00  0.00    -0.027 A 
ENDROOT
BRANCH   2  11
ATOM     11  N   UNL d   1      61.075  48.505  50.100  0.00  0.00    -0.217 NA
ATOM     12  C   UNL d   1      61.286  47.711  50.136  0.00  0.00     0.360 C 
ATOM     13  N   UNL d   1      61.672  47.349  49.505  0.00  0.00    -0.214 NA
ATOM     14  O   UNL d   1      61.109  47.267  50.817  0.00  0.00    -0.243 OA
BRANCH  13  15
ATOM     15  C   UNL d   1      61.886  46.546  49.541  0.00  0.00     0.147 C 
ATOM     16  C   UNL d   1      62.467  46.793  49.002  0.00  0.00     0.033 C 
ATOM     17  C   UNL d   1      61.303  46.308  50.078  0.00  0.00     0.033 C 
BRANCH  15  18
ATOM     18  C   UNL d   1      62.104  45.748  49.571  0.00  0.00     0.229 C 
ATOM     19  O   UNL d   1      62.224  45.330  48.867  0.00  0.00    -0.286 OA
ENDBRANCH  15  18
ENDBRANCH  13  15
ENDBRANCH   2  11
BRANCH   1  20
ATOM     20  C   UNL d   1      60.869  49.469  52.183  0.00  0.00    -0.019 A 
ATOM     21  C   UNL d   1      60.820  49.397  53.010  0.00  0.00    -0.004 A 
ATOM     22  C   UNL d   1      61.494  49.475  53.478  0.00  0.00    -0.000 A 
ATOM     23  C   UNL d   1      62.231  49.627  53.120  0.00  0.00    -0.000 A 
ATOM     24  C   UNL d   1      62.274  49.698  52.299  0.00  0.00    -0.000 A 
ATOM     25  C   UNL d   1      62.909  49.706  53.586  0.00  0.00    -0.000 C 
ATOM     26  C   UNL d   1      61.598  49.620  51.831  0.00  0.00    -0.004 A 
ENDBRANCH   1  20
TORSDOF 4
ENDMDL
MODEL 2
REMARK VINA RESULT:      84.8      1.304      2.936
REMARK  4 active torsions:
REMARK  status: ('A' for Active; 'I' for Inactive)
REMARK    1  A    between atoms: C_6  and  C_1 
REMARK    2  A    between atoms: N_4  and  C_2 
REMARK       I    between atoms: C_3  and  N_4 
REMARK       I    between atoms: N_9  and  C_3 
REMARK    3  A    between atoms: C_15  and  N_9 
REMARK    4  A    between atoms: C_23  and  C_15 
ROOT
ATOM      1  C   UNL d   1      59.151  49.705  52.820  0.00  0.00     0.040 A 
ATOM      2  C   UNL d   1      60.108  49.704  52.062  0.00  0.00     0.109 A 
ATOM      3  C   UNL d   1      59.081  49.705  52.157  0.00  0.00     0.035 A 
ATOM      4  C   UNL d   1      58.687  49.706  53.421  0.00  0.00    -0.023 A 
ATOM      5  C   UNL d   1      60.113  49.704  53.268  0.00  0.00     0.013 A 
ATOM      6  C   UNL d   1      59.529  49.705  53.305  0.00  0.00    -0.011 A 
ATOM      7  C   UNL d   1      60.896  49.704  53.191  0.00  0.00     0.025 A 
ATOM      8  C   UNL d   1      59.457  49.705  52.520  0.00  0.00    -0.005 A 
ATOM      9  C   UNL d   1      60.828  49.703  52.398  0.00  0.00     0.031 A 
ATOM     10  C   UNL d   1      60.249  49.704  53.641  0.00  0.00    -0.027 A 
ENDROOT
BRANCH   2  11
ATOM     11  N   UNL d   1      60.714  49.703  51.502  0.00  0.00    -0.217 NA
ATOM     12  C   UNL d   1      60.888  49.018  51.082  0.00  0.00     0.360 C 
ATOM     13  N   UNL d   1      61.491  49.010  50.521  0.00  0.00    -0.214 NA
ATOM     14  O   UNL d   1      60.450  48.325  51.224  0.00  0.00    -0.243 OA
BRANCH  13  15
ATOM     15  C   UNL d   1      61.667  48.318  50.096  0.00  0.00     0.147 C 
ATOM     16  C   UNL d   1      61.291  48.732  49.483  0.00  0.00     0.033 C 
ATOM     17  C   UNL d   1      62.041  47.911  50.712  0.00  0.00     0.033 C 
BRANCH  15  18
ATOM     18  C   UNL d   1      61.839  47.631  49.666  0.00  0.00     0.229 C 
ATOM     19  O   UNL d   1      61.831  47.654  48.838  0.00  0.00    -0.286 OA
ENDBRANCH  15  18
ENDBRANCH  13  15
ENDBRANCH   2  11
BRANCH   1  20
ATOM     20  C   UNL d   1      58.543  49.705  52.275  0.00  0.00    -0.019 A 
ATOM     21  C   UNL d   1      57.751  49.706  52.528  0.00  0.00    -0.004 A 
ATOM     22  C   UNL d   1      57.136  49.706  51.980  0.00  0.00    -0.000 A 
ATOM     23  C   UNL d   1      57.308  49.706  51.165  0.00  0.00    -0.000 A 
ATOM     24  C   UNL d   1      58.096  49.706  50.918  0.00  0.00    -0.000 A 
ATOM     25  C   UNL d   1      56.694  49.707  50.612  0.00  0.00    -0.000 C 
ATOM     26  C   UNL d   1      58.711  49.706  51.469  0.00  0.00    -0.004 A 
ENDBRANCH   1  20
TORSDOF 4
ENDMDL
MODEL 3
REMARK VINA RESULT:      85.6      2.875      4.700
REMARK  4 active torsions:
REMARK  status: ('A' for Active; 'I' for Inactive)
REMARK    1  A    between atoms: C_6  and  C_1 
REMARK    2  A    between atoms: N_4  and  C_2 
REMARK       I    between atoms: C_3  and  N_4 
REMARK       I    between atoms: N_9  and  C_3 
REMARK    3  A    between atoms: C_15  and  N_9 
REMARK    4  A    between atoms: C_23  and  C_15 
ROOT
ATOM      1  C   UNL d   1      56.508  47.942  49.816  0.00  0.00     0.040 A 
ATOM      2  C   UNL d   1      57.185  48.714  50.475  0.00  0.00     0.109 A 
ATOM      3  C   UNL d   1      56.882  47.739  50.329  0.00  0.00     0.035 A 
ATOM      4  C   UNL d   1      56.042  47.615  49.314  0.00  0.00    -0.023 A 
ATOM      5  C   UNL d   1      56.476  48.965  49.533  0.00  0.00     0.013 A 
ATOM      6  C   UNL d   1      56.313  48.407  49.463  0.00  0.00    -0.011 A 
ATOM      7  C   UNL d   1      56.711  49.707  49.648  0.00  0.00     0.025 A 
ATOM      8  C   UNL d   1      56.758  48.177  50.072  0.00  0.00    -0.005 A 
ATOM      9  C   UNL d   1      57.162  49.479  50.263  0.00  0.00     0.031 A 
ATOM     10  C   UNL d   1      56.289  49.172  49.251  0.00  0.00    -0.027 A 
ENDROOT
BRANCH   2  11
ATOM     11  N   UNL d   1      57.662  49.187  50.955  0.00  0.00    -0.217 NA
ATOM     12  C   UNL d   1      58.477  49.203  50.841  0.00  0.00     0.360 C 
ATOM     13  N   UNL d   1      58.958  49.672  51.317  0.00  0.00    -0.214 NA
ATOM     14  O   UNL d   1      58.818  48.742  50.240  0.00  0.00    -0.243 OA
BRANCH  13  15
ATOM     15  C   UNL d   1      59.782  49.690  51.202  0.00  0.00     0.147 C 
ATOM     16  C   UNL d   1      59.785  49.684  52.032  0.00  0.00     0.033 C 
ATOM     17  C   UNL d   1      59.770  49.695  50.375  0.00  0.00     0.033 C 
BRANCH  15  18
ATOM     18  C   UNL d   1      60.603  49.707  51.096  0.00  0.00     0.229 C 
ATOM     19  O   UNL d   1      61.095  49.346  51.655  0.00  0.00    -0.286 OA
ENDBRANCH  15  18
ENDBRANCH  13  15
ENDBRANCH   2  11
BRANCH   1  20
ATOM     20  C   UNL d   1      56.683  47.243  50.200  0.00  0.00    -0.019 A 
ATOM     21  C   UNL d   1      57.004  47.254  50.966  0.00  0.00    -0.004 A 
ATOM     22  C   UNL d   1      57.181  46.549  51.356  0.00  0.00    -0.000 A 
ATOM     23  C   UNL d   1      57.038  45.820  50.979  0.00  0.00    -0.000 A 
ATOM     24  C   UNL d   1      56.719  45.815  50.218  0.00  0.00    -0.000 A 
ATOM     25  C   UNL d   1      57.215  45.112  51.367  0.00  0.00    -0.000 C 
ATOM     26  C   UNL d   1      56.541  46.521  49.829  0.00  0.00    -0.004 A 
ENDBRANCH   1  20
TORSDOF 4
ENDMDL
