MODEL 1
REMARK VINA RESULT:      -6.6      0.000      0.000
REMARK  5 active torsions:
REMARK  status: ('A' for Active; 'I' for Inactive)
REMARK    1  A    between atoms: N_2  and  C_1 
REMARK    2  A    between atoms: N_11  and  C_6 
REMARK    3  A    between atoms: C_13  and  N_11 
REMARK    4  A    between atoms: O_20  and  C_14 
REMARK    5  A    between atoms: C_23  and  O_20 
ROOT
ATOM      1  C   UNL d   1     -49.135  13.006  22.834  0.00  0.00     0.752 A 
ATOM      2  N   UNL d   1     -48.392  13.299  23.052  0.00  0.00    -0.040 NA
ATOM      3  C   UNL d   1     -47.871  12.829  23.481  0.00  0.00     0.182 A 
ATOM      4  N   UNL d   1     -49.351  12.236  23.050  0.00  0.00    -0.059 NA
ATOM      5  C   UNL d   1     -48.087  12.060  23.697  0.00  0.00     0.059 A 
ATOM      6  C   UNL d   1     -48.829  11.762  23.481  0.00  0.00     0.103 A 
ATOM      7  C   UNL d   1     -49.045  10.992  23.698  0.00  0.00     0.021 C 
ENDROOT
BRANCH   3   8
ATOM      8  N   UNL d   1     -47.132  13.121  23.698  0.00  0.00    -0.226 NA
BRANCH   8   9
ATOM      9  C   UNL d   1     -46.493  13.089  23.168  0.00  0.00     0.083 A 
ATOM     10  C   UNL d   1     -46.059  12.384  23.104  0.00  0.00     0.021 A 
ATOM     11  C   UNL d   1     -45.420  12.356  22.571  0.00  0.00     0.026 A 
ATOM     12  C   UNL d   1     -45.224  13.016  22.118  0.00  0.00     0.100 A 
ATOM     13  C   UNL d   1     -45.665  13.713  22.191  0.00  0.00     0.026 A 
ATOM     14  C   UNL d   1     -46.301  13.751  22.716  0.00  0.00     0.021 A 
BRANCH  12  15
ATOM     15  O   UNL d   1     -44.587  12.981  21.590  0.00  0.00    -0.305 OA
BRANCH  15  16
ATOM     16  C   UNL d   1     -43.839  12.786  21.872  0.00  0.00     0.123 C 
ATOM     17  C   UNL d   1     -43.201  12.776  21.350  0.00  0.00     0.029 C 
ENDBRANCH  15  16
ENDBRANCH  12  15
ENDBRANCH   8   9
ENDBRANCH   3   8
BRANCH   1  18
ATOM     18  N   UNL d   1     -49.613  13.422  22.446  0.00  0.00    -0.058 N 
ATOM     19  N   UNL d   1     -50.128  13.773  21.303  0.00  0.00    -0.151 NA
ATOM     20  C   UNL d   1     -50.581  14.266  21.665  0.00  0.00     0.103 A 
ATOM     21  C   UNL d   1     -51.064  14.687  21.275  0.00  0.00     0.022 C 
ATOM     22  C   UNL d   1     -50.536  14.321  22.408  0.00  0.00     0.041 A 
ATOM     23  C   UNL d   1     -50.061  13.908  22.804  0.00  0.00     0.102 A 
ATOM     24  C   UNL d   1     -50.023  13.971  23.557  0.00  0.00     0.021 C 
ENDBRANCH   1  18
TORSDOF 5
ENDMDL
MODEL 2
REMARK VINA RESULT:      -6.5      1.017      1.270
REMARK  5 active torsions:
REMARK  status: ('A' for Active; 'I' for Inactive)
REMARK    1  A    between atoms: N_2  and  C_1 
REMARK    2  A    between atoms: N_11  and  C_6 
REMARK    3  A    between atoms: C_13  and  N_11 
REMARK    4  A    between atoms: O_20  and  C_14 
REMARK    5  A    between atoms: C_23  and  O_20 
ROOT
ATOM      1  C   UNL d   1     -49.448  13.438  22.919  0.00  0.00     0.752 A 
ATOM      2  N   UNL d   1     -48.788  13.216  23.367  0.00  0.00    -0.040 NA
ATOM      3  C   UNL d   1     -48.372  12.531  23.180  0.00  0.00     0.182 A 
ATOM      4  N   UNL d   1     -49.688  12.967  22.282  0.00  0.00    -0.059 NA
ATOM      5  C   UNL d   1     -48.612  12.060  22.543  0.00  0.00     0.059 A 
ATOM      6  C   UNL d   1     -49.272  12.278  22.092  0.00  0.00     0.103 A 
ATOM      7  C   UNL d   1     -49.512  11.806  21.456  0.00  0.00     0.021 C 
ENDROOT
BRANCH   3   8
ATOM      8  N   UNL d   1     -47.715  12.310  23.626  0.00  0.00    -0.226 NA
BRANCH   8   9
ATOM      9  C   UNL d   1     -46.947  12.446  23.341  0.00  0.00     0.083 A 
ATOM     10  C   UNL d   1     -46.465  11.794  23.159  0.00  0.00     0.021 A 
ATOM     11  C   UNL d   1     -45.696  11.935  22.874  0.00  0.00     0.026 A 
ATOM     12  C   UNL d   1     -45.420  12.705  22.774  0.00  0.00     0.100 A 
ATOM     13  C   UNL d   1     -45.911  13.346  22.960  0.00  0.00     0.026 A 
ATOM     14  C   UNL d   1     -46.676  13.218  23.243  0.00  0.00     0.021 A 
BRANCH  12  15
ATOM     15  O   UNL d   1     -44.654  12.837  22.490  0.00  0.00    -0.305 OA
BRANCH  15  16
ATOM     16  C   UNL d   1     -44.521  12.852  21.678  0.00  0.00     0.123 C 
ATOM     17  C   UNL d   1     -43.750  12.922  21.396  0.00  0.00     0.029 C 
ENDBRANCH  15  16
ENDBRANCH  12  15
ENDBRANCH   8   9
ENDBRANCH   3   8
BRANCH   1  18
ATOM     18  N   UNL d   1     -49.830  14.054  23.079  0.00  0.00    -0.058 N 
ATOM     19  N   UNL d   1     -49.957  15.348  23.009  0.00  0.00    -0.151 NA
ATOM     20  C   UNL d   1     -50.605  15.301  23.405  0.00  0.00     0.103 A 
ATOM     21  C   UNL d   1     -50.992  15.922  23.567  0.00  0.00     0.022 C 
ATOM     22  C   UNL d   1     -50.846  14.629  23.626  0.00  0.00     0.041 A 
ATOM     23  C   UNL d   1     -50.470  14.007  23.470  0.00  0.00     0.102 A 
ATOM     24  C   UNL d   1     -50.722  13.331  23.698  0.00  0.00     0.021 C 
ENDBRANCH   1  18
TORSDOF 5
ENDMDL
MODEL 3
REMARK VINA RESULT:      -5.9      8.858      9.843
REMARK  5 active torsions:
REMARK  status: ('A' for Active; 'I' for Inactive)
REMARK    1  A    between atoms: N_2  and  C_1 
REMARK    2  A    between atoms: N_11  and  C_6 
REMARK    3  A    between atoms: C_13  and  N_11 
REMARK    4  A    between atoms: O_20  and  C_14 
REMARK    5  A    between atoms: C_23  and  O_20 
ROOT
ATOM      1  C   UNL d   1     -39.463  14.366  17.710  0.00  0.00     0.752 A 
ATOM      2  N   UNL d   1     -39.078  14.643  18.389  0.00  0.00    -0.040 NA
ATOM      3  C   UNL d   1     -38.465  14.208  18.722  0.00  0.00     0.182 A 
ATOM      4  N   UNL d   1     -39.228  13.650  17.369  0.00  0.00    -0.059 NA
ATOM      5  C   UNL d   1     -38.229  13.492  18.381  0.00  0.00     0.059 A 
ATOM      6  C   UNL d   1     -38.612  13.211  17.702  0.00  0.00     0.103 A 
ATOM      7  C   UNL d   1     -38.376  12.495  17.361  0.00  0.00     0.021 C 
ENDROOT
BRANCH   3   8
ATOM      8  N   UNL d   1     -38.081  14.483  19.398  0.00  0.00    -0.226 NA
BRANCH   8   9
ATOM      9  C   UNL d   1     -38.359  14.280  20.154  0.00  0.00     0.083 A 
ATOM     10  C   UNL d   1     -38.011  13.638  20.551  0.00  0.00     0.021 A 
ATOM     11  C   UNL d   1     -38.293  13.438  21.308  0.00  0.00     0.026 A 
ATOM     12  C   UNL d   1     -38.905  13.867  21.654  0.00  0.00     0.100 A 
ATOM     13  C   UNL d   1     -39.244  14.505  21.248  0.00  0.00     0.026 A 
ATOM     14  C   UNL d   1     -38.972  14.712  20.496  0.00  0.00     0.021 A 
BRANCH  12  15
ATOM     15  O   UNL d   1     -39.181  13.662  22.408  0.00  0.00    -0.305 OA
BRANCH  15  16
ATOM     16  C   UNL d   1     -38.649  13.615  23.034  0.00  0.00     0.123 C 
ATOM     17  C   UNL d   1     -38.844  13.166  23.696  0.00  0.00     0.029 C 
ENDBRANCH  15  16
ENDBRANCH  12  15
ENDBRANCH   8   9
ENDBRANCH   3   8
BRANCH   1  18
ATOM     18  N   UNL d   1     -40.018  14.751  17.401  0.00  0.00    -0.058 N 
ATOM     19  N   UNL d   1     -41.294  14.977  17.271  0.00  0.00    -0.151 NA
ATOM     20  C   UNL d   1     -41.140  15.532  16.774  0.00  0.00     0.103 A 
ATOM     21  C   UNL d   1     -41.698  15.922  16.461  0.00  0.00     0.022 C 
ATOM     22  C   UNL d   1     -40.427  15.680  16.606  0.00  0.00     0.041 A 
ATOM     23  C   UNL d   1     -39.866  15.300  16.910  0.00  0.00     0.102 A 
ATOM     24  C   UNL d   1     -39.147  15.457  16.734  0.00  0.00     0.021 C 
ENDBRANCH   1  18
TORSDOF 5
ENDMDL
MODEL 4
REMARK VINA RESULT:      -5.7      1.097      1.979
REMARK  5 active torsions:
REMARK  status: ('A' for Active; 'I' for Inactive)
REMARK    1  A    between atoms: N_2  and  C_1 
REMARK    2  A    between atoms: N_11  and  C_6 
REMARK    3  A    between atoms: C_13  and  N_11 
REMARK    4  A    between atoms: O_20  and  C_14 
REMARK    5  A    between atoms: C_23  and  O_20 
ROOT
ATOM      1  C   UNL d   1     -48.969  13.403  22.989  0.00  0.00     0.752 A 
ATOM      2  N   UNL d   1     -48.209  13.366  23.315  0.00  0.00    -0.040 NA
ATOM      3  C   UNL d   1     -47.644  13.929  23.114  0.00  0.00     0.182 A 
ATOM      4  N   UNL d   1     -49.157  14.010  22.458  0.00  0.00    -0.059 NA
ATOM      5  C   UNL d   1     -47.832  14.536  22.584  0.00  0.00     0.059 A 
ATOM      6  C   UNL d   1     -48.591  14.577  22.255  0.00  0.00     0.103 A 
ATOM      7  C   UNL d   1     -48.779  15.184  21.724  0.00  0.00     0.021 C 
ENDROOT
BRANCH   3   8
ATOM      8  N   UNL d   1     -46.888  13.892  23.439  0.00  0.00    -0.226 NA
BRANCH   8   9
ATOM      9  C   UNL d   1     -46.266  13.532  23.022  0.00  0.00     0.083 A 
ATOM     10  C   UNL d   1     -45.806  13.996  22.507  0.00  0.00     0.021 A 
ATOM     11  C   UNL d   1     -45.185  13.632  22.091  0.00  0.00     0.026 A 
ATOM     12  C   UNL d   1     -45.029  12.828  22.188  0.00  0.00     0.100 A 
ATOM     13  C   UNL d   1     -45.495  12.377  22.703  0.00  0.00     0.026 A 
ATOM     14  C   UNL d   1     -46.115  12.728  23.121  0.00  0.00     0.021 A 
BRANCH  12  15
ATOM     15  O   UNL d   1     -44.409  12.473  21.770  0.00  0.00    -0.305 OA
BRANCH  15  16
ATOM     16  C   UNL d   1     -43.760  12.926  21.548  0.00  0.00     0.123 C 
ATOM     17  C   UNL d   1     -43.058  12.550  21.337  0.00  0.00     0.029 C 
ENDBRANCH  15  16
ENDBRANCH  12  15
ENDBRANCH   8   9
ENDBRANCH   3   8
BRANCH   1  18
ATOM     18  N   UNL d   1     -49.486  12.900  23.164  0.00  0.00    -0.058 N 
ATOM     19  N   UNL d   1     -49.902  11.666  23.159  0.00  0.00    -0.151 NA
ATOM     20  C   UNL d   1     -50.536  11.883  23.520  0.00  0.00     0.103 A 
ATOM     21  C   UNL d   1     -51.059  11.377  23.697  0.00  0.00     0.022 C 
ATOM     22  C   UNL d   1     -50.625  12.604  23.691  0.00  0.00     0.041 A 
ATOM     23  C   UNL d   1     -50.113  13.115  23.520  0.00  0.00     0.102 A 
ATOM     24  C   UNL d   1     -50.212  13.843  23.698  0.00  0.00     0.021 C 
ENDBRANCH   1  18
TORSDOF 5
ENDMDL
MODEL 5
REMARK VINA RESULT:      -5.7      8.232      9.857
REMARK  5 active torsions:
REMARK  status: ('A' for Active; 'I' for Inactive)
REMARK    1  A    between atoms: N_2  and  C_1 
REMARK    2  A    between atoms: N_11  and  C_6 
REMARK    3  A    between atoms: C_13  and  N_11 
REMARK    4  A    between atoms: O_20  and  C_14 
REMARK    5  A    between atoms: C_23  and  O_20 
ROOT
ATOM      1  C   UNL d   1     -39.799  14.537  17.647  0.00  0.00     0.752 A 
ATOM      2  N   UNL d   1     -39.694  14.931  18.368  0.00  0.00    -0.040 NA
ATOM      3  C   UNL d   1     -40.210  15.531  18.591  0.00  0.00     0.182 A 
ATOM      4  N   UNL d   1     -40.427  14.752  17.152  0.00  0.00    -0.059 NA
ATOM      5  C   UNL d   1     -40.838  15.745  18.097  0.00  0.00     0.059 A 
ATOM      6  C   UNL d   1     -40.947  15.354  17.375  0.00  0.00     0.103 A 
ATOM      7  C   UNL d   1     -41.575  15.569  16.880  0.00  0.00     0.021 C 
ENDROOT
BRANCH   3   8
ATOM      8  N   UNL d   1     -40.105  15.922  19.309  0.00  0.00    -0.226 NA
BRANCH   8   9
ATOM      9  C   UNL d   1     -40.025  15.493  20.016  0.00  0.00     0.083 A 
ATOM     10  C   UNL d   1     -40.704  15.172  20.371  0.00  0.00     0.021 A 
ATOM     11  C   UNL d   1     -40.620  14.743  21.079  0.00  0.00     0.026 A 
ATOM     12  C   UNL d   1     -39.877  14.639  21.419  0.00  0.00     0.100 A 
ATOM     13  C   UNL d   1     -39.207  14.964  21.056  0.00  0.00     0.026 A 
ATOM     14  C   UNL d   1     -39.280  15.392  20.353  0.00  0.00     0.021 A 
BRANCH  12  15
ATOM     15  O   UNL d   1     -39.800  14.211  22.124  0.00  0.00    -0.305 OA
BRANCH  15  16
ATOM     16  C   UNL d   1     -39.125  13.758  22.250  0.00  0.00     0.123 C 
ATOM     17  C   UNL d   1     -39.048  13.335  22.952  0.00  0.00     0.029 C 
ENDBRANCH  15  16
ENDBRANCH  12  15
ENDBRANCH   8   9
ENDBRANCH   3   8
BRANCH   1  18
ATOM     18  N   UNL d   1     -39.339  13.994  17.436  0.00  0.00    -0.058 N 
ATOM     19  N   UNL d   1     -38.981  12.743  17.479  0.00  0.00    -0.151 NA
ATOM     20  C   UNL d   1     -38.405  12.897  17.006  0.00  0.00     0.103 A 
ATOM     21  C   UNL d   1     -37.940  12.350  16.792  0.00  0.00     0.022 C 
ATOM     22  C   UNL d   1     -38.314  13.596  16.762  0.00  0.00     0.041 A 
ATOM     23  C   UNL d   1     -38.770  14.146  16.968  0.00  0.00     0.102 A 
ATOM     24  C   UNL d   1     -38.670  14.852  16.716  0.00  0.00     0.021 C 
ENDBRANCH   1  18
TORSDOF 5
ENDMDL
MODEL 6
REMARK VINA RESULT:      -4.9      7.762      9.759
REMARK  5 active torsions:
REMARK  status: ('A' for Active; 'I' for Inactive)
REMARK    1  A    between atoms: N_2  and  C_1 
REMARK    2  A    between atoms: N_11  and  C_6 
REMARK    3  A    between atoms: C_13  and  N_11 
REMARK    4  A    between atoms: O_20  and  C_14 
REMARK    5  A    between atoms: C_23  and  O_20 
ROOT
ATOM      1  C   UNL d   1     -39.640  14.960  21.177  0.00  0.00     0.752 A 
ATOM      2  N   UNL d   1     -39.246  15.201  20.489  0.00  0.00    -0.040 NA
ATOM      3  C   UNL d   1     -39.628  15.678  19.939  0.00  0.00     0.182 A 
ATOM      4  N   UNL d   1     -40.421  15.201  21.307  0.00  0.00    -0.059 NA
ATOM      5  C   UNL d   1     -40.409  15.919  20.070  0.00  0.00     0.059 A 
ATOM      6  C   UNL d   1     -40.807  15.681  20.756  0.00  0.00     0.103 A 
ATOM      7  C   UNL d   1     -41.588  15.922  20.886  0.00  0.00     0.021 C 
ENDROOT
BRANCH   3   8
ATOM      8  N   UNL d   1     -39.236  15.918  19.255  0.00  0.00    -0.226 NA
BRANCH   8   9
ATOM      9  C   UNL d   1     -39.151  15.398  18.613  0.00  0.00     0.083 A 
ATOM     10  C   UNL d   1     -38.397  15.094  18.439  0.00  0.00     0.021 A 
ATOM     11  C   UNL d   1     -38.316  14.573  17.795  0.00  0.00     0.026 A 
ATOM     12  C   UNL d   1     -38.971  14.364  17.341  0.00  0.00     0.100 A 
ATOM     13  C   UNL d   1     -39.717  14.674  17.524  0.00  0.00     0.026 A 
ATOM     14  C   UNL d   1     -39.808  15.192  18.161  0.00  0.00     0.021 A 
BRANCH  12  15
ATOM     15  O   UNL d   1     -38.883  13.845  16.701  0.00  0.00    -0.305 OA
BRANCH  15  16
ATOM     16  C   UNL d   1     -38.127  13.633  16.454  0.00  0.00     0.123 C 
ATOM     17  C   UNL d   1     -37.971  13.563  15.648  0.00  0.00     0.029 C 
ENDBRANCH  15  16
ENDBRANCH  12  15
ENDBRANCH   8   9
ENDBRANCH   3   8
BRANCH   1  18
ATOM     18  N   UNL d   1     -39.303  14.529  21.680  0.00  0.00    -0.058 N 
ATOM     19  N   UNL d   1     -39.106  13.352  22.201  0.00  0.00    -0.151 NA
ATOM     20  C   UNL d   1     -38.621  13.660  22.700  0.00  0.00     0.103 A 
ATOM     21  C   UNL d   1     -38.280  13.227  23.208  0.00  0.00     0.022 C 
ATOM     22  C   UNL d   1     -38.492  14.395  22.673  0.00  0.00     0.041 A 
ATOM     23  C   UNL d   1     -38.824  14.834  22.173  0.00  0.00     0.102 A 
ATOM     24  C   UNL d   1     -38.687  15.577  22.153  0.00  0.00     0.021 C 
ENDBRANCH   1  18
TORSDOF 5
ENDMDL
MODEL 7
REMARK VINA RESULT:      -4.5      6.676      9.576
REMARK  5 active torsions:
REMARK  status: ('A' for Active; 'I' for Inactive)
REMARK    1  A    between atoms: N_2  and  C_1 
REMARK    2  A    between atoms: N_11  and  C_6 
REMARK    3  A    between atoms: C_13  and  N_11 
REMARK    4  A    between atoms: O_20  and  C_14 
REMARK    5  A    between atoms: C_23  and  O_20 
ROOT
ATOM      1  C   UNL d   1     -39.959  15.085  20.218  0.00  0.00     0.752 A 
ATOM      2  N   UNL d   1     -39.904  15.304  19.422  0.00  0.00    -0.040 NA
ATOM      3  C   UNL d   1     -39.240  15.703  19.147  0.00  0.00     0.182 A 
ATOM      4  N   UNL d   1     -39.341  15.269  20.737  0.00  0.00    -0.059 NA
ATOM      5  C   UNL d   1     -38.621  15.887  19.666  0.00  0.00     0.059 A 
ATOM      6  C   UNL d   1     -38.672  15.669  20.463  0.00  0.00     0.103 A 
ATOM      7  C   UNL d   1     -38.053  15.853  20.982  0.00  0.00     0.021 C 
ENDROOT
BRANCH   3   8
ATOM      8  N   UNL d   1     -39.185  15.921  18.354  0.00  0.00    -0.226 NA
BRANCH   8   9
ATOM      9  C   UNL d   1     -38.985  15.361  17.775  0.00  0.00     0.083 A 
ATOM     10  C   UNL d   1     -38.183  15.199  17.632  0.00  0.00     0.021 A 
ATOM     11  C   UNL d   1     -37.987  14.636  17.051  0.00  0.00     0.026 A 
ATOM     12  C   UNL d   1     -38.578  14.249  16.626  0.00  0.00     0.100 A 
ATOM     13  C   UNL d   1     -39.375  14.420  16.778  0.00  0.00     0.026 A 
ATOM     14  C   UNL d   1     -39.580  14.976  17.353  0.00  0.00     0.021 A 
BRANCH  12  15
ATOM     15  O   UNL d   1     -38.376  13.691  16.050  0.00  0.00    -0.305 OA
BRANCH  15  16
ATOM     16  C   UNL d   1     -38.015  13.941  15.354  0.00  0.00     0.123 C 
ATOM     17  C   UNL d   1     -37.947  13.417  14.723  0.00  0.00     0.029 C 
ENDBRANCH  15  16
ENDBRANCH  12  15
ENDBRANCH   8   9
ENDBRANCH   3   8
BRANCH   1  18
ATOM     18  N   UNL d   1     -40.555  14.724  20.476  0.00  0.00    -0.058 N 
ATOM     19  N   UNL d   1     -41.160  13.605  20.753  0.00  0.00    -0.151 NA
ATOM     20  C   UNL d   1     -41.763  13.998  20.999  0.00  0.00     0.103 A 
ATOM     21  C   UNL d   1     -42.366  13.636  21.260  0.00  0.00     0.022 C 
ATOM     22  C   UNL d   1     -41.744  14.744  20.976  0.00  0.00     0.041 A 
ATOM     23  C   UNL d   1     -41.151  15.113  20.719  0.00  0.00     0.102 A 
ATOM     24  C   UNL d   1     -41.140  15.869  20.699  0.00  0.00     0.021 C 
ENDBRANCH   1  18
TORSDOF 5
ENDMDL
MODEL 8
REMARK VINA RESULT:      -4.0      7.801     10.214
REMARK  5 active torsions:
REMARK  status: ('A' for Active; 'I' for Inactive)
REMARK    1  A    between atoms: N_2  and  C_1 
REMARK    2  A    between atoms: N_11  and  C_6 
REMARK    3  A    between atoms: C_13  and  N_11 
REMARK    4  A    between atoms: O_20  and  C_14 
REMARK    5  A    between atoms: C_23  and  O_20 
ROOT
ATOM      1  C   UNL d   1     -40.543  15.451  18.327  0.00  0.00     0.752 A 
ATOM      2  N   UNL d   1     -39.759  15.409  18.064  0.00  0.00    -0.040 NA
ATOM      3  C   UNL d   1     -39.580  15.533  17.271  0.00  0.00     0.182 A 
ATOM      4  N   UNL d   1     -41.147  15.618  17.786  0.00  0.00    -0.059 NA
ATOM      5  C   UNL d   1     -40.185  15.700  16.731  0.00  0.00     0.059 A 
ATOM      6  C   UNL d   1     -40.970  15.743  16.988  0.00  0.00     0.103 A 
ATOM      7  C   UNL d   1     -41.575  15.910  16.447  0.00  0.00     0.021 C 
ENDROOT
BRANCH   3   8
ATOM      8  N   UNL d   1     -38.800  15.492  17.010  0.00  0.00    -0.226 NA
BRANCH   8   9
ATOM      9  C   UNL d   1     -38.584  14.960  16.410  0.00  0.00     0.083 A 
ATOM     10  C   UNL d   1     -38.642  14.144  16.555  0.00  0.00     0.021 A 
ATOM     11  C   UNL d   1     -38.424  13.615  15.950  0.00  0.00     0.026 A 
ATOM     12  C   UNL d   1     -38.156  13.896  15.224  0.00  0.00     0.100 A 
ATOM     13  C   UNL d   1     -38.103  14.713  15.091  0.00  0.00     0.026 A 
ATOM     14  C   UNL d   1     -38.316  15.246  15.684  0.00  0.00     0.021 A 
BRANCH  12  15
ATOM     15  O   UNL d   1     -37.942  13.364  14.627  0.00  0.00    -0.305 OA
BRANCH  15  16
ATOM     16  C   UNL d   1     -38.315  13.406  13.895  0.00  0.00     0.123 C 
ATOM     17  C   UNL d   1     -38.008  12.980  13.260  0.00  0.00     0.029 C 
ENDBRANCH  15  16
ENDBRANCH  12  15
ENDBRANCH   8   9
ENDBRANCH   3   8
BRANCH   1  18
ATOM     18  N   UNL d   1     -40.714  15.341  19.041  0.00  0.00    -0.058 N 
ATOM     19  N   UNL d   1     -40.880  15.812  20.243  0.00  0.00    -0.151 NA
ATOM     20  C   UNL d   1     -41.062  15.114  20.486  0.00  0.00     0.103 A 
ATOM     21  C   UNL d   1     -41.235  15.001  21.207  0.00  0.00     0.022 C 
ATOM     22  C   UNL d   1     -41.065  14.550  19.997  0.00  0.00     0.041 A 
ATOM     23  C   UNL d   1     -40.895  14.651  19.281  0.00  0.00     0.102 A 
ATOM     24  C   UNL d   1     -40.900  14.074  18.792  0.00  0.00     0.021 C 
ENDBRANCH   1  18
TORSDOF 5
ENDMDL
