MODEL 1
REMARK VINA RESULT:      25.6      0.000      0.000
REMARK  2 active torsions:
REMARK  status: ('A' for Active; 'I' for Inactive)
REMARK    1  A    between atoms: N_14  and  C_4 
REMARK    2  A    between atoms: C_9  and  C_5 
ROOT
ATOM      1  C   UNL d   1      46.174 -17.800  43.382  0.00  0.00     0.060 A 
ATOM      2  C   UNL d   1      46.323 -17.960  42.587  0.00  0.00     0.197 A 
ATOM      3  C   UNL d   1      46.112 -18.411  43.934  0.00  0.00     0.043 A 
ATOM      4  C   UNL d   1      46.084 -17.017  43.647  0.00  0.00     0.090 A 
ATOM      5  C   UNL d   1      45.935 -16.857  44.443  0.00  0.00     0.082 A 
ATOM      6  C   UNL d   1      46.196 -19.199  43.706  0.00  0.00     0.196 A 
ATOM      7  C   UNL d   1      46.408 -18.748  42.358  0.00  0.00     0.042 A 
ATOM      8  C   UNL d   1      46.345 -19.360  42.911  0.00  0.00     0.042 A 
ATOM      9  C   UNL d   1      45.959 -18.234  44.746  0.00  0.00     0.004 A 
ATOM     10  C   UNL d   1      45.877 -17.424  44.955  0.00  0.00     0.008 A 
ATOM     11  O   UNL d   1      46.381 -17.339  42.056  0.00  0.00    -0.286 OA
ATOM     12  O   UNL d   1      46.128 -19.811  44.290  0.00  0.00    -0.287 OA
ATOM     13  C   UNL d   1      46.561 -18.928  41.543  0.00  0.00     0.003 A 
ATOM     14  C   UNL d   1      46.434 -20.167  42.662  0.00  0.00     0.003 A 
ATOM     15  C   UNL d   1      46.583 -20.328  41.866  0.00  0.00     0.000 A 
ATOM     16  C   UNL d   1      46.646 -19.717  41.314  0.00  0.00     0.000 A 
ENDROOT
BRANCH   5  17
ATOM     17  C   UNL d   1      45.840 -16.101  44.739  0.00  0.00     0.212 C 
ATOM     18  O   UNL d   1      45.094 -15.805  44.950  0.00  0.00    -0.644 OA
ATOM     19  O   UNL d   1      46.479 -15.592  44.846  0.00  0.00    -0.644 OA
ENDBRANCH   5  17
BRANCH   4  20
ATOM     20  N   UNL d   1      46.143 -16.370  43.101  0.00  0.00    -0.242 NA
ATOM     21  C   UNL d   1      45.880 -15.625  43.294  0.00  0.00     0.119 C 
ENDBRANCH   4  20
TORSDOF 2
ENDMDL
MODEL 2
REMARK VINA RESULT:      26.2      6.976      7.770
REMARK  2 active torsions:
REMARK  status: ('A' for Active; 'I' for Inactive)
REMARK    1  A    between atoms: N_14  and  C_4 
REMARK    2  A    between atoms: C_9  and  C_5 
ROOT
ATOM      1  C   UNL d   1      44.152 -15.217  36.796  0.00  0.00     0.060 A 
ATOM      2  C   UNL d   1      43.409 -14.860  36.798  0.00  0.00     0.197 A 
ATOM      3  C   UNL d   1      44.234 -16.025  36.642  0.00  0.00     0.043 A 
ATOM      4  C   UNL d   1      44.837 -14.773  36.949  0.00  0.00     0.090 A 
ATOM      5  C   UNL d   1      45.581 -15.131  36.946  0.00  0.00     0.082 A 
ATOM      6  C   UNL d   1      43.576 -16.496  36.487  0.00  0.00     0.196 A 
ATOM      7  C   UNL d   1      42.750 -15.331  36.643  0.00  0.00     0.042 A 
ATOM      8  C   UNL d   1      42.832 -16.138  36.489  0.00  0.00     0.042 A 
ATOM      9  C   UNL d   1      45.001 -16.381  36.642  0.00  0.00     0.004 A 
ATOM     10  C   UNL d   1      45.657 -15.880  36.803  0.00  0.00     0.008 A 
ATOM     11  O   UNL d   1      43.351 -14.057  36.953  0.00  0.00    -0.286 OA
ATOM     12  O   UNL d   1      43.683 -17.324  36.331  0.00  0.00    -0.287 OA
ATOM     13  C   UNL d   1      41.979 -14.976  36.642  0.00  0.00     0.003 A 
ATOM     14  C   UNL d   1      42.145 -16.612  36.331  0.00  0.00     0.003 A 
ATOM     15  C   UNL d   1      41.401 -16.254  36.333  0.00  0.00     0.000 A 
ATOM     16  C   UNL d   1      41.319 -15.447  36.487  0.00  0.00     0.000 A 
ENDROOT
BRANCH   5  17
ATOM     17  C   UNL d   1      46.276 -14.726  37.092  0.00  0.00     0.212 C 
ATOM     18  O   UNL d   1      46.647 -14.270  36.506  0.00  0.00    -0.644 OA
ATOM     19  O   UNL d   1      46.647 -14.748  37.827  0.00  0.00    -0.644 OA
ENDBRANCH   5  17
BRANCH   4  20
ATOM     20  N   UNL d   1      44.783 -13.941  37.110  0.00  0.00    -0.242 NA
ATOM     21  C   UNL d   1      44.904 -13.644  37.856  0.00  0.00     0.119 C 
ENDBRANCH   4  20
TORSDOF 2
ENDMDL
MODEL 3
REMARK VINA RESULT:      28.0      7.249      7.858
REMARK  2 active torsions:
REMARK  status: ('A' for Active; 'I' for Inactive)
REMARK    1  A    between atoms: N_14  and  C_4 
REMARK    2  A    between atoms: C_9  and  C_5 
ROOT
ATOM      1  C   UNL d   1      43.791 -15.326  36.880  0.00  0.00     0.060 A 
ATOM      2  C   UNL d   1      44.156 -14.642  37.160  0.00  0.00     0.197 A 
ATOM      3  C   UNL d   1      44.239 -15.972  36.626  0.00  0.00     0.043 A 
ATOM      4  C   UNL d   1      42.963 -15.382  36.847  0.00  0.00     0.090 A 
ATOM      5  C   UNL d   1      42.598 -16.067  36.567  0.00  0.00     0.082 A 
ATOM      6  C   UNL d   1      45.063 -15.951  36.645  0.00  0.00     0.196 A 
ATOM      7  C   UNL d   1      44.981 -14.620  37.180  0.00  0.00     0.042 A 
ATOM      8  C   UNL d   1      45.428 -15.266  36.925  0.00  0.00     0.042 A 
ATOM      9  C   UNL d   1      43.854 -16.668  36.341  0.00  0.00     0.004 A 
ATOM     10  C   UNL d   1      43.013 -16.666  36.331  0.00  0.00     0.008 A 
ATOM     11  O   UNL d   1      43.693 -14.013  37.408  0.00  0.00    -0.286 OA
ATOM     12  O   UNL d   1      45.503 -16.626  36.379  0.00  0.00    -0.287 OA
ATOM     13  C   UNL d   1      45.369 -13.921  37.466  0.00  0.00     0.003 A 
ATOM     14  C   UNL d   1      46.276 -15.230  36.950  0.00  0.00     0.003 A 
ATOM     15  C   UNL d   1      46.642 -14.546  37.231  0.00  0.00     0.000 A 
ATOM     16  C   UNL d   1      46.194 -13.900  37.485  0.00  0.00     0.000 A 
ENDROOT
BRANCH   5  17
ATOM     17  C   UNL d   1      41.787 -16.158  36.520  0.00  0.00     0.212 C 
ATOM     18  O   UNL d   1      41.274 -15.506  36.510  0.00  0.00    -0.644 OA
ATOM     19  O   UNL d   1      41.434 -16.901  36.480  0.00  0.00    -0.644 OA
ENDBRANCH   5  17
BRANCH   4  20
ATOM     20  N   UNL d   1      42.478 -14.733  37.102  0.00  0.00    -0.242 NA
ATOM     21  C   UNL d   1      42.149 -14.714  37.845  0.00  0.00     0.119 C 
ENDBRANCH   4  20
TORSDOF 2
ENDMDL
