MODEL 1
REMARK VINA RESULT:      39.7      0.000      0.000
REMARK  5 active torsions:
REMARK  status: ('A' for Active; 'I' for Inactive)
REMARK    1  A    between atoms: C_9  and  N_1 
REMARK    2  A    between atoms: C_2  and  C_9 
REMARK    3  A    between atoms: S_14  and  C_5 
REMARK    4  A    between atoms: C_12  and  C_16 
REMARK       I    between atoms: N_13  and  C_12 
REMARK    5  A    between atoms: C_16  and  S_14 
ROOT
ATOM      1  C   UNL d   1     -56.832 -99.454 -44.665  0.00  0.00     0.189 A 
ATOM      2  N   UNL d   1     -56.013 -99.436 -44.642  0.00  0.00    -0.265 N 
ATOM      3  C   UNL d   1     -55.743-100.215 -44.612  0.00  0.00     0.202 A 
ATOM      4  N   UNL d   1     -57.071-100.240 -44.650  0.00  0.00    -0.126 NA
ATOM      5  N   UNL d   1     -56.398-100.714 -44.618  0.00  0.00    -0.121 NA
ATOM      6  C   UNL d   1     -55.529 -98.765 -44.646  0.00  0.00     0.103 C 
ENDROOT
BRANCH   1   7
ATOM      7  C   UNL d   1     -57.256 -98.756 -44.696  0.00  0.00     0.123 C 
BRANCH   7   8
ATOM      8  N   UNL d   1     -58.082 -98.765 -44.672  0.00  0.00    -0.265 N 
ATOM      9  C   UNL d   1     -58.588 -98.775 -45.329  0.00  0.00     0.296 A 
ATOM     10  S   UNL d   1     -59.362 -98.782 -45.046  0.00  0.00    -0.025 SA
ATOM     11  O   UNL d   1     -58.357 -98.777 -46.120  0.00  0.00    -0.259 OA
ATOM     12  C   UNL d   1     -59.327 -98.776 -44.210  0.00  0.00     0.050 A 
ATOM     13  C   UNL d   1     -58.535 -98.766 -43.988  0.00  0.00     0.074 A 
ATOM     14  C   UNL d   1     -59.922 -98.779 -43.634  0.00  0.00     0.008 A 
ATOM     15  C   UNL d   1     -58.333 -98.758 -43.181  0.00  0.00     0.018 A 
ATOM     16  C   UNL d   1     -58.924 -98.761 -42.602  0.00  0.00     0.002 A 
ATOM     17  C   UNL d   1     -59.723 -98.772 -42.840  0.00  0.00     0.001 A 
ENDBRANCH   7   8
ENDBRANCH   1   7
BRANCH   3  18
ATOM     18  S   UNL d   1     -54.954-100.455 -44.583  0.00  0.00    -0.043 SA
BRANCH  18  19
ATOM     19  C   UNL d   1     -54.746-101.238 -44.754  0.00  0.00     0.099 C 
BRANCH  19  20
ATOM     20  C   UNL d   1     -54.806-101.822 -44.171  0.00  0.00     0.271 C 
ATOM     21  N   UNL d   1     -54.793-101.614 -43.375  0.00  0.00    -0.272 N 
ATOM     22  C   UNL d   1     -54.726-100.883 -42.999  0.00  0.00     0.083 A 
ATOM     23  C   UNL d   1     -54.852-102.191 -42.799  0.00  0.00     0.083 A 
ATOM     24  C   UNL d   1     -54.745-101.019 -42.184  0.00  0.00     0.021 A 
ATOM     25  C   UNL d   1     -54.823-101.821 -42.068  0.00  0.00     0.021 A 
ATOM     26  O   UNL d   1     -54.880-102.617 -44.389  0.00  0.00    -0.266 OA
ENDBRANCH  19  20
ENDBRANCH  18  19
ENDBRANCH   3  18
TORSDOF 5
ENDMDL
