MODEL 1
REMARK VINA RESULT:       1.5      0.000      0.000
REMARK  9 active torsions:
REMARK  status: ('A' for Active; 'I' for Inactive)
REMARK       I    between atoms: C_5  and  N_1 
REMARK    1  A    between atoms: C_6  and  N_1 
REMARK    2  A    between atoms: C_7  and  C_3 
REMARK    3  A    between atoms: C_8  and  C_4 
REMARK    4  A    between atoms: C_17  and  C_5 
REMARK    5  A    between atoms: N_9  and  C_6 
REMARK    6  A    between atoms: N_14  and  N_9 
REMARK       I    between atoms: C_10  and  N_14 
REMARK    7  A    between atoms: C_20  and  C_10 
REMARK    8  A    between atoms: C_16  and  C_21 
REMARK    9  A    between atoms: C_21  and  C_20 
ROOT
ATOM      1  C   UNL d   1     -41.298-122.182 -50.989  0.00  0.00     0.064 C 
ENDROOT
BRANCH   1   2
ATOM      2  C   UNL d   1     -41.280-121.653 -51.616  0.00  0.00     0.297 C 
ATOM      3  N   UNL d   1     -41.196-121.919 -52.388  0.00  0.00    -0.103 NA
ATOM      4  O   UNL d   1     -41.348-120.847 -51.454  0.00  0.00    -0.264 OA
BRANCH   3   5
ATOM      5  N   UNL d   1     -41.128-122.720 -52.556  0.00  0.00    -0.114 NA
BRANCH   5   6
ATOM      6  C   UNL d   1     -41.244-123.016 -53.295  0.00  0.00     0.243 C 
ATOM      7  S   UNL d   1     -41.156-123.815 -53.445  0.00  0.00    -0.035 SA
BRANCH   6   8
ATOM      8  N   UNL d   1     -41.453-122.503 -53.905  0.00  0.00    -0.177 NA
ATOM      9  C   UNL d   1     -41.760-122.803 -54.604  0.00  0.00     0.281 C 
ATOM     10  O   UNL d   1     -41.864-123.608 -54.710  0.00  0.00    -0.265 OA
BRANCH   9  11
ATOM     11  C   UNL d   1     -41.965-122.285 -55.202  0.00  0.00     0.058 A 
ATOM     12  C   UNL d   1     -41.395-121.994 -55.727  0.00  0.00     0.005 A 
ATOM     13  C   UNL d   1     -41.593-121.470 -56.333  0.00  0.00     0.000 A 
ATOM     14  C   UNL d   1     -42.385-121.228 -56.419  0.00  0.00     0.000 A 
ATOM     15  C   UNL d   1     -42.962-121.511 -55.903  0.00  0.00     0.000 A 
ATOM     16  C   UNL d   1     -42.749-122.036 -55.300  0.00  0.00     0.005 A 
ENDBRANCH   9  11
ENDBRANCH   6   8
ENDBRANCH   5   6
ENDBRANCH   3   5
ENDBRANCH   1   2
BRANCH   1  17
ATOM     17  C   UNL d   1     -41.360-121.899 -50.221  0.00  0.00     0.005 C 
BRANCH  17  18
ATOM     18  C   UNL d   1     -41.821-122.298 -49.655  0.00  0.00    -0.000 A 
ATOM     19  C   UNL d   1     -41.479-122.529 -48.946  0.00  0.00    -0.001 A 
ATOM     20  C   UNL d   1     -41.918-122.924 -48.376  0.00  0.00     0.016 A 
ATOM     21  C   UNL d   1     -42.710-123.089 -48.517  0.00  0.00     0.188 A 
ATOM     22  C   UNL d   1     -43.073-122.861 -49.230  0.00  0.00     0.016 A 
ATOM     23  O   UNL d   1     -43.171-123.494 -47.938  0.00  0.00    -0.287 OA
ATOM     24  C   UNL d   1     -42.613-122.463 -49.796  0.00  0.00    -0.001 A 
BRANCH  20  25
ATOM     25  C   UNL d   1     -41.576-123.155 -47.668  0.00  0.00     0.022 C 
ATOM     26  C   UNL d   1     -41.127-123.735 -48.055  0.00  0.00     0.004 C 
ATOM     27  C   UNL d   1     -42.023-122.572 -47.255  0.00  0.00     0.004 C 
ATOM     28  C   UNL d   1     -41.231-123.383 -46.930  0.00  0.00     0.004 C 
ENDBRANCH  20  25
BRANCH  22  29
ATOM     29  C   UNL d   1     -43.864-123.017 -49.391  0.00  0.00     0.022 C 
ATOM     30  C   UNL d   1     -44.043-122.220 -49.298  0.00  0.00     0.004 C 
ATOM     31  C   UNL d   1     -43.688-123.817 -49.484  0.00  0.00     0.004 C 
ATOM     32  C   UNL d   1     -44.655-123.183 -49.553  0.00  0.00     0.004 C 
ENDBRANCH  22  29
ENDBRANCH  17  18
ENDBRANCH   1  17
TORSDOF 9
ENDMDL
MODEL 2
REMARK VINA RESULT:       2.6      0.394      1.803
REMARK  9 active torsions:
REMARK  status: ('A' for Active; 'I' for Inactive)
REMARK       I    between atoms: C_5  and  N_1 
REMARK    1  A    between atoms: C_6  and  N_1 
REMARK    2  A    between atoms: C_7  and  C_3 
REMARK    3  A    between atoms: C_8  and  C_4 
REMARK    4  A    between atoms: C_17  and  C_5 
REMARK    5  A    between atoms: N_9  and  C_6 
REMARK    6  A    between atoms: N_14  and  N_9 
REMARK       I    between atoms: C_10  and  N_14 
REMARK    7  A    between atoms: C_20  and  C_10 
REMARK    8  A    between atoms: C_16  and  C_21 
REMARK    9  A    between atoms: C_21  and  C_20 
ROOT
ATOM      1  C   UNL d   1     -41.126-122.143 -50.940  0.00  0.00     0.064 C 
ENDROOT
BRANCH   1   2
ATOM      2  C   UNL d   1     -41.246-121.625 -51.564  0.00  0.00     0.297 C 
ATOM      3  N   UNL d   1     -41.366-121.905 -52.326  0.00  0.00    -0.103 NA
ATOM      4  O   UNL d   1     -41.243-120.814 -51.410  0.00  0.00    -0.264 OA
BRANCH   3   5
ATOM      5  N   UNL d   1     -41.370-122.710 -52.486  0.00  0.00    -0.114 NA
BRANCH   5   6
ATOM      6  C   UNL d   1     -41.691-123.014 -53.159  0.00  0.00     0.243 C 
ATOM      7  S   UNL d   1     -41.947-123.790 -53.188  0.00  0.00    -0.035 SA
BRANCH   6   8
ATOM      8  N   UNL d   1     -41.761-122.532 -53.823  0.00  0.00    -0.177 NA
ATOM      9  C   UNL d   1     -42.057-122.842 -54.523  0.00  0.00     0.281 C 
ATOM     10  O   UNL d   1     -42.287-123.625 -54.576  0.00  0.00    -0.265 OA
BRANCH   9  11
ATOM     11  C   UNL d   1     -42.122-122.354 -55.177  0.00  0.00     0.058 A 
ATOM     12  C   UNL d   1     -41.572-121.751 -55.314  0.00  0.00     0.005 A 
ATOM     13  C   UNL d   1     -41.630-121.254 -55.970  0.00  0.00     0.000 A 
ATOM     14  C   UNL d   1     -42.256-121.362 -56.508  0.00  0.00     0.000 A 
ATOM     15  C   UNL d   1     -42.811-121.959 -56.382  0.00  0.00     0.000 A 
ATOM     16  C   UNL d   1     -42.740-122.449 -55.719  0.00  0.00     0.005 A 
ENDBRANCH   9  11
ENDBRANCH   6   8
ENDBRANCH   5   6
ENDBRANCH   3   5
ENDBRANCH   1   2
BRANCH   1  17
ATOM     17  C   UNL d   1     -41.130-121.858 -50.170  0.00  0.00     0.005 C 
BRANCH  17  18
ATOM     18  C   UNL d   1     -41.593-122.222 -49.582  0.00  0.00    -0.000 A 
ATOM     19  C   UNL d   1     -42.358-122.461 -49.760  0.00  0.00    -0.001 A 
ATOM     20  C   UNL d   1     -42.829-122.821 -49.193  0.00  0.00     0.016 A 
ATOM     21  C   UNL d   1     -42.531-122.945 -48.438  0.00  0.00     0.188 A 
ATOM     22  C   UNL d   1     -41.758-122.710 -48.240  0.00  0.00     0.016 A 
ATOM     23  O   UNL d   1     -43.006-123.315 -47.847  0.00  0.00    -0.287 OA
ATOM     24  C   UNL d   1     -41.295-122.346 -48.827  0.00  0.00    -0.001 A 
BRANCH  20  25
ATOM     25  C   UNL d   1     -43.593-123.060 -49.371  0.00  0.00     0.022 C 
ATOM     26  C   UNL d   1     -43.324-123.811 -49.597  0.00  0.00     0.004 C 
ATOM     27  C   UNL d   1     -43.887-122.302 -49.146  0.00  0.00     0.004 C 
ATOM     28  C   UNL d   1     -44.386-123.292 -49.551  0.00  0.00     0.004 C 
ENDBRANCH  20  25
BRANCH  22  29
ATOM     29  C   UNL d   1     -41.440-122.824 -47.490  0.00  0.00     0.022 C 
ATOM     30  C   UNL d   1     -41.405-123.634 -47.626  0.00  0.00     0.004 C 
ATOM     31  C   UNL d   1     -41.475-122.012 -47.352  0.00  0.00     0.004 C 
ATOM     32  C   UNL d   1     -41.123-122.929 -46.737  0.00  0.00     0.004 C 
ENDBRANCH  22  29
ENDBRANCH  17  18
ENDBRANCH   1  17
TORSDOF 9
ENDMDL
