MODEL 1
REMARK VINA RESULT:      -8.3      0.000      0.000
REMARK  1 active torsions:
REMARK  status: ('A' for Active; 'I' for Inactive)
REMARK       I    between atoms: C_4  and  N_1 
REMARK    1  A    between atoms: C_7  and  C_4 
ROOT
ATOM      1  N   UNL d   1     -48.719  12.768  23.106  0.00  0.00    -0.175 N 
ATOM      2  N   UNL d   1     -48.390  12.007  23.164  0.00  0.00    -0.057 NA
ATOM      3  N   UNL d   1     -48.983  11.490  23.380  0.00  0.00    -0.129 NA
ATOM      4  C   UNL d   1     -48.310  13.461  22.899  0.00  0.00     0.282 C 
ATOM      5  C   UNL d   1     -49.521  12.715  23.288  0.00  0.00     0.107 A 
ATOM      6  C   UNL d   1     -49.688  11.925  23.458  0.00  0.00     0.122 A 
ATOM      7  O   UNL d   1     -48.713  14.175  22.865  0.00  0.00    -0.265 OA
ATOM      8  C   UNL d   1     -50.121  13.277  23.322  0.00  0.00     0.021 A 
ATOM      9  C   UNL d   1     -50.464  11.697  23.665  0.00  0.00     0.022 A 
ATOM     10  C   UNL d   1     -50.888  13.051  23.526  0.00  0.00     0.002 A 
ATOM     11  C   UNL d   1     -51.063  12.262  23.698  0.00  0.00     0.002 A 
ENDROOT
BRANCH   4  12
ATOM     12  C   UNL d   1     -47.504  13.424  22.732  0.00  0.00     0.058 A 
ATOM     13  C   UNL d   1     -47.248  13.221  21.975  0.00  0.00     0.005 A 
ATOM     14  C   UNL d   1     -46.442  13.184  21.807  0.00  0.00     0.000 A 
ATOM     15  C   UNL d   1     -45.886  13.348  22.390  0.00  0.00     0.000 A 
ATOM     16  C   UNL d   1     -46.140  13.552  23.148  0.00  0.00     0.000 A 
ATOM     17  C   UNL d   1     -45.070  13.308  22.211  0.00  0.00     0.000 C 
ATOM     18  C   UNL d   1     -46.945  13.590  23.319  0.00  0.00     0.005 A 
ENDBRANCH   4  12
TORSDOF 1
ENDMDL
MODEL 2
REMARK VINA RESULT:      -8.1      1.390      2.068
REMARK  1 active torsions:
REMARK  status: ('A' for Active; 'I' for Inactive)
REMARK       I    between atoms: C_4  and  N_1 
REMARK    1  A    between atoms: C_7  and  C_4 
ROOT
ATOM      1  N   UNL d   1     -48.774  14.260  22.986  0.00  0.00    -0.175 N 
ATOM      2  N   UNL d   1     -48.451  14.950  22.655  0.00  0.00    -0.057 NA
ATOM      3  N   UNL d   1     -49.025  15.530  22.664  0.00  0.00    -0.129 NA
ATOM      4  C   UNL d   1     -48.380  13.535  23.085  0.00  0.00     0.282 C 
ATOM      5  C   UNL d   1     -49.554  14.420  23.200  0.00  0.00     0.107 A 
ATOM      6  C   UNL d   1     -49.712  15.205  23.002  0.00  0.00     0.122 A 
ATOM      7  O   UNL d   1     -48.776  12.902  23.424  0.00  0.00    -0.265 OA
ATOM      8  C   UNL d   1     -50.140  13.960  23.548  0.00  0.00     0.021 A 
ATOM      9  C   UNL d   1     -50.466  15.531  23.153  0.00  0.00     0.022 A 
ATOM     10  C   UNL d   1     -50.885  14.281  23.698  0.00  0.00     0.002 A 
ATOM     11  C   UNL d   1     -51.052  15.067  23.502  0.00  0.00     0.002 A 
ENDROOT
BRANCH   4  12
ATOM     12  C   UNL d   1     -47.596  13.462  22.842  0.00  0.00     0.058 A 
ATOM     13  C   UNL d   1     -46.983  13.685  23.347  0.00  0.00     0.005 A 
ATOM     14  C   UNL d   1     -46.200  13.612  23.105  0.00  0.00     0.000 A 
ATOM     15  C   UNL d   1     -46.019  13.316  22.359  0.00  0.00     0.000 A 
ATOM     16  C   UNL d   1     -46.630  13.091  21.852  0.00  0.00     0.000 A 
ATOM     17  C   UNL d   1     -45.221  13.245  22.121  0.00  0.00     0.000 C 
ATOM     18  C   UNL d   1     -47.416  13.164  22.092  0.00  0.00     0.005 A 
ENDBRANCH   4  12
TORSDOF 1
ENDMDL
MODEL 3
REMARK VINA RESULT:      -7.9      1.548      1.723
REMARK  1 active torsions:
REMARK  status: ('A' for Active; 'I' for Inactive)
REMARK       I    between atoms: C_4  and  N_1 
REMARK    1  A    between atoms: C_7  and  C_4 
ROOT
ATOM      1  N   UNL d   1     -48.775  13.603  22.277  0.00  0.00    -0.175 N 
ATOM      2  N   UNL d   1     -48.718  12.953  21.764  0.00  0.00    -0.057 NA
ATOM      3  N   UNL d   1     -49.420  12.890  21.353  0.00  0.00    -0.129 NA
ATOM      4  C   UNL d   1     -48.184  13.867  22.799  0.00  0.00     0.282 C 
ATOM      5  C   UNL d   1     -49.520  13.942  22.179  0.00  0.00     0.107 A 
ATOM      6  C   UNL d   1     -49.922  13.502  21.607  0.00  0.00     0.122 A 
ATOM      7  O   UNL d   1     -48.326  14.522  23.272  0.00  0.00    -0.265 OA
ATOM      8  C   UNL d   1     -49.888  14.588  22.530  0.00  0.00     0.021 A 
ATOM      9  C   UNL d   1     -50.699  13.713  21.386  0.00  0.00     0.022 A 
ATOM     10  C   UNL d   1     -50.656  14.797  22.312  0.00  0.00     0.002 A 
ATOM     11  C   UNL d   1     -51.064  14.362  21.741  0.00  0.00     0.002 A 
ENDROOT
BRANCH   4  12
ATOM     12  C   UNL d   1     -47.465  13.469  22.834  0.00  0.00     0.058 A 
ATOM     13  C   UNL d   1     -47.383  12.803  23.314  0.00  0.00     0.005 A 
ATOM     14  C   UNL d   1     -46.663  12.405  23.349  0.00  0.00     0.000 A 
ATOM     15  C   UNL d   1     -46.020  12.664  22.908  0.00  0.00     0.000 A 
ATOM     16  C   UNL d   1     -46.099  13.329  22.427  0.00  0.00     0.000 A 
ATOM     17  C   UNL d   1     -45.293  12.253  22.950  0.00  0.00     0.000 C 
ATOM     18  C   UNL d   1     -46.818  13.731  22.389  0.00  0.00     0.005 A 
ENDBRANCH   4  12
TORSDOF 1
ENDMDL
MODEL 4
REMARK VINA RESULT:      -7.9      1.562      3.295
REMARK  1 active torsions:
REMARK  status: ('A' for Active; 'I' for Inactive)
REMARK       I    between atoms: C_4  and  N_1 
REMARK    1  A    between atoms: C_7  and  C_4 
ROOT
ATOM      1  N   UNL d   1     -48.102  12.841  23.105  0.00  0.00    -0.175 N 
ATOM      2  N   UNL d   1     -48.758  12.361  23.277  0.00  0.00    -0.057 NA
ATOM      3  N   UNL d   1     -48.483  11.633  23.523  0.00  0.00    -0.129 NA
ATOM      4  C   UNL d   1     -48.130  13.627  22.837  0.00  0.00     0.282 C 
ATOM      5  C   UNL d   1     -47.419  12.402  23.247  0.00  0.00     0.107 A 
ATOM      6  C   UNL d   1     -47.652  11.653  23.505  0.00  0.00     0.122 A 
ATOM      7  O   UNL d   1     -47.431  14.030  22.690  0.00  0.00    -0.265 OA
ATOM      8  C   UNL d   1     -46.620  12.580  23.176  0.00  0.00     0.021 A 
ATOM      9  C   UNL d   1     -47.076  11.079  23.695  0.00  0.00     0.022 A 
ATOM     10  C   UNL d   1     -46.051  12.013  23.363  0.00  0.00     0.002 A 
ATOM     11  C   UNL d   1     -46.275  11.261  23.623  0.00  0.00     0.002 A 
ENDROOT
BRANCH   4  12
ATOM     12  C   UNL d   1     -48.859  13.992  22.721  0.00  0.00     0.058 A 
ATOM     13  C   UNL d   1     -49.188  14.459  23.316  0.00  0.00     0.005 A 
ATOM     14  C   UNL d   1     -49.917  14.824  23.200  0.00  0.00     0.000 A 
ATOM     15  C   UNL d   1     -50.325  14.728  22.492  0.00  0.00     0.000 A 
ATOM     16  C   UNL d   1     -49.998  14.262  21.895  0.00  0.00     0.000 A 
ATOM     17  C   UNL d   1     -51.064  15.103  22.384  0.00  0.00     0.000 C 
ATOM     18  C   UNL d   1     -49.269  13.896  22.008  0.00  0.00     0.005 A 
ENDBRANCH   4  12
TORSDOF 1
ENDMDL
MODEL 5
REMARK VINA RESULT:      -6.8      8.514     10.124
REMARK  1 active torsions:
REMARK  status: ('A' for Active; 'I' for Inactive)
REMARK       I    between atoms: C_4  and  N_1 
REMARK    1  A    between atoms: C_7  and  C_4 
ROOT
ATOM      1  N   UNL d   1     -39.755  14.833  18.990  0.00  0.00    -0.175 N 
ATOM      2  N   UNL d   1     -39.016  15.212  18.986  0.00  0.00    -0.057 NA
ATOM      3  N   UNL d   1     -38.955  15.657  19.668  0.00  0.00    -0.129 NA
ATOM      4  C   UNL d   1     -40.046  14.325  18.400  0.00  0.00     0.282 C 
ATOM      5  C   UNL d   1     -40.149  15.047  19.681  0.00  0.00     0.107 A 
ATOM      6  C   UNL d   1     -39.656  15.557  20.103  0.00  0.00     0.122 A 
ATOM      7  O   UNL d   1     -40.790  13.991  18.484  0.00  0.00    -0.265 OA
ATOM      8  C   UNL d   1     -40.888  14.849  19.984  0.00  0.00     0.021 A 
ATOM      9  C   UNL d   1     -39.907  15.871  20.835  0.00  0.00     0.022 A 
ATOM     10  C   UNL d   1     -41.135  15.158  20.708  0.00  0.00     0.002 A 
ATOM     11  C   UNL d   1     -40.648  15.670  21.136  0.00  0.00     0.002 A 
ENDROOT
BRANCH   4  12
ATOM     12  C   UNL d   1     -39.583  14.163  17.738  0.00  0.00     0.058 A 
ATOM     13  C   UNL d   1     -39.088  13.504  17.730  0.00  0.00     0.005 A 
ATOM     14  C   UNL d   1     -38.626  13.342  17.068  0.00  0.00     0.000 A 
ATOM     15  C   UNL d   1     -38.652  13.834  16.409  0.00  0.00     0.000 A 
ATOM     16  C   UNL d   1     -39.146  14.494  16.415  0.00  0.00     0.000 A 
ATOM     17  C   UNL d   1     -38.179  13.662  15.741  0.00  0.00     0.000 C 
ATOM     18  C   UNL d   1     -39.610  14.659  17.076  0.00  0.00     0.005 A 
ENDBRANCH   4  12
TORSDOF 1
ENDMDL
MODEL 6
REMARK VINA RESULT:      -6.5      8.694      9.511
REMARK  1 active torsions:
REMARK  status: ('A' for Active; 'I' for Inactive)
REMARK       I    between atoms: C_4  and  N_1 
REMARK    1  A    between atoms: C_7  and  C_4 
ROOT
ATOM      1  N   UNL d   1     -40.224  14.765  19.044  0.00  0.00    -0.175 N 
ATOM      2  N   UNL d   1     -39.907  14.010  18.907  0.00  0.00    -0.057 NA
ATOM      3  N   UNL d   1     -39.982  13.842  18.112  0.00  0.00    -0.129 NA
ATOM      4  C   UNL d   1     -40.260  15.153  19.778  0.00  0.00     0.282 C 
ATOM      5  C   UNL d   1     -40.497  15.063  18.326  0.00  0.00     0.107 A 
ATOM      6  C   UNL d   1     -40.348  14.493  17.746  0.00  0.00     0.122 A 
ATOM      7  O   UNL d   1     -40.591  15.902  19.825  0.00  0.00    -0.265 OA
ATOM      8  C   UNL d   1     -40.858  15.772  18.119  0.00  0.00     0.021 A 
ATOM      9  C   UNL d   1     -40.566  14.638  16.953  0.00  0.00     0.022 A 
ATOM     10  C   UNL d   1     -41.073  15.914  17.335  0.00  0.00     0.002 A 
ATOM     11  C   UNL d   1     -40.928  15.350  16.750  0.00  0.00     0.002 A 
ENDROOT
BRANCH   4  12
ATOM     12  C   UNL d   1     -39.962  14.781  20.450  0.00  0.00     0.058 A 
ATOM     13  C   UNL d   1     -39.163  14.852  20.643  0.00  0.00     0.005 A 
ATOM     14  C   UNL d   1     -38.866  14.480  21.315  0.00  0.00     0.000 A 
ATOM     15  C   UNL d   1     -39.360  14.036  21.800  0.00  0.00     0.000 A 
ATOM     16  C   UNL d   1     -40.159  13.964  21.610  0.00  0.00     0.000 A 
ATOM     17  C   UNL d   1     -39.049  13.662  22.480  0.00  0.00     0.000 C 
ATOM     18  C   UNL d   1     -40.460  14.334  20.938  0.00  0.00     0.005 A 
ENDBRANCH   4  12
TORSDOF 1
ENDMDL
MODEL 7
REMARK VINA RESULT:      -6.2      9.048      9.744
REMARK  1 active torsions:
REMARK  status: ('A' for Active; 'I' for Inactive)
REMARK       I    between atoms: C_4  and  N_1 
REMARK    1  A    between atoms: C_7  and  C_4 
ROOT
ATOM      1  N   UNL d   1     -39.540  14.412  20.082  0.00  0.00    -0.175 N 
ATOM      2  N   UNL d   1     -38.871  14.453  19.592  0.00  0.00    -0.057 NA
ATOM      3  N   UNL d   1     -38.222  14.217  20.027  0.00  0.00    -0.129 NA
ATOM      4  C   UNL d   1     -40.318  14.603  19.862  0.00  0.00     0.282 C 
ATOM      5  C   UNL d   1     -39.298  14.149  20.825  0.00  0.00     0.107 A 
ATOM      6  C   UNL d   1     -38.482  14.028  20.794  0.00  0.00     0.122 A 
ATOM      7  O   UNL d   1     -40.923  14.534  20.411  0.00  0.00    -0.265 OA
ATOM      8  C   UNL d   1     -39.707  14.003  21.523  0.00  0.00     0.021 A 
ATOM      9  C   UNL d   1     -38.074  13.758  21.470  0.00  0.00     0.022 A 
ATOM     10  C   UNL d   1     -39.304  13.737  22.192  0.00  0.00     0.002 A 
ATOM     11  C   UNL d   1     -38.487  13.613  22.169  0.00  0.00     0.002 A 
ENDROOT
BRANCH   4  12
ATOM     12  C   UNL d   1     -40.473  14.859  19.095  0.00  0.00     0.058 A 
ATOM     13  C   UNL d   1     -40.607  14.311  18.494  0.00  0.00     0.005 A 
ATOM     14  C   UNL d   1     -40.762  14.567  17.727  0.00  0.00     0.000 A 
ATOM     15  C   UNL d   1     -40.784  15.370  17.551  0.00  0.00     0.000 A 
ATOM     16  C   UNL d   1     -40.650  15.921  18.150  0.00  0.00     0.000 A 
ATOM     17  C   UNL d   1     -40.942  15.622  16.769  0.00  0.00     0.000 C 
ATOM     18  C   UNL d   1     -40.495  15.668  18.919  0.00  0.00     0.005 A 
ENDBRANCH   4  12
TORSDOF 1
ENDMDL
MODEL 8
REMARK VINA RESULT:      -6.1      8.746     10.616
REMARK  1 active torsions:
REMARK  status: ('A' for Active; 'I' for Inactive)
REMARK       I    between atoms: C_4  and  N_1 
REMARK    1  A    between atoms: C_7  and  C_4 
ROOT
ATOM      1  N   UNL d   1     -39.379  14.510  18.100  0.00  0.00    -0.175 N 
ATOM      2  N   UNL d   1     -39.866  15.092  17.763  0.00  0.00    -0.057 NA
ATOM      3  N   UNL d   1     -39.731  15.102  16.959  0.00  0.00    -0.129 NA
ATOM      4  C   UNL d   1     -39.339  14.314  18.908  0.00  0.00     0.282 C 
ATOM      5  C   UNL d   1     -38.942  14.160  17.496  0.00  0.00     0.107 A 
ATOM      6  C   UNL d   1     -39.158  14.524  16.787  0.00  0.00     0.122 A 
ATOM      7  O   UNL d   1     -38.828  13.723  19.156  0.00  0.00    -0.265 OA
ATOM      8  C   UNL d   1     -38.378  13.561  17.492  0.00  0.00     0.021 A 
ATOM      9  C   UNL d   1     -38.805  14.285  16.070  0.00  0.00     0.022 A 
ATOM     10  C   UNL d   1     -38.029  13.324  16.783  0.00  0.00     0.002 A 
ATOM     11  C   UNL d   1     -38.240  13.684  16.070  0.00  0.00     0.002 A 
ENDROOT
BRANCH   4  12
ATOM     12  C   UNL d   1     -39.813  14.716  19.448  0.00  0.00     0.058 A 
ATOM     13  C   UNL d   1     -40.537  14.397  19.681  0.00  0.00     0.005 A 
ATOM     14  C   UNL d   1     -41.011  14.799  20.221  0.00  0.00     0.000 A 
ATOM     15  C   UNL d   1     -40.770  15.521  20.533  0.00  0.00     0.000 A 
ATOM     16  C   UNL d   1     -40.047  15.842  20.301  0.00  0.00     0.000 A 
ATOM     17  C   UNL d   1     -41.258  15.922  21.081  0.00  0.00     0.000 C 
ATOM     18  C   UNL d   1     -39.570  15.442  19.761  0.00  0.00     0.005 A 
ENDBRANCH   4  12
TORSDOF 1
ENDMDL
