MODEL 1
REMARK VINA RESULT:       3.0      0.000      0.000
REMARK  6 active torsions:
REMARK  status: ('A' for Active; 'I' for Inactive)
REMARK    1  A    between atoms: S_5  and  C_2 
REMARK    2  A    between atoms: C_16  and  S_5 
REMARK    3  A    between atoms: N_11  and  C_8 
REMARK    4  A    between atoms: C_18  and  N_11 
REMARK    5  A    between atoms: C_19  and  N_12 
REMARK    6  A    between atoms: C_27  and  C_19 
ROOT
ATOM      1  C   UNL d   1      32.934  19.545 -22.095  0.00  0.00     0.197 A 
ATOM      2  C   UNL d   1      32.968  20.227 -21.634  0.00  0.00     0.227 A 
ATOM      3  N   UNL d   1      33.081  18.900 -21.605  0.00  0.00    -0.192 N 
ATOM      4  N   UNL d   1      32.787  19.430 -22.903  0.00  0.00    -0.206 NA
ATOM      5  N   UNL d   1      33.138  19.999 -20.849  0.00  0.00    -0.115 NA
ATOM      6  N   UNL d   1      33.207  19.172 -20.838  0.00  0.00    -0.058 NA
ATOM      7  C   UNL d   1      32.787  18.668 -23.226  0.00  0.00     0.166 A 
ATOM      8  C   UNL d   1      32.935  18.023 -22.728  0.00  0.00     0.054 A 
ATOM      9  C   UNL d   1      33.081  18.134 -21.924  0.00  0.00     0.089 A 
ATOM     10  C   UNL d   1      33.229  17.488 -21.431  0.00  0.00     0.020 A 
ATOM     11  C   UNL d   1      32.936  17.258 -23.043  0.00  0.00     0.016 A 
ATOM     12  C   UNL d   1      33.083  16.611 -22.554  0.00  0.00     0.058 A 
ATOM     13  C   UNL d   1      33.230  16.727 -21.746  0.00  0.00     0.013 A 
ATOM     14 CL   UNL d   1      33.084  15.851 -22.869  0.00  0.00    -0.082 Cl
ENDROOT
BRANCH   7  15
ATOM     15  N   UNL d   1      32.641  18.553 -24.030  0.00  0.00    -0.227 NA
BRANCH  15  16
ATOM     16  C   UNL d   1      31.872  18.426 -24.296  0.00  0.00     0.086 A 
ATOM     17  C   UNL d   1      31.445  19.043 -24.638  0.00  0.00     0.038 A 
ATOM     18  C   UNL d   1      30.680  18.909 -24.901  0.00  0.00     0.082 A 
ATOM     19  N   UNL d   1      30.332  18.158 -24.826  0.00  0.00    -0.302 N 
ATOM     20  C   UNL d   1      30.766  17.546 -24.483  0.00  0.00     0.082 A 
ATOM     21  C   UNL d   1      31.531  17.680 -24.220  0.00  0.00     0.038 A 
BRANCH  19  22
ATOM     22  C   UNL d   1      29.566  18.026 -25.090  0.00  0.00     0.080 C 
BRANCH  22  23
ATOM     23  C   UNL d   1      29.008  17.685 -24.586  0.00  0.00     0.018 A 
ATOM     24  C   UNL d   1      28.869  16.873 -24.608  0.00  0.00     0.002 A 
ATOM     25  C   UNL d   1      28.312  16.529 -24.106  0.00  0.00     0.000 A 
ATOM     26  C   UNL d   1      27.892  17.003 -23.579  0.00  0.00     0.000 A 
ATOM     27  C   UNL d   1      28.030  17.822 -23.554  0.00  0.00     0.000 A 
ATOM     28  C   UNL d   1      28.588  18.159 -24.059  0.00  0.00     0.002 A 
ENDBRANCH  22  23
ENDBRANCH  19  22
ENDBRANCH  15  16
ENDBRANCH   7  15
BRANCH   2  29
ATOM     29  S   UNL d   1      32.855  21.007 -21.891  0.00  0.00     0.231 S 
ATOM     30  O   UNL d   1      32.479  21.212 -21.190  0.00  0.00    -0.215 OA
ATOM     31  O   UNL d   1      33.234  20.796 -22.596  0.00  0.00    -0.215 OA
BRANCH  29  32
ATOM     32  C   UNL d   1      32.769  21.768 -22.196  0.00  0.00     0.090 A 
ATOM     33  C   UNL d   1      33.062  21.944 -22.940  0.00  0.00     0.011 A 
ATOM     34  C   UNL d   1      32.977  22.705 -23.245  0.00  0.00     0.001 A 
ATOM     35  C   UNL d   1      32.595  23.283 -22.796  0.00  0.00     0.000 A 
ATOM     36  C   UNL d   1      32.298  23.103 -22.044  0.00  0.00     0.001 A 
ATOM     37  C   UNL d   1      32.389  22.344 -21.749  0.00  0.00     0.011 A 
ENDBRANCH  29  32
ENDBRANCH   2  29
TORSDOF 6
ENDMDL
MODEL 2
REMARK VINA RESULT:       5.1      2.490      4.402
REMARK  6 active torsions:
REMARK  status: ('A' for Active; 'I' for Inactive)
REMARK    1  A    between atoms: S_5  and  C_2 
REMARK    2  A    between atoms: C_16  and  S_5 
REMARK    3  A    between atoms: N_11  and  C_8 
REMARK    4  A    between atoms: C_18  and  N_11 
REMARK    5  A    between atoms: C_19  and  N_12 
REMARK    6  A    between atoms: C_27  and  C_19 
ROOT
ATOM      1  C   UNL d   1      32.012  22.858 -21.350  0.00  0.00     0.197 A 
ATOM      2  C   UNL d   1      31.830  22.982 -20.557  0.00  0.00     0.227 A 
ATOM      3  N   UNL d   1      31.477  23.289 -21.804  0.00  0.00    -0.192 N 
ATOM      4  N   UNL d   1      32.599  22.404 -21.719  0.00  0.00    -0.206 NA
ATOM      5  N   UNL d   1      31.174  23.497 -20.520  0.00  0.00    -0.115 NA
ATOM      6  N   UNL d   1      30.959  23.685 -21.299  0.00  0.00    -0.058 NA
ATOM      7  C   UNL d   1      32.656  22.379 -22.544  0.00  0.00     0.166 A 
ATOM      8  C   UNL d   1      32.116  22.816 -22.995  0.00  0.00     0.054 A 
ATOM      9  C   UNL d   1      31.530  23.268 -22.631  0.00  0.00     0.089 A 
ATOM     10  C   UNL d   1      30.992  23.702 -23.084  0.00  0.00     0.020 A 
ATOM     11  C   UNL d   1      32.166  22.797 -23.821  0.00  0.00     0.016 A 
ATOM     12  C   UNL d   1      31.631  23.229 -24.275  0.00  0.00     0.058 A 
ATOM     13  C   UNL d   1      31.043  23.682 -23.906  0.00  0.00     0.013 A 
ATOM     14 CL   UNL d   1      31.682  23.208 -25.097  0.00  0.00    -0.082 Cl
ENDROOT
BRANCH   7  15
ATOM     15  N   UNL d   1      33.241  21.928 -22.911  0.00  0.00    -0.227 NA
BRANCH  15  16
ATOM     16  C   UNL d   1      33.193  21.106 -22.906  0.00  0.00     0.086 A 
ATOM     17  C   UNL d   1      33.146  20.690 -23.616  0.00  0.00     0.038 A 
ATOM     18  C   UNL d   1      33.098  19.871 -23.604  0.00  0.00     0.082 A 
ATOM     19  N   UNL d   1      33.096  19.459 -22.882  0.00  0.00    -0.302 N 
ATOM     20  C   UNL d   1      33.143  19.882 -22.176  0.00  0.00     0.082 A 
ATOM     21  C   UNL d   1      33.191  20.701 -22.189  0.00  0.00     0.038 A 
BRANCH  19  22
ATOM     22  C   UNL d   1      33.048  18.639 -22.872  0.00  0.00     0.080 C 
BRANCH  22  23
ATOM     23  C   UNL d   1      32.465  18.254 -23.311  0.00  0.00     0.018 A 
ATOM     24  C   UNL d   1      32.644  17.931 -24.048  0.00  0.00     0.002 A 
ATOM     25  C   UNL d   1      32.064  17.545 -24.490  0.00  0.00     0.000 A 
ATOM     26  C   UNL d   1      31.299  17.483 -24.190  0.00  0.00     0.000 A 
ATOM     27  C   UNL d   1      31.115  17.807 -23.447  0.00  0.00     0.000 A 
ATOM     28  C   UNL d   1      31.700  18.191 -23.011  0.00  0.00     0.002 A 
ENDBRANCH  22  23
ENDBRANCH  19  22
ENDBRANCH  15  16
ENDBRANCH   7  15
BRANCH   2  29
ATOM     29  S   UNL d   1      32.220  22.658 -19.901  0.00  0.00     0.231 S 
ATOM     30  O   UNL d   1      32.897  23.099 -20.052  0.00  0.00    -0.215 OA
ATOM     31  O   UNL d   1      31.537  22.216 -19.751  0.00  0.00    -0.215 OA
BRANCH  29  32
ATOM     32  C   UNL d   1      32.562  22.306 -19.238  0.00  0.00     0.090 A 
ATOM     33  C   UNL d   1      32.664  21.493 -19.217  0.00  0.00     0.011 A 
ATOM     34  C   UNL d   1      33.005  21.140 -18.554  0.00  0.00     0.001 A 
ATOM     35  C   UNL d   1      33.240  21.611 -17.918  0.00  0.00     0.000 A 
ATOM     36  C   UNL d   1      33.136  22.432 -17.941  0.00  0.00     0.001 A 
ATOM     37  C   UNL d   1      32.796  22.774 -18.604  0.00  0.00     0.011 A 
ENDBRANCH  29  32
ENDBRANCH   2  29
TORSDOF 6
ENDMDL
