MODEL 1
REMARK VINA RESULT:      -6.8      0.000      0.000
REMARK  5 active torsions:
REMARK  status: ('A' for Active; 'I' for Inactive)
REMARK    1  A    between atoms: C_2  and  S_1 
REMARK    2  A    between atoms: N_5  and  S_1 
REMARK    3  A    between atoms: O_18  and  C_4 
REMARK    4  A    between atoms: C_13  and  N_5 
REMARK    5  A    between atoms: C_11  and  C_13 
ROOT
ATOM      1  C   UNL d   1     -47.089  13.452  22.870  0.00  0.00     0.128 A 
ATOM      2  C   UNL d   1     -47.294  14.219  22.648  0.00  0.00     0.026 A 
ATOM      3  C   UNL d   1     -47.661  12.948  23.186  0.00  0.00     0.106 A 
ATOM      4  C   UNL d   1     -48.072  14.484  22.742  0.00  0.00     0.059 A 
ATOM      5  C   UNL d   1     -48.439  13.213  23.280  0.00  0.00     0.026 A 
ATOM      6  C   UNL d   1     -48.644  13.981  23.058  0.00  0.00     0.013 A 
ATOM      7 CL   UNL d   1     -48.276  15.252  22.521  0.00  0.00    -0.082 Cl
ATOM      8  C   UNL d   1     -49.421  14.246  23.153  0.00  0.00     0.001 C 
ENDROOT
BRANCH   1   9
ATOM      9  S   UNL d   1     -46.311  13.187  22.775  0.00  0.00     0.287 S 
ATOM     10  O   UNL d   1     -46.493  12.925  22.012  0.00  0.00    -0.198 OA
ATOM     11  O   UNL d   1     -46.130  13.448  23.537  0.00  0.00    -0.198 OA
BRANCH   9  12
ATOM     12  N   UNL d   1     -45.534  12.922  22.681  0.00  0.00    -0.155 NA
BRANCH  12  13
ATOM     13  C   UNL d   1     -45.142  13.039  21.964  0.00  0.00     0.137 C 
BRANCH  13  14
ATOM     14  C   UNL d   1     -44.361  12.780  21.872  0.00  0.00     0.120 A 
ATOM     15  O   UNL d   1     -44.015  12.130  22.249  0.00  0.00    -0.304 OA
ATOM     16  C   UNL d   1     -43.235  12.076  21.998  0.00  0.00     0.123 A 
ATOM     17  C   UNL d   1     -43.094  12.692  21.464  0.00  0.00     0.029 A 
ATOM     18  C   UNL d   1     -43.788  13.123  21.390  0.00  0.00     0.028 A 
ENDBRANCH  13  14
ENDBRANCH  12  13
ENDBRANCH   9  12
ENDBRANCH   1   9
BRANCH   3  19
ATOM     19  O   UNL d   1     -47.458  12.177  23.409  0.00  0.00    -0.327 OA
ATOM     20  C   UNL d   1     -48.035  11.665  23.698  0.00  0.00     0.181 C 
ENDBRANCH   3  19
TORSDOF 5
ENDMDL
MODEL 2
REMARK VINA RESULT:      -6.6      1.383      1.932
REMARK  5 active torsions:
REMARK  status: ('A' for Active; 'I' for Inactive)
REMARK    1  A    between atoms: C_2  and  S_1 
REMARK    2  A    between atoms: N_5  and  S_1 
REMARK    3  A    between atoms: O_18  and  C_4 
REMARK    4  A    between atoms: C_13  and  N_5 
REMARK    5  A    between atoms: C_11  and  C_13 
ROOT
ATOM      1  C   UNL d   1     -48.905  13.921  22.897  0.00  0.00     0.128 A 
ATOM      2  C   UNL d   1     -48.931  14.736  23.019  0.00  0.00     0.026 A 
ATOM      3  C   UNL d   1     -49.597  13.475  22.946  0.00  0.00     0.106 A 
ATOM      4  C   UNL d   1     -49.651  15.106  23.189  0.00  0.00     0.059 A 
ATOM      5  C   UNL d   1     -50.317  13.845  23.116  0.00  0.00     0.026 A 
ATOM      6  C   UNL d   1     -50.343  14.660  23.238  0.00  0.00     0.013 A 
ATOM      7 CL   UNL d   1     -49.678  15.921  23.311  0.00  0.00    -0.082 Cl
ATOM      8  C   UNL d   1     -51.063  15.030  23.408  0.00  0.00     0.001 C 
ENDROOT
BRANCH   1   9
ATOM      9  S   UNL d   1     -48.185  13.551  22.727  0.00  0.00     0.287 S 
ATOM     10  O   UNL d   1     -48.311  13.678  21.919  0.00  0.00    -0.198 OA
ATOM     11  O   UNL d   1     -48.059  13.423  23.533  0.00  0.00    -0.198 OA
BRANCH   9  12
ATOM     12  N   UNL d   1     -47.465  13.181  22.556  0.00  0.00    -0.155 NA
BRANCH  12  13
ATOM     13  C   UNL d   1     -46.758  13.510  22.824  0.00  0.00     0.137 C 
BRANCH  13  14
ATOM     14  C   UNL d   1     -46.036  13.156  22.628  0.00  0.00     0.120 A 
ATOM     15  O   UNL d   1     -45.743  12.446  22.933  0.00  0.00    -0.304 OA
ATOM     16  C   UNL d   1     -45.011  12.303  22.588  0.00  0.00     0.123 A 
ATOM     17  C   UNL d   1     -44.847  12.925  22.068  0.00  0.00     0.029 A 
ATOM     18  C   UNL d   1     -45.479  13.447  22.095  0.00  0.00     0.028 A 
ENDBRANCH  13  14
ENDBRANCH  12  13
ENDBRANCH   9  12
ENDBRANCH   1   9
BRANCH   3  19
ATOM     19  O   UNL d   1     -49.572  12.656  22.824  0.00  0.00    -0.327 OA
ATOM     20  C   UNL d   1     -50.258  12.205  22.909  0.00  0.00     0.181 C 
ENDBRANCH   3  19
TORSDOF 5
ENDMDL
MODEL 3
REMARK VINA RESULT:      -6.2      1.651      2.344
REMARK  5 active torsions:
REMARK  status: ('A' for Active; 'I' for Inactive)
REMARK    1  A    between atoms: C_2  and  S_1 
REMARK    2  A    between atoms: N_5  and  S_1 
REMARK    3  A    between atoms: O_18  and  C_4 
REMARK    4  A    between atoms: C_13  and  N_5 
REMARK    5  A    between atoms: C_11  and  C_13 
ROOT
ATOM      1  C   UNL d   1     -48.705  13.091  22.923  0.00  0.00     0.128 A 
ATOM      2  C   UNL d   1     -48.947  12.351  23.193  0.00  0.00     0.026 A 
ATOM      3  C   UNL d   1     -49.249  13.710  22.875  0.00  0.00     0.106 A 
ATOM      4  C   UNL d   1     -49.734  12.228  23.417  0.00  0.00     0.059 A 
ATOM      5  C   UNL d   1     -50.036  13.587  23.098  0.00  0.00     0.026 A 
ATOM      6  C   UNL d   1     -50.278  12.847  23.369  0.00  0.00     0.013 A 
ATOM      7 CL   UNL d   1     -49.976  11.488  23.688  0.00  0.00    -0.082 Cl
ATOM      8  C   UNL d   1     -51.064  12.725  23.593  0.00  0.00     0.001 C 
ENDROOT
BRANCH   1   9
ATOM      9  S   UNL d   1     -47.918  13.214  22.699  0.00  0.00     0.287 S 
ATOM     10  O   UNL d   1     -47.727  13.408  23.480  0.00  0.00    -0.198 OA
ATOM     11  O   UNL d   1     -48.109  13.019  21.919  0.00  0.00    -0.198 OA
BRANCH   9  12
ATOM     12  N   UNL d   1     -47.131  13.336  22.476  0.00  0.00    -0.155 NA
BRANCH  12  13
ATOM     13  C   UNL d   1     -46.528  12.907  22.838  0.00  0.00     0.137 C 
BRANCH  13  14
ATOM     14  C   UNL d   1     -45.764  12.915  22.520  0.00  0.00     0.120 A 
ATOM     15  O   UNL d   1     -45.428  13.527  22.075  0.00  0.00    -0.304 OA
ATOM     16  C   UNL d   1     -44.664  13.304  21.873  0.00  0.00     0.123 A 
ATOM     17  C   UNL d   1     -44.523  12.553  22.190  0.00  0.00     0.029 A 
ATOM     18  C   UNL d   1     -45.201  12.318  22.587  0.00  0.00     0.028 A 
ENDBRANCH  13  14
ENDBRANCH  12  13
ENDBRANCH   9  12
ENDBRANCH   1   9
BRANCH   3  19
ATOM     19  O   UNL d   1     -49.008  14.454  22.603  0.00  0.00    -0.327 OA
ATOM     20  C   UNL d   1     -49.538  15.086  22.604  0.00  0.00     0.181 C 
ENDBRANCH   3  19
TORSDOF 5
ENDMDL
MODEL 4
REMARK VINA RESULT:      -5.5      6.758      9.128
REMARK  5 active torsions:
REMARK  status: ('A' for Active; 'I' for Inactive)
REMARK    1  A    between atoms: C_2  and  S_1 
REMARK    2  A    between atoms: N_5  and  S_1 
REMARK    3  A    between atoms: O_18  and  C_4 
REMARK    4  A    between atoms: C_13  and  N_5 
REMARK    5  A    between atoms: C_11  and  C_13 
ROOT
ATOM      1  C   UNL d   1     -39.172  14.087  17.531  0.00  0.00     0.128 A 
ATOM      2  C   UNL d   1     -39.143  14.699  16.978  0.00  0.00     0.026 A 
ATOM      3  C   UNL d   1     -38.791  13.373  17.374  0.00  0.00     0.106 A 
ATOM      4  C   UNL d   1     -38.732  14.596  16.268  0.00  0.00     0.059 A 
ATOM      5  C   UNL d   1     -38.379  13.270  16.664  0.00  0.00     0.026 A 
ATOM      6  C   UNL d   1     -38.351  13.882  16.111  0.00  0.00     0.013 A 
ATOM      7 CL   UNL d   1     -38.703  15.207  15.715  0.00  0.00    -0.082 Cl
ATOM      8  C   UNL d   1     -37.940  13.779  15.401  0.00  0.00     0.001 C 
ENDROOT
BRANCH   1   9
ATOM      9  S   UNL d   1     -39.583  14.190  18.241  0.00  0.00     0.287 S 
ATOM     10  O   UNL d   1     -40.267  13.886  17.889  0.00  0.00    -0.198 OA
ATOM     11  O   UNL d   1     -38.900  14.494  18.592  0.00  0.00    -0.198 OA
BRANCH   9  12
ATOM     12  N   UNL d   1     -39.994  14.293  18.951  0.00  0.00    -0.155 NA
BRANCH  12  13
ATOM     13  C   UNL d   1     -40.098  15.049  19.263  0.00  0.00     0.137 C 
BRANCH  13  14
ATOM     14  C   UNL d   1     -40.551  15.158  19.946  0.00  0.00     0.120 A 
ATOM     15  O   UNL d   1     -40.729  14.579  20.510  0.00  0.00    -0.304 OA
ATOM     16  C   UNL d   1     -41.191  14.927  21.094  0.00  0.00     0.123 A 
ATOM     17  C   UNL d   1     -41.301  15.722  20.895  0.00  0.00     0.029 A 
ATOM     18  C   UNL d   1     -40.907  15.860  20.189  0.00  0.00     0.028 A 
ENDBRANCH  13  14
ENDBRANCH  12  13
ENDBRANCH   9  12
ENDBRANCH   1   9
BRANCH   3  19
ATOM     19  O   UNL d   1     -38.818  12.757  17.928  0.00  0.00    -0.327 OA
ATOM     20  C   UNL d   1     -38.348  12.088  17.826  0.00  0.00     0.181 C 
ENDBRANCH   3  19
TORSDOF 5
ENDMDL
MODEL 5
REMARK VINA RESULT:      -5.5      1.826      4.183
REMARK  5 active torsions:
REMARK  status: ('A' for Active; 'I' for Inactive)
REMARK    1  A    between atoms: C_2  and  S_1 
REMARK    2  A    between atoms: N_5  and  S_1 
REMARK    3  A    between atoms: O_18  and  C_4 
REMARK    4  A    between atoms: C_13  and  N_5 
REMARK    5  A    between atoms: C_11  and  C_13 
ROOT
ATOM      1  C   UNL d   1     -46.248  12.730  22.904  0.00  0.00     0.128 A 
ATOM      2  C   UNL d   1     -46.503  12.034  23.265  0.00  0.00     0.026 A 
ATOM      3  C   UNL d   1     -45.478  12.784  22.614  0.00  0.00     0.106 A 
ATOM      4  C   UNL d   1     -45.988  11.391  23.337  0.00  0.00     0.059 A 
ATOM      5  C   UNL d   1     -44.962  12.142  22.686  0.00  0.00     0.026 A 
ATOM      6  C   UNL d   1     -45.217  11.446  23.047  0.00  0.00     0.013 A 
ATOM      7 CL   UNL d   1     -46.243  10.695  23.698  0.00  0.00    -0.082 Cl
ATOM      8  C   UNL d   1     -44.702  10.803  23.118  0.00  0.00     0.001 C 
ENDROOT
BRANCH   1   9
ATOM      9  S   UNL d   1     -46.764  13.372  22.832  0.00  0.00     0.287 S 
ATOM     10  O   UNL d   1     -47.078  13.044  22.141  0.00  0.00    -0.198 OA
ATOM     11  O   UNL d   1     -46.451  13.701  23.523  0.00  0.00    -0.198 OA
BRANCH   9  12
ATOM     12  N   UNL d   1     -47.280  14.015  22.761  0.00  0.00    -0.155 NA
BRANCH  12  13
ATOM     13  C   UNL d   1     -48.090  13.909  22.876  0.00  0.00     0.137 C 
BRANCH  13  14
ATOM     14  C   UNL d   1     -48.603  14.555  22.823  0.00  0.00     0.120 A 
ATOM     15  O   UNL d   1     -48.435  15.284  22.471  0.00  0.00    -0.304 OA
ATOM     16  C   UNL d   1     -49.100  15.762  22.544  0.00  0.00     0.123 A 
ATOM     17  C   UNL d   1     -49.683  15.331  22.942  0.00  0.00     0.029 A 
ATOM     18  C   UNL d   1     -49.374  14.590  23.112  0.00  0.00     0.028 A 
ENDBRANCH  13  14
ENDBRANCH  12  13
ENDBRANCH   9  12
ENDBRANCH   1   9
BRANCH   3  19
ATOM     19  O   UNL d   1     -45.220  13.483  22.251  0.00  0.00    -0.327 OA
ATOM     20  C   UNL d   1     -44.479  13.511  21.889  0.00  0.00     0.181 C 
ENDBRANCH   3  19
TORSDOF 5
ENDMDL
MODEL 6
REMARK VINA RESULT:      -4.8      7.498      8.308
REMARK  5 active torsions:
REMARK  status: ('A' for Active; 'I' for Inactive)
REMARK    1  A    between atoms: C_2  and  S_1 
REMARK    2  A    between atoms: N_5  and  S_1 
REMARK    3  A    between atoms: O_18  and  C_4 
REMARK    4  A    between atoms: C_13  and  N_5 
REMARK    5  A    between atoms: C_11  and  C_13 
ROOT
ATOM      1  C   UNL d   1     -39.318  14.578  20.331  0.00  0.00     0.128 A 
ATOM      2  C   UNL d   1     -38.817  13.929  20.236  0.00  0.00     0.026 A 
ATOM      3  C   UNL d   1     -39.443  14.894  21.082  0.00  0.00     0.106 A 
ATOM      4  C   UNL d   1     -38.441  13.597  20.893  0.00  0.00     0.059 A 
ATOM      5  C   UNL d   1     -39.067  14.562  21.739  0.00  0.00     0.026 A 
ATOM      6  C   UNL d   1     -38.566  13.914  21.645  0.00  0.00     0.013 A 
ATOM      7 CL   UNL d   1     -37.940  12.949  20.798  0.00  0.00    -0.082 Cl
ATOM      8  C   UNL d   1     -38.190  13.582  22.302  0.00  0.00     0.001 C 
ENDROOT
BRANCH   1   9
ATOM      9  S   UNL d   1     -39.695  14.910  19.674  0.00  0.00     0.287 S 
ATOM     10  O   UNL d   1     -40.328  14.388  19.773  0.00  0.00    -0.198 OA
ATOM     11  O   UNL d   1     -39.062  15.431  19.575  0.00  0.00    -0.198 OA
BRANCH   9  12
ATOM     12  N   UNL d   1     -40.071  15.242  19.016  0.00  0.00    -0.155 NA
BRANCH  12  13
ATOM     13  C   UNL d   1     -40.049  14.855  18.288  0.00  0.00     0.137 C 
BRANCH  13  14
ATOM     14  C   UNL d   1     -40.416  15.192  17.629  0.00  0.00     0.120 A 
ATOM     15  O   UNL d   1     -41.190  15.048  17.375  0.00  0.00    -0.304 OA
ATOM     16  C   UNL d   1     -41.325  15.497  16.700  0.00  0.00     0.123 A 
ATOM     17  C   UNL d   1     -40.636  15.922  16.533  0.00  0.00     0.029 A 
ATOM     18  C   UNL d   1     -40.080  15.732  17.105  0.00  0.00     0.028 A 
ENDBRANCH  13  14
ENDBRANCH  12  13
ENDBRANCH   9  12
ENDBRANCH   1   9
BRANCH   3  19
ATOM     19  O   UNL d   1     -39.946  15.545  21.180  0.00  0.00    -0.327 OA
ATOM     20  C   UNL d   1     -40.001  15.919  21.913  0.00  0.00     0.181 C 
ENDBRANCH   3  19
TORSDOF 5
ENDMDL
MODEL 7
REMARK VINA RESULT:      -4.8      7.459      8.133
REMARK  5 active torsions:
REMARK  status: ('A' for Active; 'I' for Inactive)
REMARK    1  A    between atoms: C_2  and  S_1 
REMARK    2  A    between atoms: N_5  and  S_1 
REMARK    3  A    between atoms: O_18  and  C_4 
REMARK    4  A    between atoms: C_13  and  N_5 
REMARK    5  A    between atoms: C_11  and  C_13 
ROOT
ATOM      1  C   UNL d   1     -39.728  14.524  18.963  0.00  0.00     0.128 A 
ATOM      2  C   UNL d   1     -40.276  15.135  18.875  0.00  0.00     0.026 A 
ATOM      3  C   UNL d   1     -39.489  14.088  18.304  0.00  0.00     0.106 A 
ATOM      4  C   UNL d   1     -40.584  15.309  18.128  0.00  0.00     0.059 A 
ATOM      5  C   UNL d   1     -39.798  14.262  17.558  0.00  0.00     0.026 A 
ATOM      6  C   UNL d   1     -40.346  14.873  17.470  0.00  0.00     0.013 A 
ATOM      7 CL   UNL d   1     -41.132  15.920  18.040  0.00  0.00    -0.082 Cl
ATOM      8  C   UNL d   1     -40.654  15.048  16.723  0.00  0.00     0.001 C 
ENDROOT
BRANCH   1   9
ATOM      9  S   UNL d   1     -39.419  14.349  19.710  0.00  0.00     0.287 S 
ATOM     10  O   UNL d   1     -38.778  14.850  19.562  0.00  0.00    -0.198 OA
ATOM     11  O   UNL d   1     -40.060  13.849  19.857  0.00  0.00    -0.198 OA
BRANCH   9  12
ATOM     12  N   UNL d   1     -39.111  14.174  20.457  0.00  0.00    -0.155 NA
BRANCH  12  13
ATOM     13  C   UNL d   1     -39.548  14.345  21.135  0.00  0.00     0.137 C 
BRANCH  13  14
ATOM     14  C   UNL d   1     -39.208  14.247  21.882  0.00  0.00     0.120 A 
ATOM     15  O   UNL d   1     -38.936  14.851  22.378  0.00  0.00    -0.304 OA
ATOM     16  C   UNL d   1     -38.642  14.506  23.063  0.00  0.00     0.123 A 
ATOM     17  C   UNL d   1     -38.730  13.687  22.996  0.00  0.00     0.029 A 
ATOM     18  C   UNL d   1     -39.078  13.532  22.269  0.00  0.00     0.028 A 
ENDBRANCH  13  14
ENDBRANCH  12  13
ENDBRANCH   9  12
ENDBRANCH   1   9
BRANCH   3  19
ATOM     19  O   UNL d   1     -38.940  13.474  18.391  0.00  0.00    -0.327 OA
ATOM     20  C   UNL d   1     -38.729  13.014  17.740  0.00  0.00     0.181 C 
ENDBRANCH   3  19
TORSDOF 5
ENDMDL
MODEL 8
REMARK VINA RESULT:      -4.7      1.959      4.472
REMARK  5 active torsions:
REMARK  status: ('A' for Active; 'I' for Inactive)
REMARK    1  A    between atoms: C_2  and  S_1 
REMARK    2  A    between atoms: N_5  and  S_1 
REMARK    3  A    between atoms: O_18  and  C_4 
REMARK    4  A    between atoms: C_13  and  N_5 
REMARK    5  A    between atoms: C_11  and  C_13 
ROOT
ATOM      1  C   UNL d   1     -46.900  12.890  22.772  0.00  0.00     0.128 A 
ATOM      2  C   UNL d   1     -46.445  12.223  22.938  0.00  0.00     0.026 A 
ATOM      3  C   UNL d   1     -46.553  13.544  22.408  0.00  0.00     0.106 A 
ATOM      4  C   UNL d   1     -45.642  12.209  22.741  0.00  0.00     0.059 A 
ATOM      5  C   UNL d   1     -45.750  13.530  22.211  0.00  0.00     0.026 A 
ATOM      6  C   UNL d   1     -45.295  12.863  22.377  0.00  0.00     0.013 A 
ATOM      7 CL   UNL d   1     -45.187  11.541  22.908  0.00  0.00    -0.082 Cl
ATOM      8  C   UNL d   1     -44.492  12.849  22.180  0.00  0.00     0.001 C 
ENDROOT
BRANCH   1   9
ATOM      9  S   UNL d   1     -47.703  12.904  22.969  0.00  0.00     0.287 S 
ATOM     10  O   UNL d   1     -47.518  13.248  23.698  0.00  0.00    -0.198 OA
ATOM     11  O   UNL d   1     -47.888  12.560  22.241  0.00  0.00    -0.198 OA
BRANCH   9  12
ATOM     12  N   UNL d   1     -48.506  12.917  23.166  0.00  0.00    -0.155 NA
BRANCH  12  13
ATOM     13  C   UNL d   1     -48.952  12.224  23.133  0.00  0.00     0.137 C 
BRANCH  13  14
ATOM     14  C   UNL d   1     -49.754  12.237  23.331  0.00  0.00     0.120 A 
ATOM     15  O   UNL d   1     -50.241  12.905  23.350  0.00  0.00    -0.304 OA
ATOM     16  C   UNL d   1     -50.994  12.666  23.575  0.00  0.00     0.123 A 
ATOM     17  C   UNL d   1     -50.977  11.848  23.698  0.00  0.00     0.029 A 
ATOM     18  C   UNL d   1     -50.214  11.588  23.547  0.00  0.00     0.028 A 
ENDBRANCH  13  14
ENDBRANCH  12  13
ENDBRANCH   9  12
ENDBRANCH   1   9
BRANCH   3  19
ATOM     19  O   UNL d   1     -47.008  14.215  22.240  0.00  0.00    -0.327 OA
ATOM     20  C   UNL d   1     -46.639  14.933  22.072  0.00  0.00     0.181 C 
ENDBRANCH   3  19
TORSDOF 5
ENDMDL
