MODEL 1
REMARK VINA RESULT:      16.7      0.000      0.000
REMARK  4 active torsions:
REMARK  status: ('A' for Active; 'I' for Inactive)
REMARK    1  A    between atoms: N_10  and  C_5 
REMARK    2  A    between atoms: C_12  and  N_6 
REMARK    3  A    between atoms: C_19  and  N_11 
REMARK    4  A    between atoms: C_20  and  C_12 
ROOT
ATOM      1  C   UNL d   1      27.875  17.583 -23.261  0.00  0.00     0.191 A 
ATOM      2  C   UNL d   1      28.140  16.982 -23.772  0.00  0.00     0.173 A 
ATOM      3  N   UNL d   1      28.433  18.192 -23.300  0.00  0.00    -0.042 NA
ATOM      4  N   UNL d   1      27.148  17.483 -22.828  0.00  0.00    -0.240 N 
ATOM      5  C   UNL d   1      29.055  17.967 -23.843  0.00  0.00     0.722 A 
ATOM      6  N   UNL d   1      28.836  17.225 -24.106  0.00  0.00    -0.133 N 
ATOM      7  N   UNL d   1      26.985  16.226 -23.414  0.00  0.00    -0.223 N 
ATOM      8  C   UNL d   1      26.701  16.824 -22.892  0.00  0.00     0.343 A 
ATOM      9  C   UNL d   1      27.681  16.307 -23.838  0.00  0.00     0.288 A 
ATOM     10  O   UNL d   1      25.989  16.726 -22.467  0.00  0.00    -0.245 OA
ATOM     11  O   UNL d   1      27.931  15.698 -24.342  0.00  0.00    -0.265 OA
ATOM     12  C   UNL d   1      26.896  18.077 -22.330  0.00  0.00     0.105 C 
ATOM     13  C   UNL d   1      26.549  15.509 -23.518  0.00  0.00     0.107 C 
ENDROOT
BRANCH   5  14
ATOM     14  N   UNL d   1      29.750  18.386 -24.078  0.00  0.00    -0.136 N 
ATOM     15  C   UNL d   1      30.344  18.541 -23.509  0.00  0.00     0.117 A 
ATOM     16  C   UNL d   1      31.035  18.957 -23.741  0.00  0.00     0.100 A 
ATOM     17  N   UNL d   1      31.128  19.216 -24.538  0.00  0.00    -0.301 N 
ATOM     18  C   UNL d   1      30.523  19.052 -25.096  0.00  0.00     0.100 A 
ATOM     19  C   UNL d   1      29.832  18.638 -24.872  0.00  0.00     0.117 A 
BRANCH  17  20
ATOM     20  C   UNL d   1      31.836  19.621 -24.692  0.00  0.00     0.064 A 
ATOM     21  C   UNL d   1      32.518  19.200 -24.911  0.00  0.00     0.018 A 
ATOM     22  C   UNL d   1      33.217  19.610 -25.063  0.00  0.00     0.002 A 
ATOM     23  C   UNL d   1      33.240  20.438 -24.996  0.00  0.00     0.000 A 
ATOM     24  C   UNL d   1      32.555  20.861 -24.776  0.00  0.00     0.002 A 
ATOM     25  C   UNL d   1      31.855  20.451 -24.624  0.00  0.00     0.018 A 
ENDBRANCH  17  20
ENDBRANCH   5  14
BRANCH   6  26
ATOM     26  C   UNL d   1      29.104  16.649 -24.605  0.00  0.00     0.098 C 
BRANCH  26  27
ATOM     27  C   UNL d   1      29.777  16.250 -24.428  0.00  0.00     0.018 A 
ATOM     28  C   UNL d   1      29.982  16.149 -23.675  0.00  0.00     0.002 A 
ATOM     29  C   UNL d   1      30.654  15.751 -23.492  0.00  0.00     0.000 A 
ATOM     30  C   UNL d   1      31.028  15.546 -22.802  0.00  0.00     0.000 C 
ATOM     31  C   UNL d   1      31.121  15.453 -24.073  0.00  0.00     0.000 A 
ATOM     32  C   UNL d   1      30.900  15.563 -24.848  0.00  0.00     0.000 A 
ATOM     33  C   UNL d   1      30.237  15.956 -25.023  0.00  0.00     0.002 A 
ENDBRANCH  26  27
ENDBRANCH   6  26
TORSDOF 4
ENDMDL
MODEL 2
REMARK VINA RESULT:      16.7      4.935      6.854
REMARK  4 active torsions:
REMARK  status: ('A' for Active; 'I' for Inactive)
REMARK    1  A    between atoms: N_10  and  C_5 
REMARK    2  A    between atoms: C_12  and  N_6 
REMARK    3  A    between atoms: C_19  and  N_11 
REMARK    4  A    between atoms: C_20  and  C_12 
ROOT
ATOM      1  C   UNL d   1      32.396  22.606 -22.903  0.00  0.00     0.191 A 
ATOM      2  C   UNL d   1      32.739  21.852 -22.821  0.00  0.00     0.173 A 
ATOM      3  N   UNL d   1      32.339  22.926 -22.143  0.00  0.00    -0.042 NA
ATOM      4  N   UNL d   1      32.182  22.893 -23.676  0.00  0.00    -0.240 N 
ATOM      5  C   UNL d   1      32.652  22.364 -21.579  0.00  0.00     0.722 A 
ATOM      6  N   UNL d   1      32.883  21.726 -22.034  0.00  0.00    -0.133 N 
ATOM      7  N   UNL d   1      32.648  21.701 -24.236  0.00  0.00    -0.223 N 
ATOM      8  C   UNL d   1      32.300  22.461 -24.339  0.00  0.00     0.343 A 
ATOM      9  C   UNL d   1      32.859  21.410 -23.500  0.00  0.00     0.288 A 
ATOM     10  O   UNL d   1      32.090  22.743 -25.096  0.00  0.00    -0.245 OA
ATOM     11  O   UNL d   1      33.200  20.657 -23.435  0.00  0.00    -0.265 OA
ATOM     12  C   UNL d   1      31.847  23.632 -23.748  0.00  0.00     0.105 C 
ATOM     13  C   UNL d   1      32.793  21.204 -24.905  0.00  0.00     0.107 C 
ENDROOT
BRANCH   5  14
ATOM     14  N   UNL d   1      32.722  22.418 -20.738  0.00  0.00    -0.136 N 
ATOM     15  C   UNL d   1      32.404  23.087 -20.346  0.00  0.00     0.117 A 
ATOM     16  C   UNL d   1      32.473  23.142 -19.511  0.00  0.00     0.100 A 
ATOM     17  N   UNL d   1      32.857  22.532 -19.075  0.00  0.00    -0.301 N 
ATOM     18  C   UNL d   1      33.169  21.869 -19.483  0.00  0.00     0.100 A 
ATOM     19  C   UNL d   1      33.104  21.806 -20.314  0.00  0.00     0.117 A 
BRANCH  17  20
ATOM     20  C   UNL d   1      32.886  22.657 -18.254  0.00  0.00     0.064 A 
ATOM     21  C   UNL d   1      32.608  23.368 -17.931  0.00  0.00     0.018 A 
ATOM     22  C   UNL d   1      32.641  23.483 -17.114  0.00  0.00     0.002 A 
ATOM     23  C   UNL d   1      32.950  22.892 -16.620  0.00  0.00     0.000 A 
ATOM     24  C   UNL d   1      33.230  22.177 -16.945  0.00  0.00     0.002 A 
ATOM     25  C   UNL d   1      33.197  22.061 -17.762  0.00  0.00     0.018 A 
ENDBRANCH  17  20
ENDBRANCH   5  14
BRANCH   6  26
ATOM     26  C   UNL d   1      33.217  20.996 -21.941  0.00  0.00     0.098 C 
BRANCH  26  27
ATOM     27  C   UNL d   1      32.748  20.357 -21.821  0.00  0.00     0.018 A 
ATOM     28  C   UNL d   1      33.075  19.660 -21.657  0.00  0.00     0.002 A 
ATOM     29  C   UNL d   1      32.612  19.017 -21.535  0.00  0.00     0.000 A 
ATOM     30  C   UNL d   1      32.749  18.237 -21.361  0.00  0.00     0.000 C 
ATOM     31  C   UNL d   1      31.812  19.078 -21.580  0.00  0.00     0.000 A 
ATOM     32  C   UNL d   1      31.484  19.803 -21.750  0.00  0.00     0.000 A 
ATOM     33  C   UNL d   1      31.946  20.433 -21.869  0.00  0.00     0.002 A 
ENDBRANCH  26  27
ENDBRANCH   6  26
TORSDOF 4
ENDMDL
