MODEL 1
REMARK VINA RESULT:      37.6      0.000      0.000
REMARK  3 active torsions:
REMARK  status: ('A' for Active; 'I' for Inactive)
REMARK    1  A    between atoms: C_10  and  C_5 
REMARK    2  A    between atoms: S_9  and  C_10 
REMARK    3  A    between atoms: C_11  and  S_9 
ROOT
ATOM      1  C   UNL d   1     -51.803  23.938  33.386  0.00  0.00     0.179 A 
ATOM      2  N   UNL d   1     -52.384  24.518  33.340  0.00  0.00    -0.283 N 
ATOM      3  N   UNL d   1     -51.079  24.313  33.382  0.00  0.00    -0.220 NA
ATOM      4  S   UNL d   1     -52.178  23.215  33.419  0.00  0.00    -0.048 SA
ATOM      5  C   UNL d   1     -51.202  25.122  33.332  0.00  0.00     0.107 A 
ATOM      6  C   UNL d   1     -52.015  25.247  33.307  0.00  0.00     0.102 A 
ATOM      7  C   UNL d   1     -53.113  24.149  33.344  0.00  0.00     0.073 A 
ATOM      8  C   UNL d   1     -52.973  23.351  33.393  0.00  0.00     0.056 A 
ATOM      9  C   UNL d   1     -53.855  24.528  33.306  0.00  0.00     0.020 C 
ENDROOT
BRANCH   5  10
ATOM     10  C   UNL d   1     -50.601  25.700  33.313  0.00  0.00     0.056 C 
BRANCH  10  11
ATOM     11  S   UNL d   1     -50.808  26.485  33.454  0.00  0.00    -0.085 SA
BRANCH  11  12
ATOM     12  C   UNL d   1     -50.276  26.981  33.837  0.00  0.00     0.030 A 
ATOM     13  C   UNL d   1     -50.303  27.805  33.720  0.00  0.00     0.007 A 
ATOM     14  C   UNL d   1     -49.773  28.299  34.101  0.00  0.00     0.012 A 
ATOM     15  C   UNL d   1     -49.207  27.977  34.607  0.00  0.00     0.058 A 
ATOM     16  C   UNL d   1     -49.168  27.160  34.734  0.00  0.00     0.012 A 
ATOM     17 CL   UNL d   1     -48.674  28.455  34.993  0.00  0.00    -0.082 Cl
ATOM     18  C   UNL d   1     -49.711  26.654  34.343  0.00  0.00     0.007 A 
ENDBRANCH  11  12
ENDBRANCH  10  11
ENDBRANCH   5  10
TORSDOF 3
ENDMDL
