MODEL 1
REMARK VINA RESULT:      67.2      0.000      0.000
REMARK  6 active torsions:
REMARK  status: ('A' for Active; 'I' for Inactive)
REMARK    1  A    between atoms: C_9  and  C_2 
REMARK    2  A    between atoms: N_12  and  C_6 
REMARK    3  A    between atoms: N_11  and  C_20 
REMARK    4  A    between atoms: C_19  and  N_12 
REMARK    5  A    between atoms: O_21  and  C_16 
REMARK    6  A    between atoms: C_20  and  C_19 
ROOT
ATOM      1  C   UNL d   1      59.904  49.638  52.020  0.00  0.00     0.060 A 
ATOM      2  C   UNL d   1      59.097  49.664  51.950  0.00  0.00     0.011 A 
ATOM      3  C   UNL d   1      58.765  49.705  52.729  0.00  0.00     0.037 A 
ATOM      4  C   UNL d   1      60.101  49.662  52.844  0.00  0.00     0.116 A 
ATOM      5  S   UNL d   1      59.386  49.704  53.278  0.00  0.00    -0.067 SA
ATOM      6  C   UNL d   1      60.506  49.596  51.469  0.00  0.00     0.166 A 
ATOM      7  N   UNL d   1      60.892  49.644  53.094  0.00  0.00    -0.217 NA
ATOM      8  N   UNL d   1      61.276  49.578  51.716  0.00  0.00    -0.205 NA
ATOM      9  C   UNL d   1      61.480  49.602  52.547  0.00  0.00     0.201 A 
ENDROOT
BRANCH   6  10
ATOM     10  N   UNL d   1      60.342  49.571  50.655  0.00  0.00    -0.224 NA
BRANCH  10  11
ATOM     11  C   UNL d   1      60.812  49.112  50.159  0.00  0.00     0.120 C 
BRANCH  11  12
ATOM     12  C   UNL d   1      60.596  48.324  49.983  0.00  0.00     0.101 C 
BRANCH  12  13
ATOM     13  N   UNL d   1      61.188  47.750  49.863  0.00  0.00    -0.298 N 
ATOM     14  C   UNL d   1      61.050  47.001  50.083  0.00  0.00     0.107 A 
ATOM     15  C   UNL d   1      61.651  46.437  49.958  0.00  0.00     0.142 A 
ATOM     16  O   UNL d   1      62.343  46.659  49.624  0.00  0.00    -0.300 OA
ATOM     17  C   UNL d   1      62.478  47.404  49.406  0.00  0.00     0.142 A 
ATOM     18  C   UNL d   1      61.906  47.977  49.517  0.00  0.00     0.107 A 
ENDBRANCH  12  13
ENDBRANCH  11  12
ENDBRANCH  10  11
ENDBRANCH   6  10
BRANCH   2  19
ATOM     19  C   UNL d   1      58.718  49.651  51.245  0.00  0.00     0.001 A 
ATOM     20  C   UNL d   1      59.133  49.650  50.536  0.00  0.00     0.002 A 
ATOM     21  C   UNL d   1      58.746  49.636  49.812  0.00  0.00     0.024 A 
ATOM     22  C   UNL d   1      57.922  49.623  49.775  0.00  0.00     0.094 A 
ATOM     23  C   UNL d   1      57.505  49.624  50.510  0.00  0.00     0.024 A 
ATOM     24  C   UNL d   1      57.892  49.638  51.231  0.00  0.00     0.002 A 
BRANCH  22  25
ATOM     25  O   UNL d   1      57.537  49.611  49.196  0.00  0.00    -0.328 OA
ATOM     26  C   UNL d   1      56.731  49.359  49.202  0.00  0.00     0.181 C 
ENDBRANCH  22  25
ENDBRANCH   2  19
TORSDOF 6
ENDMDL
