MODEL 1
REMARK VINA RESULT:      -5.0      0.000      0.000
REMARK  4 active torsions:
REMARK  status: ('A' for Active; 'I' for Inactive)
REMARK    1  A    between atoms: N_2  and  C_1 
REMARK    2  A    between atoms: C_4  and  C_1 
REMARK    3  A    between atoms: C_6  and  N_2 
REMARK    4  A    between atoms: O_12  and  C_7 
ROOT
ATOM      1  N   UNL d   1     -41.565-123.197 -52.330  0.00  0.00    -0.235 NA
ENDROOT
BRANCH   1   2
ATOM      2  C   UNL d   1     -41.410-122.681 -51.704  0.00  0.00     0.136 C 
ATOM      3  S   UNL d   1     -41.125-121.916 -51.848  0.00  0.00    -0.057 SA
BRANCH   2   4
ATOM      4  C   UNL d   1     -41.541-122.930 -50.921  0.00  0.00     0.031 A 
ATOM      5  C   UNL d   1     -42.096-122.528 -50.444  0.00  0.00     0.023 A 
ATOM      6  C   UNL d   1     -42.227-122.772 -49.667  0.00  0.00     0.099 A 
ATOM      7  N   UNL d   1     -41.805-123.419 -49.367  0.00  0.00    -0.242 NA
ATOM      8  C   UNL d   1     -41.255-123.817 -49.839  0.00  0.00     0.099 A 
ATOM      9  C   UNL d   1     -41.123-123.573 -50.616  0.00  0.00     0.023 A 
ENDBRANCH   2   4
ENDBRANCH   1   2
BRANCH   1  10
ATOM     10  C   UNL d   1     -41.572-122.907 -53.102  0.00  0.00     0.082 A 
ATOM     11  C   UNL d   1     -42.037-122.247 -53.279  0.00  0.00     0.021 A 
ATOM     12  C   UNL d   1     -42.049-121.950 -54.053  0.00  0.00     0.026 A 
ATOM     13  C   UNL d   1     -41.598-122.312 -54.641  0.00  0.00     0.094 A 
ATOM     14  C   UNL d   1     -41.133-122.976 -54.455  0.00  0.00     0.026 A 
ATOM     15  C   UNL d   1     -41.123-123.269 -53.686  0.00  0.00     0.021 A 
BRANCH  13  16
ATOM     16  O   UNL d   1     -41.611-122.016 -55.410  0.00  0.00    -0.328 OA
ATOM     17  C   UNL d   1     -42.333-121.902 -55.798  0.00  0.00     0.181 C 
ENDBRANCH  13  16
ENDBRANCH   1  10
TORSDOF 4
ENDMDL
MODEL 2
REMARK VINA RESULT:      -5.0      1.873      4.115
REMARK  4 active torsions:
REMARK  status: ('A' for Active; 'I' for Inactive)
REMARK    1  A    between atoms: N_2  and  C_1 
REMARK    2  A    between atoms: C_4  and  C_1 
REMARK    3  A    between atoms: C_6  and  N_2 
REMARK    4  A    between atoms: O_12  and  C_7 
ROOT
ATOM      1  N   UNL d   1     -41.247-122.256 -52.907  0.00  0.00    -0.235 NA
ENDROOT
BRANCH   1   2
ATOM      2  C   UNL d   1     -41.491-122.755 -53.518  0.00  0.00     0.136 C 
ATOM      3  S   UNL d   1     -41.486-123.579 -53.418  0.00  0.00    -0.057 SA
BRANCH   2   4
ATOM      4  C   UNL d   1     -41.745-122.431 -54.242  0.00  0.00     0.031 A 
ATOM      5  C   UNL d   1     -42.391-121.903 -54.256  0.00  0.00     0.023 A 
ATOM      6  C   UNL d   1     -42.645-121.580 -54.971  0.00  0.00     0.099 A 
ATOM      7  N   UNL d   1     -42.252-121.784 -55.672  0.00  0.00    -0.242 NA
ATOM      8  C   UNL d   1     -41.612-122.307 -55.658  0.00  0.00     0.099 A 
ATOM      9  C   UNL d   1     -41.358-122.631 -54.943  0.00  0.00     0.023 A 
ENDBRANCH   2   4
ENDBRANCH   1   2
BRANCH   1  10
ATOM     10  C   UNL d   1     -41.304-122.514 -52.126  0.00  0.00     0.082 A 
ATOM     11  C   UNL d   1     -41.543-121.980 -51.542  0.00  0.00     0.021 A 
ATOM     12  C   UNL d   1     -41.603-122.233 -50.756  0.00  0.00     0.026 A 
ATOM     13  C   UNL d   1     -41.423-123.013 -50.558  0.00  0.00     0.094 A 
ATOM     14  C   UNL d   1     -41.183-123.544 -51.150  0.00  0.00     0.026 A 
ATOM     15  C   UNL d   1     -41.125-123.291 -51.931  0.00  0.00     0.021 A 
BRANCH  13  16
ATOM     16  O   UNL d   1     -41.483-123.263 -49.774  0.00  0.00    -0.328 OA
ATOM     17  C   UNL d   1     -42.226-123.362 -49.427  0.00  0.00     0.181 C 
ENDBRANCH  13  16
ENDBRANCH   1  10
TORSDOF 4
ENDMDL
MODEL 3
REMARK VINA RESULT:      -4.8      1.421      2.172
REMARK  4 active torsions:
REMARK  status: ('A' for Active; 'I' for Inactive)
REMARK    1  A    between atoms: N_2  and  C_1 
REMARK    2  A    between atoms: C_4  and  C_1 
REMARK    3  A    between atoms: C_6  and  N_2 
REMARK    4  A    between atoms: O_12  and  C_7 
ROOT
ATOM      1  N   UNL d   1     -41.125-123.016 -50.154  0.00  0.00    -0.235 NA
ENDROOT
BRANCH   1   2
ATOM      2  C   UNL d   1     -41.801-123.334 -49.801  0.00  0.00     0.136 C 
ATOM      3  S   UNL d   1     -42.406-123.659 -50.265  0.00  0.00    -0.057 SA
BRANCH   2   4
ATOM      4  C   UNL d   1     -41.876-123.327 -48.972  0.00  0.00     0.031 A 
ATOM      5  C   UNL d   1     -42.595-123.086 -48.622  0.00  0.00     0.023 A 
ATOM      6  C   UNL d   1     -42.673-123.079 -47.801  0.00  0.00     0.099 A 
ATOM      7  N   UNL d   1     -42.033-123.312 -47.329  0.00  0.00    -0.242 NA
ATOM      8  C   UNL d   1     -41.321-123.551 -47.676  0.00  0.00     0.099 A 
ATOM      9  C   UNL d   1     -41.242-123.559 -48.497  0.00  0.00     0.023 A 
ENDBRANCH   2   4
ENDBRANCH   1   2
BRANCH   1  10
ATOM     10  C   UNL d   1     -41.126-122.860 -50.964  0.00  0.00     0.082 A 
ATOM     11  C   UNL d   1     -41.132-122.075 -51.223  0.00  0.00     0.021 A 
ATOM     12  C   UNL d   1     -41.134-121.911 -52.035  0.00  0.00     0.026 A 
ATOM     13  C   UNL d   1     -41.130-122.530 -52.581  0.00  0.00     0.094 A 
ATOM     14  C   UNL d   1     -41.124-123.316 -52.313  0.00  0.00     0.026 A 
ATOM     15  C   UNL d   1     -41.123-123.477 -51.506  0.00  0.00     0.021 A 
BRANCH  13  16
ATOM     16  O   UNL d   1     -41.131-122.365 -53.389  0.00  0.00    -0.328 OA
ATOM     17  C   UNL d   1     -41.399-122.934 -53.927  0.00  0.00     0.181 C 
ENDBRANCH  13  16
ENDBRANCH   1  10
TORSDOF 4
ENDMDL
MODEL 4
REMARK VINA RESULT:      -4.8      2.225      4.490
REMARK  4 active torsions:
REMARK  status: ('A' for Active; 'I' for Inactive)
REMARK    1  A    between atoms: N_2  and  C_1 
REMARK    2  A    between atoms: C_4  and  C_1 
REMARK    3  A    between atoms: C_6  and  N_2 
REMARK    4  A    between atoms: O_12  and  C_7 
ROOT
ATOM      1  N   UNL d   1     -42.022-123.386 -50.813  0.00  0.00    -0.235 NA
ENDROOT
BRANCH   1   2
ATOM      2  C   UNL d   1     -41.606-122.816 -51.242  0.00  0.00     0.136 C 
ATOM      3  S   UNL d   1     -41.342-122.121 -50.875  0.00  0.00    -0.057 SA
BRANCH   2   4
ATOM      4  C   UNL d   1     -41.450-122.939 -52.050  0.00  0.00     0.031 A 
ATOM      5  C   UNL d   1     -41.468-122.293 -52.579  0.00  0.00     0.023 A 
ATOM      6  C   UNL d   1     -41.313-122.412 -53.381  0.00  0.00     0.099 A 
ATOM      7  N   UNL d   1     -41.141-123.175 -53.654  0.00  0.00    -0.242 NA
ATOM      8  C   UNL d   1     -41.123-123.814 -53.130  0.00  0.00     0.099 A 
ATOM      9  C   UNL d   1     -41.277-123.697 -52.327  0.00  0.00     0.023 A 
ENDBRANCH   2   4
ENDBRANCH   1   2
BRANCH   1  10
ATOM     10  C   UNL d   1     -42.143-123.277 -50.005  0.00  0.00     0.082 A 
ATOM     11  C   UNL d   1     -42.864-122.966 -49.744  0.00  0.00     0.021 A 
ATOM     12  C   UNL d   1     -42.992-122.854 -48.933  0.00  0.00     0.026 A 
ATOM     13  C   UNL d   1     -42.403-123.050 -48.391  0.00  0.00     0.094 A 
ATOM     14  C   UNL d   1     -41.681-123.362 -48.660  0.00  0.00     0.026 A 
ATOM     15  C   UNL d   1     -41.555-123.473 -49.466  0.00  0.00     0.021 A 
BRANCH  13  16
ATOM     16  O   UNL d   1     -42.532-122.937 -47.584  0.00  0.00    -0.328 OA
ATOM     17  C   UNL d   1     -41.923-123.080 -47.043  0.00  0.00     0.181 C 
ENDBRANCH  13  16
ENDBRANCH   1  10
TORSDOF 4
ENDMDL
