MODEL 1
REMARK VINA RESULT:      -6.7      0.000      0.000
REMARK  7 active torsions:
REMARK  status: ('A' for Active; 'I' for Inactive)
REMARK    1  A    between atoms: S_3  and  N_12 
REMARK    2  A    between atoms: C_16  and  S_3 
REMARK    3  A    between atoms: C_17  and  C_7 
REMARK    4  A    between atoms: O_19  and  C_8 
REMARK    5  A    between atoms: O_20  and  C_11 
REMARK    6  A    between atoms: N_12  and  C_18 
REMARK    7  A    between atoms: C_18  and  C_17 
ROOT
ATOM      1  N   UNL d   1     -48.880  12.002  22.691  0.00  0.00    -0.206 NA
ATOM      2  C   UNL d   1     -48.200  13.254  22.786  0.00  0.00     0.042 A 
ATOM      3  C   UNL d   1     -48.856  12.812  22.550  0.00  0.00     0.109 A 
ATOM      4  C   UNL d   1     -47.565  12.888  23.165  0.00  0.00     0.008 A 
ATOM      5  C   UNL d   1     -48.245  11.626  23.072  0.00  0.00     0.279 A 
ATOM      6  C   UNL d   1     -47.589  12.068  23.308  0.00  0.00     0.060 A 
ATOM      7  C   UNL d   1     -48.176  14.065  22.644  0.00  0.00     0.096 A 
ATOM      8  C   UNL d   1     -49.487  13.182  22.172  0.00  0.00     0.112 A 
ATOM      9  O   UNL d   1     -48.268  10.815  23.214  0.00  0.00    -0.265 OA
ATOM     10  C   UNL d   1     -48.808  14.434  22.266  0.00  0.00     0.026 A 
ATOM     11  C   UNL d   1     -49.463  13.992  22.030  0.00  0.00     0.028 A 
ENDROOT
BRANCH   6  12
ATOM     12  C   UNL d   1     -46.956  11.695  23.688  0.00  0.00     0.026 C 
BRANCH  12  13
ATOM     13  C   UNL d   1     -46.253  11.561  23.280  0.00  0.00     0.112 C 
BRANCH  13  14
ATOM     14  N   UNL d   1     -45.543  11.505  23.694  0.00  0.00    -0.157 NA
BRANCH  14  15
ATOM     15  S   UNL d   1     -44.890  11.150  23.331  0.00  0.00     0.286 S 
ATOM     16  O   UNL d   1     -44.220  10.976  22.883  0.00  0.00    -0.198 OA
ATOM     17  O   UNL d   1     -44.905  11.919  23.033  0.00  0.00    -0.198 OA
BRANCH  15  18
ATOM     18  C   UNL d   1     -44.892  10.382  23.642  0.00  0.00     0.117 C 
ATOM     19  C   UNL d   1     -44.191   9.953  23.689  0.00  0.00     0.014 C 
ENDBRANCH  15  18
ENDBRANCH  14  15
ENDBRANCH  13  14
ENDBRANCH  12  13
ENDBRANCH   6  12
BRANCH   7  20
ATOM     20  O   UNL d   1     -47.527  14.503  22.878  0.00  0.00    -0.328 OA
ATOM     21  C   UNL d   1     -47.314  15.182  22.457  0.00  0.00     0.181 C 
ENDBRANCH   7  20
BRANCH   8  22
ATOM     22  O   UNL d   1     -50.143  12.740  21.935  0.00  0.00    -0.327 OA
ATOM     23  C   UNL d   1     -50.897  13.090  21.931  0.00  0.00     0.181 C 
ENDBRANCH   8  22
TORSDOF 7
ENDMDL
MODEL 2
REMARK VINA RESULT:      -6.0      1.819      4.361
REMARK  7 active torsions:
REMARK  status: ('A' for Active; 'I' for Inactive)
REMARK    1  A    between atoms: S_3  and  N_12 
REMARK    2  A    between atoms: C_16  and  S_3 
REMARK    3  A    between atoms: C_17  and  C_7 
REMARK    4  A    between atoms: O_19  and  C_8 
REMARK    5  A    between atoms: O_20  and  C_11 
REMARK    6  A    between atoms: N_12  and  C_18 
REMARK    7  A    between atoms: C_18  and  C_17 
ROOT
ATOM      1  N   UNL d   1     -47.500  11.269  23.559  0.00  0.00    -0.206 NA
ATOM      2  C   UNL d   1     -47.245  12.599  23.108  0.00  0.00     0.042 A 
ATOM      3  C   UNL d   1     -46.968  11.865  23.363  0.00  0.00     0.109 A 
ATOM      4  C   UNL d   1     -48.055  12.742  23.048  0.00  0.00     0.008 A 
ATOM      5  C   UNL d   1     -48.318  11.404  23.502  0.00  0.00     0.279 A 
ATOM      6  C   UNL d   1     -48.594  12.139  23.247  0.00  0.00     0.060 A 
ATOM      7  C   UNL d   1     -46.711  13.196  22.912  0.00  0.00     0.096 A 
ATOM      8  C   UNL d   1     -46.158  11.727  23.421  0.00  0.00     0.112 A 
ATOM      9  O   UNL d   1     -48.851  10.809  23.698  0.00  0.00    -0.265 OA
ATOM     10  C   UNL d   1     -45.902  13.057  22.970  0.00  0.00     0.026 A 
ATOM     11  C   UNL d   1     -45.626  12.323  23.225  0.00  0.00     0.028 A 
ENDROOT
BRANCH   6  12
ATOM     12  C   UNL d   1     -49.408  12.276  23.189  0.00  0.00     0.026 C 
BRANCH  12  13
ATOM     13  C   UNL d   1     -49.685  13.023  22.984  0.00  0.00     0.112 C 
BRANCH  13  14
ATOM     14  N   UNL d   1     -50.493  13.183  23.013  0.00  0.00    -0.157 NA
BRANCH  14  15
ATOM     15  S   UNL d   1     -50.758  13.958  22.898  0.00  0.00     0.286 S 
ATOM     16  O   UNL d   1     -51.064  14.720  22.979  0.00  0.00    -0.198 OA
ATOM     17  O   UNL d   1     -50.892  13.806  23.697  0.00  0.00    -0.198 OA
BRANCH  15  18
ATOM     18  C   UNL d   1     -50.615  14.092  22.093  0.00  0.00     0.117 C 
ATOM     19  C   UNL d   1     -50.741  14.839  21.769  0.00  0.00     0.014 C 
ENDBRANCH  15  18
ENDBRANCH  14  15
ENDBRANCH  13  14
ENDBRANCH  12  13
ENDBRANCH   6  12
BRANCH   7  20
ATOM     20  O   UNL d   1     -46.985  13.923  22.659  0.00  0.00    -0.328 OA
ATOM     21  C   UNL d   1     -46.474  14.573  22.643  0.00  0.00     0.181 C 
ENDBRANCH   7  20
BRANCH   8  22
ATOM     22  O   UNL d   1     -45.881  10.993  23.676  0.00  0.00    -0.327 OA
ATOM     23  C   UNL d   1     -45.128  10.732  23.442  0.00  0.00     0.181 C 
ENDBRANCH   8  22
TORSDOF 7
ENDMDL
MODEL 3
REMARK VINA RESULT:      -5.4      1.801      1.966
REMARK  7 active torsions:
REMARK  status: ('A' for Active; 'I' for Inactive)
REMARK    1  A    between atoms: S_3  and  N_12 
REMARK    2  A    between atoms: C_16  and  S_3 
REMARK    3  A    between atoms: C_17  and  C_7 
REMARK    4  A    between atoms: O_19  and  C_8 
REMARK    5  A    between atoms: O_20  and  C_11 
REMARK    6  A    between atoms: N_12  and  C_18 
REMARK    7  A    between atoms: C_18  and  C_17 
ROOT
ATOM      1  N   UNL d   1     -47.605  12.141  23.521  0.00  0.00    -0.206 NA
ATOM      2  C   UNL d   1     -47.799  13.413  22.904  0.00  0.00     0.042 A 
ATOM      3  C   UNL d   1     -48.109  12.735  23.257  0.00  0.00     0.109 A 
ATOM      4  C   UNL d   1     -46.983  13.501  22.814  0.00  0.00     0.008 A 
ATOM      5  C   UNL d   1     -46.783  12.221  23.433  0.00  0.00     0.279 A 
ATOM      6  C   UNL d   1     -46.473  12.899  23.081  0.00  0.00     0.060 A 
ATOM      7  C   UNL d   1     -48.303  14.009  22.640  0.00  0.00     0.096 A 
ATOM      8  C   UNL d   1     -48.923  12.652  23.345  0.00  0.00     0.112 A 
ATOM      9  O   UNL d   1     -46.278  11.626  23.697  0.00  0.00    -0.265 OA
ATOM     10  C   UNL d   1     -49.117  13.925  22.729  0.00  0.00     0.026 A 
ATOM     11  C   UNL d   1     -49.427  13.247  23.082  0.00  0.00     0.028 A 
ENDROOT
BRANCH   6  12
ATOM     12  C   UNL d   1     -45.654  12.981  22.992  0.00  0.00     0.026 C 
BRANCH  12  13
ATOM     13  C   UNL d   1     -45.309  12.882  22.252  0.00  0.00     0.112 C 
BRANCH  13  14
ATOM     14  N   UNL d   1     -44.560  13.193  22.104  0.00  0.00    -0.157 NA
BRANCH  14  15
ATOM     15  S   UNL d   1     -44.093  12.858  21.509  0.00  0.00     0.286 S 
ATOM     16  O   UNL d   1     -43.794  12.544  20.807  0.00  0.00    -0.198 OA
ATOM     17  O   UNL d   1     -44.826  12.985  21.154  0.00  0.00    -0.198 OA
BRANCH  15  18
ATOM     18  C   UNL d   1     -43.364  12.738  21.884  0.00  0.00     0.117 C 
ATOM     19  C   UNL d   1     -42.662  12.833  21.463  0.00  0.00     0.014 C 
ENDBRANCH  15  18
ENDBRANCH  14  15
ENDBRANCH  13  14
ENDBRANCH  12  13
ENDBRANCH   6  12
BRANCH   7  20
ATOM     20  O   UNL d   1     -47.996  14.681  22.291  0.00  0.00    -0.328 OA
ATOM     21  C   UNL d   1     -48.475  15.347  22.188  0.00  0.00     0.181 C 
ENDBRANCH   7  20
BRANCH   8  22
ATOM     22  O   UNL d   1     -49.234  11.974  23.698  0.00  0.00    -0.327 OA
ATOM     23  C   UNL d   1     -50.047  11.815  23.642  0.00  0.00     0.181 C 
ENDBRANCH   8  22
TORSDOF 7
ENDMDL
MODEL 4
REMARK VINA RESULT:      -5.2      8.046      8.943
REMARK  7 active torsions:
REMARK  status: ('A' for Active; 'I' for Inactive)
REMARK    1  A    between atoms: S_3  and  N_12 
REMARK    2  A    between atoms: C_16  and  S_3 
REMARK    3  A    between atoms: C_17  and  C_7 
REMARK    4  A    between atoms: O_19  and  C_8 
REMARK    5  A    between atoms: O_20  and  C_11 
REMARK    6  A    between atoms: N_12  and  C_18 
REMARK    7  A    between atoms: C_18  and  C_17 
ROOT
ATOM      1  N   UNL d   1     -40.968  15.548  18.733  0.00  0.00    -0.206 NA
ATOM      2  C   UNL d   1     -40.108  14.450  18.431  0.00  0.00     0.042 A 
ATOM      3  C   UNL d   1     -40.562  15.093  18.182  0.00  0.00     0.109 A 
ATOM      4  C   UNL d   1     -40.060  14.259  19.232  0.00  0.00     0.008 A 
ATOM      5  C   UNL d   1     -40.924  15.363  19.542  0.00  0.00     0.279 A 
ATOM      6  C   UNL d   1     -40.471  14.721  19.791  0.00  0.00     0.060 A 
ATOM      7  C   UNL d   1     -39.701  13.993  17.879  0.00  0.00     0.096 A 
ATOM      8  C   UNL d   1     -40.607  15.279  17.381  0.00  0.00     0.112 A 
ATOM      9  O   UNL d   1     -41.331  15.819  20.094  0.00  0.00    -0.265 OA
ATOM     10  C   UNL d   1     -39.748  14.181  17.079  0.00  0.00     0.026 A 
ATOM     11  C   UNL d   1     -40.201  14.824  16.830  0.00  0.00     0.028 A 
ENDROOT
BRANCH   6  12
ATOM     12  C   UNL d   1     -40.426  14.534  20.596  0.00  0.00     0.026 C 
BRANCH  12  13
ATOM     13  C   UNL d   1     -39.704  14.581  20.988  0.00  0.00     0.112 C 
BRANCH  13  14
ATOM     14  N   UNL d   1     -39.665  14.418  21.795  0.00  0.00    -0.157 NA
BRANCH  14  15
ATOM     15  S   UNL d   1     -38.927  14.388  22.167  0.00  0.00     0.286 S 
ATOM     16  O   UNL d   1     -38.204  14.557  22.526  0.00  0.00    -0.198 OA
ATOM     17  O   UNL d   1     -39.080  15.192  22.068  0.00  0.00    -0.198 OA
BRANCH  15  18
ATOM     18  C   UNL d   1     -38.791  13.576  22.258  0.00  0.00     0.117 C 
ATOM     19  C   UNL d   1     -38.326  13.300  22.879  0.00  0.00     0.014 C 
ENDBRANCH  15  18
ENDBRANCH  14  15
ENDBRANCH  13  14
ENDBRANCH  12  13
ENDBRANCH   6  12
BRANCH   7  20
ATOM     20  O   UNL d   1     -39.252  13.357  18.126  0.00  0.00    -0.328 OA
ATOM     21  C   UNL d   1     -38.813  12.924  17.574  0.00  0.00     0.181 C 
ENDBRANCH   7  20
BRANCH   8  22
ATOM     22  O   UNL d   1     -41.061  15.922  17.132  0.00  0.00    -0.327 OA
ATOM     23  C   UNL d   1     -41.414  15.912  16.381  0.00  0.00     0.181 C 
ENDBRANCH   8  22
TORSDOF 7
ENDMDL
MODEL 5
REMARK VINA RESULT:      -4.4      8.013      8.983
REMARK  7 active torsions:
REMARK  status: ('A' for Active; 'I' for Inactive)
REMARK    1  A    between atoms: S_3  and  N_12 
REMARK    2  A    between atoms: C_16  and  S_3 
REMARK    3  A    between atoms: C_17  and  C_7 
REMARK    4  A    between atoms: O_19  and  C_8 
REMARK    5  A    between atoms: O_20  and  C_11 
REMARK    6  A    between atoms: N_12  and  C_18 
REMARK    7  A    between atoms: C_18  and  C_17 
ROOT
ATOM      1  N   UNL d   1     -39.234  14.234  18.513  0.00  0.00    -0.206 NA
ATOM      2  C   UNL d   1     -39.891  14.952  19.557  0.00  0.00     0.042 A 
ATOM      3  C   UNL d   1     -39.829  14.744  18.761  0.00  0.00     0.109 A 
ATOM      4  C   UNL d   1     -39.358  14.649  20.109  0.00  0.00     0.008 A 
ATOM      5  C   UNL d   1     -38.693  13.925  19.062  0.00  0.00     0.279 A 
ATOM      6  C   UNL d   1     -38.755  14.133  19.859  0.00  0.00     0.060 A 
ATOM      7  C   UNL d   1     -40.488  15.463  19.806  0.00  0.00     0.096 A 
ATOM      8  C   UNL d   1     -40.364  15.048  18.214  0.00  0.00     0.112 A 
ATOM      9  O   UNL d   1     -38.096  13.414  18.815  0.00  0.00    -0.265 OA
ATOM     10  C   UNL d   1     -41.021  15.766  19.258  0.00  0.00     0.026 A 
ATOM     11  C   UNL d   1     -40.960  15.559  18.461  0.00  0.00     0.028 A 
ENDROOT
BRANCH   6  12
ATOM     12  C   UNL d   1     -38.217  13.827  20.408  0.00  0.00     0.026 C 
BRANCH  12  13
ATOM     13  C   UNL d   1     -38.481  13.574  21.145  0.00  0.00     0.112 C 
BRANCH  13  14
ATOM     14  N   UNL d   1     -37.942  13.460  21.757  0.00  0.00    -0.157 NA
BRANCH  14  15
ATOM     15  S   UNL d   1     -38.210  13.177  22.487  0.00  0.00     0.286 S 
ATOM     16  O   UNL d   1     -38.440  12.716  23.131  0.00  0.00    -0.198 OA
ATOM     17  O   UNL d   1     -38.023  12.501  22.054  0.00  0.00    -0.198 OA
BRANCH  15  18
ATOM     18  C   UNL d   1     -38.392  13.868  22.905  0.00  0.00     0.117 C 
ATOM     19  C   UNL d   1     -38.655  13.824  23.684  0.00  0.00     0.014 C 
ENDBRANCH  15  18
ENDBRANCH  14  15
ENDBRANCH  13  14
ENDBRANCH  12  13
ENDBRANCH   6  12
BRANCH   7  20
ATOM     20  O   UNL d   1     -40.549  15.668  20.594  0.00  0.00    -0.328 OA
ATOM     21  C   UNL d   1     -41.274  15.922  20.899  0.00  0.00     0.181 C 
ENDBRANCH   7  20
BRANCH   8  22
ATOM     22  O   UNL d   1     -40.302  14.841  17.417  0.00  0.00    -0.327 OA
ATOM     23  C   UNL d   1     -40.718  15.276  16.844  0.00  0.00     0.181 C 
ENDBRANCH   8  22
TORSDOF 7
ENDMDL
MODEL 6
REMARK VINA RESULT:      -4.2      8.466      9.845
REMARK  7 active torsions:
REMARK  status: ('A' for Active; 'I' for Inactive)
REMARK    1  A    between atoms: S_3  and  N_12 
REMARK    2  A    between atoms: C_16  and  S_3 
REMARK    3  A    between atoms: C_17  and  C_7 
REMARK    4  A    between atoms: O_19  and  C_8 
REMARK    5  A    between atoms: O_20  and  C_11 
REMARK    6  A    between atoms: N_12  and  C_18 
REMARK    7  A    between atoms: C_18  and  C_17 
ROOT
ATOM      1  N   UNL d   1     -38.538  14.343  17.806  0.00  0.00    -0.206 NA
ATOM      2  C   UNL d   1     -39.760  15.068  17.679  0.00  0.00     0.042 A 
ATOM      3  C   UNL d   1     -39.054  14.796  17.353  0.00  0.00     0.109 A 
ATOM      4  C   UNL d   1     -39.955  14.889  18.461  0.00  0.00     0.008 A 
ATOM      5  C   UNL d   1     -38.726  14.159  18.594  0.00  0.00     0.279 A 
ATOM      6  C   UNL d   1     -39.432  14.431  18.920  0.00  0.00     0.060 A 
ATOM      7  C   UNL d   1     -40.278  15.522  17.225  0.00  0.00     0.096 A 
ATOM      8  C   UNL d   1     -38.864  14.977  16.572  0.00  0.00     0.112 A 
ATOM      9  O   UNL d   1     -38.209  13.706  19.048  0.00  0.00    -0.265 OA
ATOM     10  C   UNL d   1     -40.087  15.702  16.445  0.00  0.00     0.026 A 
ATOM     11  C   UNL d   1     -39.380  15.430  16.119  0.00  0.00     0.028 A 
ENDROOT
BRANCH   6  12
ATOM     12  C   UNL d   1     -39.622  14.249  19.705  0.00  0.00     0.026 C 
BRANCH  12  13
ATOM     13  C   UNL d   1     -39.823  14.850  20.229  0.00  0.00     0.112 C 
BRANCH  13  14
ATOM     14  N   UNL d   1     -39.913  14.681  21.031  0.00  0.00    -0.157 NA
BRANCH  14  15
ATOM     15  S   UNL d   1     -39.964  15.304  21.573  0.00  0.00     0.286 S 
ATOM     16  O   UNL d   1     -40.208  15.922  22.063  0.00  0.00    -0.198 OA
ATOM     17  O   UNL d   1     -40.734  15.203  21.296  0.00  0.00    -0.198 OA
BRANCH  15  18
ATOM     18  C   UNL d   1     -39.184  15.391  21.839  0.00  0.00     0.117 C 
ATOM     19  C   UNL d   1     -39.017  15.882  22.479  0.00  0.00     0.014 C 
ENDBRANCH  15  18
ENDBRANCH  14  15
ENDBRANCH  13  14
ENDBRANCH  12  13
ENDBRANCH   6  12
BRANCH   7  20
ATOM     20  O   UNL d   1     -40.978  15.791  17.549  0.00  0.00    -0.328 OA
ATOM     21  C   UNL d   1     -41.633  15.922  17.062  0.00  0.00     0.181 C 
ENDBRANCH   7  20
BRANCH   8  22
ATOM     22  O   UNL d   1     -38.157  14.705  16.246  0.00  0.00    -0.327 OA
ATOM     23  C   UNL d   1     -37.991  14.846  15.444  0.00  0.00     0.181 C 
ENDBRANCH   8  22
TORSDOF 7
ENDMDL
