MODEL 1
REMARK VINA RESULT:      -4.6      0.000      0.000
REMARK  4 active torsions:
REMARK  status: ('A' for Active; 'I' for Inactive)
REMARK    1  A    between atoms: C_11  and  N_1 
REMARK    2  A    between atoms: S_7  and  C_2 
REMARK    3  A    between atoms: C_13  and  S_7 
REMARK    4  A    between atoms: C_8  and  C_13 
REMARK       I    between atoms: N_9  and  C_8 
ROOT
ATOM      1  N   UNL d   1     -48.782  13.133  22.933  0.00  0.00    -0.254 N 
ATOM      2  C   UNL d   1     -48.329  12.488  23.173  0.00  0.00     0.182 A 
ATOM      3  C   UNL d   1     -49.606  13.091  22.958  0.00  0.00     0.274 A 
ATOM      4  C   UNL d   1     -49.972  12.405  23.222  0.00  0.00     0.104 A 
ATOM      5  N   UNL d   1     -48.700  11.800  23.438  0.00  0.00    -0.222 NA
ATOM      6  C   UNL d   1     -49.519  11.760  23.462  0.00  0.00     0.095 A 
ATOM      7  S   UNL d   1     -50.765  12.202  23.308  0.00  0.00    -0.080 SA
ATOM      8  O   UNL d   1     -50.060  13.737  22.718  0.00  0.00    -0.266 OA
ATOM      9  C   UNL d   1     -50.032  11.158  23.696  0.00  0.00     0.027 A 
ATOM     10  C   UNL d   1     -50.796  11.429  23.601  0.00  0.00     0.037 A 
ENDROOT
BRANCH   2  11
ATOM     11  S   UNL d   1     -47.496  12.525  23.150  0.00  0.00    -0.044 SA
BRANCH  11  12
ATOM     12  C   UNL d   1     -47.052  11.891  23.436  0.00  0.00     0.099 C 
BRANCH  12  13
ATOM     13  C   UNL d   1     -46.227  11.931  23.437  0.00  0.00     0.271 C 
ATOM     14  N   UNL d   1     -45.781  11.245  23.526  0.00  0.00    -0.272 N 
ATOM     15  C   UNL d   1     -46.005  10.456  23.623  0.00  0.00     0.083 A 
ATOM     16  C   UNL d   1     -44.960  11.283  23.526  0.00  0.00     0.083 A 
ATOM     17  C   UNL d   1     -45.306  10.011  23.684  0.00  0.00     0.021 A 
ATOM     18  C   UNL d   1     -44.670  10.517  23.624  0.00  0.00     0.021 A 
ATOM     19  O   UNL d   1     -45.850  12.660  23.348  0.00  0.00    -0.266 OA
ENDBRANCH  12  13
ENDBRANCH  11  12
ENDBRANCH   2  11
BRANCH   1  20
ATOM     20  C   UNL d   1     -48.419  13.817  22.670  0.00  0.00     0.069 A 
ATOM     21  C   UNL d   1     -48.391  14.486  23.152  0.00  0.00     0.018 A 
ATOM     22  C   UNL d   1     -48.025  15.174  22.882  0.00  0.00     0.002 A 
ATOM     23  C   UNL d   1     -47.686  15.193  22.130  0.00  0.00     0.000 A 
ATOM     24  C   UNL d   1     -47.714  14.524  21.648  0.00  0.00     0.002 A 
ATOM     25  C   UNL d   1     -47.312  15.888  21.850  0.00  0.00     0.000 C 
ATOM     26  C   UNL d   1     -48.081  13.836  21.918  0.00  0.00     0.018 A 
ENDBRANCH   1  20
TORSDOF 4
ENDMDL
MODEL 2
REMARK VINA RESULT:      -4.2      1.627      4.578
REMARK  4 active torsions:
REMARK  status: ('A' for Active; 'I' for Inactive)
REMARK    1  A    between atoms: C_11  and  N_1 
REMARK    2  A    between atoms: S_7  and  C_2 
REMARK    3  A    between atoms: C_13  and  S_7 
REMARK    4  A    between atoms: C_8  and  C_13 
REMARK       I    between atoms: N_9  and  C_8 
ROOT
ATOM      1  N   UNL d   1     -47.376  12.593  22.668  0.00  0.00    -0.254 N 
ATOM      2  C   UNL d   1     -47.369  13.405  22.523  0.00  0.00     0.182 A 
ATOM      3  C   UNL d   1     -46.667  12.170  22.679  0.00  0.00     0.274 A 
ATOM      4  C   UNL d   1     -45.956  12.560  22.547  0.00  0.00     0.104 A 
ATOM      5  N   UNL d   1     -46.653  13.794  22.391  0.00  0.00    -0.222 NA
ATOM      6  C   UNL d   1     -45.950  13.371  22.403  0.00  0.00     0.095 A 
ATOM      7  S   UNL d   1     -45.178  12.294  22.525  0.00  0.00    -0.080 SA
ATOM      8  O   UNL d   1     -46.674  11.358  22.824  0.00  0.00    -0.266 OA
ATOM      9  C   UNL d   1     -45.168  13.606  22.291  0.00  0.00     0.027 A 
ATOM     10  C   UNL d   1     -44.694  12.945  22.366  0.00  0.00     0.037 A 
ENDROOT
BRANCH   2  11
ATOM     11  S   UNL d   1     -48.082  13.837  22.510  0.00  0.00    -0.044 SA
BRANCH  11  12
ATOM     12  C   UNL d   1     -48.063  14.657  22.604  0.00  0.00     0.099 C 
BRANCH  12  13
ATOM     13  C   UNL d   1     -48.666  15.123  22.285  0.00  0.00     0.271 C 
ATOM     14  N   UNL d   1     -49.312  15.335  22.750  0.00  0.00    -0.272 N 
ATOM     15  C   UNL d   1     -49.498  15.166  23.536  0.00  0.00     0.083 A 
ATOM     16  C   UNL d   1     -49.913  15.798  22.436  0.00  0.00     0.083 A 
ATOM     17  C   UNL d   1     -50.225  15.533  23.698  0.00  0.00     0.021 A 
ATOM     18  C   UNL d   1     -50.477  15.919  23.025  0.00  0.00     0.021 A 
ATOM     19  O   UNL d   1     -48.622  15.375  21.500  0.00  0.00    -0.266 OA
ENDBRANCH  12  13
ENDBRANCH  11  12
ENDBRANCH   2  11
BRANCH   1  20
ATOM     20  C   UNL d   1     -48.082  12.203  22.800  0.00  0.00     0.069 A 
ATOM     21  C   UNL d   1     -48.331  12.040  23.569  0.00  0.00     0.018 A 
ATOM     22  C   UNL d   1     -49.043  11.646  23.698  0.00  0.00     0.002 A 
ATOM     23  C   UNL d   1     -49.509  11.416  23.057  0.00  0.00     0.000 A 
ATOM     24  C   UNL d   1     -49.261  11.579  22.287  0.00  0.00     0.002 A 
ATOM     25  C   UNL d   1     -50.235  11.016  23.180  0.00  0.00     0.000 C 
ATOM     26  C   UNL d   1     -48.547  11.973  22.158  0.00  0.00     0.018 A 
ENDBRANCH   1  20
TORSDOF 4
ENDMDL
MODEL 3
REMARK VINA RESULT:      -4.1      1.358      3.795
REMARK  4 active torsions:
REMARK  status: ('A' for Active; 'I' for Inactive)
REMARK    1  A    between atoms: C_11  and  N_1 
REMARK    2  A    between atoms: S_7  and  C_2 
REMARK    3  A    between atoms: C_13  and  S_7 
REMARK    4  A    between atoms: C_8  and  C_13 
REMARK       I    between atoms: N_9  and  C_8 
ROOT
ATOM      1  N   UNL d   1     -46.383  12.344  23.140  0.00  0.00    -0.254 N 
ATOM      2  C   UNL d   1     -47.032  11.851  23.265  0.00  0.00     0.182 A 
ATOM      3  C   UNL d   1     -45.617  12.041  23.201  0.00  0.00     0.274 A 
ATOM      4  C   UNL d   1     -45.505  11.249  23.386  0.00  0.00     0.104 A 
ATOM      5  N   UNL d   1     -46.915  11.056  23.451  0.00  0.00    -0.222 NA
ATOM      6  C   UNL d   1     -46.153  10.756  23.511  0.00  0.00     0.095 A 
ATOM      7  S   UNL d   1     -44.824  10.798  23.482  0.00  0.00    -0.080 SA
ATOM      8  O   UNL d   1     -44.968  12.534  23.076  0.00  0.00    -0.266 OA
ATOM      9  C   UNL d   1     -45.873  10.001  23.684  0.00  0.00     0.027 A 
ATOM     10  C   UNL d   1     -45.057  10.026  23.667  0.00  0.00     0.037 A 
ENDROOT
BRANCH   2  11
ATOM     11  S   UNL d   1     -47.807  12.151  23.205  0.00  0.00    -0.044 SA
BRANCH  11  12
ATOM     12  C   UNL d   1     -48.389  11.705  22.825  0.00  0.00     0.099 C 
BRANCH  12  13
ATOM     13  C   UNL d   1     -49.187  11.889  22.933  0.00  0.00     0.271 C 
ATOM     14  N   UNL d   1     -49.636  12.162  22.298  0.00  0.00    -0.272 N 
ATOM     15  C   UNL d   1     -49.438  12.301  21.509  0.00  0.00     0.083 A 
ATOM     16  C   UNL d   1     -50.430  12.346  22.403  0.00  0.00     0.083 A 
ATOM     17  C   UNL d   1     -50.126  12.574  21.132  0.00  0.00     0.021 A 
ATOM     18  C   UNL d   1     -50.730  12.601  21.678  0.00  0.00     0.021 A 
ATOM     19  O   UNL d   1     -49.534  11.801  23.677  0.00  0.00    -0.266 OA
ENDBRANCH  12  13
ENDBRANCH  11  12
ENDBRANCH   2  11
BRANCH   1  20
ATOM     20  C   UNL d   1     -46.493  13.133  22.956  0.00  0.00     0.069 A 
ATOM     21  C   UNL d   1     -46.607  13.689  23.555  0.00  0.00     0.018 A 
ATOM     22  C   UNL d   1     -46.718  14.483  23.365  0.00  0.00     0.002 A 
ATOM     23  C   UNL d   1     -46.715  14.723  22.575  0.00  0.00     0.000 A 
ATOM     24  C   UNL d   1     -46.601  14.167  21.976  0.00  0.00     0.002 A 
ATOM     25  C   UNL d   1     -46.827  15.528  22.375  0.00  0.00     0.000 C 
ATOM     26  C   UNL d   1     -46.491  13.372  22.167  0.00  0.00     0.018 A 
ENDBRANCH   1  20
TORSDOF 4
ENDMDL
MODEL 4
REMARK VINA RESULT:      -3.7      7.073      9.024
REMARK  4 active torsions:
REMARK  status: ('A' for Active; 'I' for Inactive)
REMARK    1  A    between atoms: C_11  and  N_1 
REMARK    2  A    between atoms: S_7  and  C_2 
REMARK    3  A    between atoms: C_13  and  S_7 
REMARK    4  A    between atoms: C_8  and  C_13 
REMARK       I    between atoms: N_9  and  C_8 
ROOT
ATOM      1  N   UNL d   1     -39.652  15.317  20.053  0.00  0.00    -0.254 N 
ATOM      2  C   UNL d   1     -40.152  15.090  20.667  0.00  0.00     0.182 A 
ATOM      3  C   UNL d   1     -38.896  15.604  20.221  0.00  0.00     0.274 A 
ATOM      4  C   UNL d   1     -38.646  15.663  21.001  0.00  0.00     0.104 A 
ATOM      5  N   UNL d   1     -39.898  15.150  21.450  0.00  0.00    -0.222 NA
ATOM      6  C   UNL d   1     -39.146  15.436  21.615  0.00  0.00     0.095 A 
ATOM      7  S   UNL d   1     -37.940  15.922  21.334  0.00  0.00    -0.080 SA
ATOM      8  O   UNL d   1     -38.395  15.831  19.606  0.00  0.00    -0.266 OA
ATOM      9  C   UNL d   1     -38.749  15.555  22.327  0.00  0.00     0.027 A 
ATOM     10  C   UNL d   1     -38.009  15.854  22.155  0.00  0.00     0.037 A 
ENDROOT
BRANCH   2  11
ATOM     11  S   UNL d   1     -40.917  14.799  20.503  0.00  0.00    -0.044 SA
BRANCH  11  12
ATOM     12  C   UNL d   1     -41.294  14.314  21.054  0.00  0.00     0.099 C 
BRANCH  12  13
ATOM     13  C   UNL d   1     -42.119  14.309  21.103  0.00  0.00     0.271 C 
ATOM     14  N   UNL d   1     -42.520  13.602  21.237  0.00  0.00    -0.272 N 
ATOM     15  C   UNL d   1     -42.247  12.830  21.340  0.00  0.00     0.083 A 
ATOM     16  C   UNL d   1     -43.340  13.596  21.286  0.00  0.00     0.083 A 
ATOM     17  C   UNL d   1     -42.914  12.350  21.454  0.00  0.00     0.021 A 
ATOM     18  C   UNL d   1     -43.581  12.819  21.421  0.00  0.00     0.021 A 
ATOM     19  O   UNL d   1     -42.541  15.014  21.019  0.00  0.00    -0.266 OA
ENDBRANCH  12  13
ENDBRANCH  11  12
ENDBRANCH   2  11
BRANCH   1  20
ATOM     20  C   UNL d   1     -39.900  15.259  19.276  0.00  0.00     0.069 A 
ATOM     21  C   UNL d   1     -39.804  14.553  18.859  0.00  0.00     0.018 A 
ATOM     22  C   UNL d   1     -40.056  14.500  18.076  0.00  0.00     0.002 A 
ATOM     23  C   UNL d   1     -40.403  15.151  17.708  0.00  0.00     0.000 A 
ATOM     24  C   UNL d   1     -40.498  15.857  18.124  0.00  0.00     0.002 A 
ATOM     25  C   UNL d   1     -40.660  15.104  16.912  0.00  0.00     0.000 C 
ATOM     26  C   UNL d   1     -40.246  15.911  18.909  0.00  0.00     0.018 A 
ENDBRANCH   1  20
TORSDOF 4
ENDMDL
MODEL 5
REMARK VINA RESULT:      -3.4      7.265      9.335
REMARK  4 active torsions:
REMARK  status: ('A' for Active; 'I' for Inactive)
REMARK    1  A    between atoms: C_11  and  N_1 
REMARK    2  A    between atoms: S_7  and  C_2 
REMARK    3  A    between atoms: C_13  and  S_7 
REMARK    4  A    between atoms: C_8  and  C_13 
REMARK       I    between atoms: N_9  and  C_8 
ROOT
ATOM      1  N   UNL d   1     -40.274  14.732  21.143  0.00  0.00    -0.254 N 
ATOM      2  C   UNL d   1     -40.025  15.166  20.489  0.00  0.00     0.182 A 
ATOM      3  C   UNL d   1     -39.811  14.714  21.827  0.00  0.00     0.274 A 
ATOM      4  C   UNL d   1     -39.104  15.131  21.853  0.00  0.00     0.104 A 
ATOM      5  N   UNL d   1     -39.314  15.585  20.518  0.00  0.00    -0.222 NA
ATOM      6  C   UNL d   1     -38.856  15.566  21.198  0.00  0.00     0.095 A 
ATOM      7  S   UNL d   1     -38.538  15.218  22.443  0.00  0.00    -0.080 SA
ATOM      8  O   UNL d   1     -40.060  14.279  22.482  0.00  0.00    -0.266 OA
ATOM      9  C   UNL d   1     -38.136  15.922  21.384  0.00  0.00     0.027 A 
ATOM     10  C   UNL d   1     -37.940  15.708  22.148  0.00  0.00     0.037 A 
ENDROOT
BRANCH   2  11
ATOM     11  S   UNL d   1     -40.488  15.187  19.796  0.00  0.00    -0.044 SA
BRANCH  11  12
ATOM     12  C   UNL d   1     -40.158  15.471  19.094  0.00  0.00     0.099 C 
BRANCH  12  13
ATOM     13  C   UNL d   1     -40.638  15.594  18.433  0.00  0.00     0.271 C 
ATOM     14  N   UNL d   1     -40.365  15.391  17.682  0.00  0.00    -0.272 N 
ATOM     15  C   UNL d   1     -39.651  15.061  17.431  0.00  0.00     0.083 A 
ATOM     16  C   UNL d   1     -40.840  15.513  17.024  0.00  0.00     0.083 A 
ATOM     17  C   UNL d   1     -39.698  14.983  16.606  0.00  0.00     0.021 A 
ATOM     18  C   UNL d   1     -40.424  15.259  16.359  0.00  0.00     0.021 A 
ATOM     19  O   UNL d   1     -41.390  15.922  18.525  0.00  0.00    -0.266 OA
ENDBRANCH  12  13
ENDBRANCH  11  12
ENDBRANCH   2  11
BRANCH   1  20
ATOM     20  C   UNL d   1     -40.977  14.316  21.120  0.00  0.00     0.069 A 
ATOM     21  C   UNL d   1     -41.678  14.666  21.380  0.00  0.00     0.018 A 
ATOM     22  C   UNL d   1     -42.384  14.243  21.354  0.00  0.00     0.002 A 
ATOM     23  C   UNL d   1     -42.393  13.469  21.068  0.00  0.00     0.000 A 
ATOM     24  C   UNL d   1     -41.693  13.118  20.808  0.00  0.00     0.002 A 
ATOM     25  C   UNL d   1     -43.107  13.033  21.040  0.00  0.00     0.000 C 
ATOM     26  C   UNL d   1     -40.984  13.542  20.834  0.00  0.00     0.018 A 
ENDBRANCH   1  20
TORSDOF 4
ENDMDL
MODEL 6
REMARK VINA RESULT:      -3.1      7.201      9.281
REMARK  4 active torsions:
REMARK  status: ('A' for Active; 'I' for Inactive)
REMARK    1  A    between atoms: C_11  and  N_1 
REMARK    2  A    between atoms: S_7  and  C_2 
REMARK    3  A    between atoms: C_13  and  S_7 
REMARK    4  A    between atoms: C_8  and  C_13 
REMARK       I    between atoms: N_9  and  C_8 
ROOT
ATOM      1  N   UNL d   1     -39.247  14.816  20.040  0.00  0.00    -0.254 N 
ATOM      2  C   UNL d   1     -40.025  14.581  19.906  0.00  0.00     0.182 A 
ATOM      3  C   UNL d   1     -38.720  14.882  19.407  0.00  0.00     0.274 A 
ATOM      4  C   UNL d   1     -38.975  14.713  18.645  0.00  0.00     0.104 A 
ATOM      5  N   UNL d   1     -40.277  14.411  19.139  0.00  0.00    -0.222 NA
ATOM      6  C   UNL d   1     -39.753  14.477  18.511  0.00  0.00     0.095 A 
ATOM      7  S   UNL d   1     -38.588  14.728  17.919  0.00  0.00    -0.080 SA
ATOM      8  O   UNL d   1     -37.941  15.118  19.541  0.00  0.00    -0.266 OA
ATOM      9  C   UNL d   1     -39.846  14.346  17.702  0.00  0.00     0.027 A 
ATOM     10  C   UNL d   1     -39.131  14.500  17.339  0.00  0.00     0.037 A 
ENDROOT
BRANCH   2  11
ATOM     11  S   UNL d   1     -40.560  14.512  20.541  0.00  0.00    -0.044 SA
BRANCH  11  12
ATOM     12  C   UNL d   1     -41.232  14.040  20.458  0.00  0.00     0.099 C 
BRANCH  12  13
ATOM     13  C   UNL d   1     -41.920  14.224  20.877  0.00  0.00     0.271 C 
ATOM     14  N   UNL d   1     -42.446  13.626  21.088  0.00  0.00    -0.272 N 
ATOM     15  C   UNL d   1     -42.428  12.811  20.957  0.00  0.00     0.083 A 
ATOM     16  C   UNL d   1     -43.131  13.806  21.504  0.00  0.00     0.083 A 
ATOM     17  C   UNL d   1     -43.115  12.495  21.301  0.00  0.00     0.021 A 
ATOM     18  C   UNL d   1     -43.543  13.104  21.635  0.00  0.00     0.021 A 
ATOM     19  O   UNL d   1     -42.080  15.007  21.084  0.00  0.00    -0.266 OA
ENDBRANCH  12  13
ENDBRANCH  11  12
ENDBRANCH   2  11
BRANCH   1  20
ATOM     20  C   UNL d   1     -38.991  14.986  20.798  0.00  0.00     0.069 A 
ATOM     21  C   UNL d   1     -39.039  15.756  21.091  0.00  0.00     0.018 A 
ATOM     22  C   UNL d   1     -38.780  15.922  21.856  0.00  0.00     0.002 A 
ATOM     23  C   UNL d   1     -38.474  15.319  22.329  0.00  0.00     0.000 A 
ATOM     24  C   UNL d   1     -38.426  14.549  22.036  0.00  0.00     0.002 A 
ATOM     25  C   UNL d   1     -38.209  15.481  23.107  0.00  0.00     0.000 C 
ATOM     26  C   UNL d   1     -38.685  14.383  21.270  0.00  0.00     0.018 A 
ENDBRANCH   1  20
TORSDOF 4
ENDMDL
MODEL 7
REMARK VINA RESULT:      -2.6      1.794      3.037
REMARK  4 active torsions:
REMARK  status: ('A' for Active; 'I' for Inactive)
REMARK    1  A    between atoms: C_11  and  N_1 
REMARK    2  A    between atoms: S_7  and  C_2 
REMARK    3  A    between atoms: C_13  and  S_7 
REMARK    4  A    between atoms: C_8  and  C_13 
REMARK       I    between atoms: N_9  and  C_8 
ROOT
ATOM      1  N   UNL d   1     -49.045  13.515  22.999  0.00  0.00    -0.254 N 
ATOM      2  C   UNL d   1     -48.394  14.019  23.021  0.00  0.00     0.182 A 
ATOM      3  C   UNL d   1     -49.809  13.827  22.986  0.00  0.00     0.274 A 
ATOM      4  C   UNL d   1     -49.918  14.641  22.994  0.00  0.00     0.104 A 
ATOM      5  N   UNL d   1     -48.507  14.837  23.029  0.00  0.00    -0.222 NA
ATOM      6  C   UNL d   1     -49.267  15.146  23.016  0.00  0.00     0.095 A 
ATOM      7  S   UNL d   1     -50.597  15.106  22.985  0.00  0.00    -0.080 SA
ATOM      8  O   UNL d   1     -50.461  13.322  22.964  0.00  0.00    -0.266 OA
ATOM      9  C   UNL d   1     -49.544  15.922  23.020  0.00  0.00     0.027 A 
ATOM     10  C   UNL d   1     -50.360  15.898  23.001  0.00  0.00     0.037 A 
ENDROOT
BRANCH   2  11
ATOM     11  S   UNL d   1     -47.620  13.710  23.034  0.00  0.00    -0.044 SA
BRANCH  11  12
ATOM     12  C   UNL d   1     -47.000  14.147  22.709  0.00  0.00     0.099 C 
BRANCH  12  13
ATOM     13  C   UNL d   1     -46.220  13.970  22.911  0.00  0.00     0.271 C 
ATOM     14  N   UNL d   1     -45.735  13.573  22.377  0.00  0.00    -0.272 N 
ATOM     15  C   UNL d   1     -45.879  13.290  21.615  0.00  0.00     0.083 A 
ATOM     16  C   UNL d   1     -44.958  13.396  22.576  0.00  0.00     0.083 A 
ATOM     17  C   UNL d   1     -45.176  12.936  21.351  0.00  0.00     0.021 A 
ATOM     18  C   UNL d   1     -44.615  13.001  21.938  0.00  0.00     0.021 A 
ATOM     19  O   UNL d   1     -45.925  14.192  23.650  0.00  0.00    -0.266 OA
ENDBRANCH  12  13
ENDBRANCH  11  12
ENDBRANCH   2  11
BRANCH   1  20
ATOM     20  C   UNL d   1     -48.939  12.704  22.991  0.00  0.00     0.069 A 
ATOM     21  C   UNL d   1     -48.971  12.287  22.279  0.00  0.00     0.018 A 
ATOM     22  C   UNL d   1     -48.864  11.470  22.276  0.00  0.00     0.002 A 
ATOM     23  C   UNL d   1     -48.724  11.068  22.983  0.00  0.00     0.000 A 
ATOM     24  C   UNL d   1     -48.691  11.485  23.694  0.00  0.00     0.002 A 
ATOM     25  C   UNL d   1     -48.613  10.238  22.986  0.00  0.00     0.000 C 
ATOM     26  C   UNL d   1     -48.799  12.303  23.698  0.00  0.00     0.018 A 
ENDBRANCH   1  20
TORSDOF 4
ENDMDL
MODEL 8
REMARK VINA RESULT:      -2.3      1.651      3.120
REMARK  4 active torsions:
REMARK  status: ('A' for Active; 'I' for Inactive)
REMARK    1  A    between atoms: C_11  and  N_1 
REMARK    2  A    between atoms: S_7  and  C_2 
REMARK    3  A    between atoms: C_13  and  S_7 
REMARK    4  A    between atoms: C_8  and  C_13 
REMARK       I    between atoms: N_9  and  C_8 
ROOT
ATOM      1  N   UNL d   1     -48.198  13.300  22.706  0.00  0.00    -0.254 N 
ATOM      2  C   UNL d   1     -47.432  13.604  22.694  0.00  0.00     0.182 A 
ATOM      3  C   UNL d   1     -48.843  13.804  22.600  0.00  0.00     0.274 A 
ATOM      4  C   UNL d   1     -48.719  14.607  22.483  0.00  0.00     0.104 A 
ATOM      5  N   UNL d   1     -47.311  14.411  22.576  0.00  0.00    -0.222 NA
ATOM      6  C   UNL d   1     -47.954  14.911  22.472  0.00  0.00     0.095 A 
ATOM      7  S   UNL d   1     -49.240  15.232  22.365  0.00  0.00    -0.080 SA
ATOM      8  O   UNL d   1     -49.610  13.499  22.612  0.00  0.00    -0.266 OA
ATOM      9  C   UNL d   1     -48.002  15.724  22.346  0.00  0.00     0.027 A 
ATOM     10  C   UNL d   1     -48.791  15.922  22.280  0.00  0.00     0.037 A 
ENDROOT
BRANCH   2  11
ATOM     11  S   UNL d   1     -46.776  13.100  22.800  0.00  0.00    -0.044 SA
BRANCH  11  12
ATOM     12  C   UNL d   1     -46.032  13.337  22.531  0.00  0.00     0.099 C 
BRANCH  12  13
ATOM     13  C   UNL d   1     -45.371  12.863  22.675  0.00  0.00     0.271 C 
ATOM     14  N   UNL d   1     -44.738  12.868  22.148  0.00  0.00    -0.272 N 
ATOM     15  C   UNL d   1     -44.615  13.285  21.446  0.00  0.00     0.083 A 
ATOM     16  C   UNL d   1     -44.080  12.397  22.289  0.00  0.00     0.083 A 
ATOM     17  C   UNL d   1     -43.869  13.060  21.159  0.00  0.00     0.021 A 
ATOM     18  C   UNL d   1     -43.544  12.519  21.674  0.00  0.00     0.021 A 
ATOM     19  O   UNL d   1     -45.346  12.383  23.347  0.00  0.00    -0.266 OA
ENDBRANCH  12  13
ENDBRANCH  11  12
ENDBRANCH   2  11
BRANCH   1  20
ATOM     20  C   UNL d   1     -48.323  12.500  22.822  0.00  0.00     0.069 A 
ATOM     21  C   UNL d   1     -48.355  12.190  23.586  0.00  0.00     0.018 A 
ATOM     22  C   UNL d   1     -48.481  11.383  23.698  0.00  0.00     0.002 A 
ATOM     23  C   UNL d   1     -48.576  10.885  23.047  0.00  0.00     0.000 A 
ATOM     24  C   UNL d   1     -48.544  11.195  22.283  0.00  0.00     0.002 A 
ATOM     25  C   UNL d   1     -48.705  10.065  23.153  0.00  0.00     0.000 C 
ATOM     26  C   UNL d   1     -48.417  12.003  22.170  0.00  0.00     0.018 A 
ENDBRANCH   1  20
TORSDOF 4
ENDMDL
MODEL 9
REMARK VINA RESULT:      -2.1      1.755      2.137
REMARK  4 active torsions:
REMARK  status: ('A' for Active; 'I' for Inactive)
REMARK    1  A    between atoms: C_11  and  N_1 
REMARK    2  A    between atoms: S_7  and  C_2 
REMARK    3  A    between atoms: C_13  and  S_7 
REMARK    4  A    between atoms: C_8  and  C_13 
REMARK       I    between atoms: N_9  and  C_8 
ROOT
ATOM      1  N   UNL d   1     -48.023  12.915  22.851  0.00  0.00    -0.254 N 
ATOM      2  C   UNL d   1     -47.220  12.731  22.823  0.00  0.00     0.182 A 
ATOM      3  C   UNL d   1     -48.569  12.345  23.094  0.00  0.00     0.274 A 
ATOM      4  C   UNL d   1     -48.309  11.595  23.307  0.00  0.00     0.104 A 
ATOM      5  N   UNL d   1     -46.963  11.977  23.037  0.00  0.00    -0.222 NA
ATOM      6  C   UNL d   1     -47.507  11.412  23.279  0.00  0.00     0.095 A 
ATOM      7  S   UNL d   1     -48.712  10.927  23.566  0.00  0.00    -0.080 SA
ATOM      8  O   UNL d   1     -49.373  12.529  23.122  0.00  0.00    -0.266 OA
ATOM      9  C   UNL d   1     -47.413  10.629  23.521  0.00  0.00     0.027 A 
ATOM     10  C   UNL d   1     -48.153  10.331  23.697  0.00  0.00     0.037 A 
ENDROOT
BRANCH   2  11
ATOM     11  S   UNL d   1     -46.665  13.302  22.578  0.00  0.00    -0.044 SA
BRANCH  11  12
ATOM     12  C   UNL d   1     -45.974  13.062  22.196  0.00  0.00     0.099 C 
BRANCH  12  13
ATOM     13  C   UNL d   1     -45.312  13.555  22.191  0.00  0.00     0.271 C 
ATOM     14  N   UNL d   1     -44.606  13.295  21.854  0.00  0.00    -0.272 N 
ATOM     15  C   UNL d   1     -44.406  12.582  21.489  0.00  0.00     0.083 A 
ATOM     16  C   UNL d   1     -43.946  13.784  21.848  0.00  0.00     0.083 A 
ATOM     17  C   UNL d   1     -43.610  12.643  21.259  0.00  0.00     0.021 A 
ATOM     18  C   UNL d   1     -43.331  13.377  21.479  0.00  0.00     0.021 A 
ATOM     19  O   UNL d   1     -45.357  14.310  22.523  0.00  0.00    -0.266 OA
ENDBRANCH  12  13
ENDBRANCH  11  12
ENDBRANCH   2  11
BRANCH   1  20
ATOM     20  C   UNL d   1     -48.284  13.660  22.639  0.00  0.00     0.069 A 
ATOM     21  C   UNL d   1     -48.378  14.247  23.211  0.00  0.00     0.018 A 
ATOM     22  C   UNL d   1     -48.641  14.997  22.993  0.00  0.00     0.002 A 
ATOM     23  C   UNL d   1     -48.810  15.162  22.202  0.00  0.00     0.000 A 
ATOM     24  C   UNL d   1     -48.716  14.576  21.630  0.00  0.00     0.002 A 
ATOM     25  C   UNL d   1     -49.077  15.922  21.973  0.00  0.00     0.000 C 
ATOM     26  C   UNL d   1     -48.453  13.824  21.848  0.00  0.00     0.018 A 
ENDBRANCH   1  20
TORSDOF 4
ENDMDL
