MODEL 1
REMARK VINA RESULT:      54.1      0.000      0.000
REMARK  3 active torsions:
REMARK  status: ('A' for Active; 'I' for Inactive)
REMARK    1  A    between atoms: N_3  and  S_1 
REMARK    2  A    between atoms: C_7  and  S_1 
REMARK    3  A    between atoms: C_10  and  N_3 
ROOT
ATOM      1  S   UNL d   1     -50.388  26.409  33.901  0.00  0.00     0.327 S 
ATOM      2  O   UNL d   1     -51.048  26.205  34.344  0.00  0.00    -0.186 OA
ATOM      3  O   UNL d   1     -50.121  25.908  33.306  0.00  0.00    -0.186 OA
ENDROOT
BRANCH   1   4
ATOM      4  N   UNL d   1     -50.787  25.707  33.756  0.00  0.00    -0.314 NA
BRANCH   4   5
ATOM      5  C   UNL d   1     -51.195  24.989  33.608  0.00  0.00     0.184 A 
ATOM      6  C   UNL d   1     -52.011  25.008  33.453  0.00  0.00     0.226 A 
ATOM      7  O   UNL d   1     -52.415  25.721  33.444  0.00  0.00    -0.284 OA
ATOM      8  C   UNL d   1     -52.410  24.298  33.308  0.00  0.00     0.045 A 
ATOM      9  C   UNL d   1     -51.998  23.581  33.318  0.00  0.00     0.004 A 
ATOM     10  C   UNL d   1     -51.190  23.574  33.472  0.00  0.00     0.003 A 
ATOM     11  C   UNL d   1     -50.791  24.280  33.618  0.00  0.00     0.036 A 
ENDBRANCH   4   5
ENDBRANCH   1   4
BRANCH   1  12
ATOM     12  C   UNL d   1     -49.995  27.113  34.053  0.00  0.00     0.118 A 
ATOM     13  C   UNL d   1     -49.435  27.147  34.652  0.00  0.00     0.035 A 
ATOM     14  C   UNL d   1     -49.036  27.856  34.808  0.00  0.00     0.105 A 
ATOM     15  N   UNL d   1     -48.458  28.058  35.361  0.00  0.00    -0.189 NA
ATOM     16  C   UNL d   1     -49.204  28.532  34.356  0.00  0.00     0.104 A 
ATOM     17  C   UNL d   1     -48.265  28.861  35.254  0.00  0.00     0.369 A 
ATOM     18  O   UNL d   1     -47.713  29.289  35.689  0.00  0.00    -0.242 OA
ATOM     19  N   UNL d   1     -48.729  29.147  34.633  0.00  0.00    -0.189 NA
ATOM     20  C   UNL d   1     -49.769  28.493  33.752  0.00  0.00     0.022 A 
ATOM     21  C   UNL d   1     -50.161  27.783  33.605  0.00  0.00     0.016 A 
ENDBRANCH   1  12
TORSDOF 3
ENDMDL
