MODEL 1
REMARK VINA RESULT:      -2.8      0.000      0.000
REMARK  2 active torsions:
REMARK  status: ('A' for Active; 'I' for Inactive)
REMARK    1  A    between atoms: C_6  and  C_1 
REMARK    2  A    between atoms: O_15  and  C_12 
ROOT
ATOM      1  C   UNL d   1      32.559  22.316 -21.197  0.00  0.00     0.128 A 
ATOM      2  C   UNL d   1      32.797  22.039 -20.432  0.00  0.00     0.306 A 
ATOM      3  C   UNL d   1      32.559  21.792 -21.823  0.00  0.00     0.013 A 
ATOM      4  O   UNL d   1      33.018  21.260 -20.352  0.00  0.00    -0.273 OA
ATOM      5  C   UNL d   1      32.778  21.028 -21.730  0.00  0.00     0.025 A 
ATOM      6  C   UNL d   1      33.016  20.752 -20.966  0.00  0.00     0.103 A 
ATOM      7  O   UNL d   1      32.801  22.569 -19.783  0.00  0.00    -0.259 OA
ATOM      8  C   UNL d   1      32.779  20.498 -22.360  0.00  0.00     0.026 A 
ATOM      9  C   UNL d   1      33.238  19.966 -20.888  0.00  0.00     0.027 A 
ATOM     10  C   UNL d   1      33.003  19.706 -22.278  0.00  0.00     0.094 A 
ATOM     11  C   UNL d   1      33.241  19.429 -21.514  0.00  0.00     0.026 A 
ENDROOT
BRANCH   1  12
ATOM     12  C   UNL d   1      32.328  23.117 -21.300  0.00  0.00     0.216 C 
ATOM     13  O   UNL d   1      32.884  23.679 -21.525  0.00  0.00    -0.644 OA
ATOM     14  O   UNL d   1      31.533  23.339 -21.174  0.00  0.00    -0.644 OA
ENDBRANCH   1  12
BRANCH  10  15
ATOM     15  O   UNL d   1      32.995  19.190 -22.928  0.00  0.00    -0.328 OA
ATOM     16  C   UNL d   1      33.028  18.377 -22.814  0.00  0.00     0.181 C 
ENDBRANCH  10  15
TORSDOF 2
ENDMDL
MODEL 2
REMARK VINA RESULT:      -2.8      4.403      5.765
REMARK  2 active torsions:
REMARK  status: ('A' for Active; 'I' for Inactive)
REMARK    1  A    between atoms: C_6  and  C_1 
REMARK    2  A    between atoms: O_15  and  C_12 
ROOT
ATOM      1  C   UNL d   1      31.943  17.397 -24.070  0.00  0.00     0.128 A 
ATOM      2  C   UNL d   1      32.288  16.803 -23.575  0.00  0.00     0.306 A 
ATOM      3  C   UNL d   1      31.153  17.337 -24.269  0.00  0.00     0.013 A 
ATOM      4  O   UNL d   1      31.817  16.192 -23.315  0.00  0.00    -0.273 OA
ATOM      5  C   UNL d   1      30.701  16.731 -24.005  0.00  0.00     0.025 A 
ATOM      6  C   UNL d   1      31.046  16.137 -23.510  0.00  0.00     0.103 A 
ATOM      7  O   UNL d   1      33.097  16.856 -23.367  0.00  0.00    -0.259 OA
ATOM      8  C   UNL d   1      29.905  16.667 -24.203  0.00  0.00     0.026 A 
ATOM      9  C   UNL d   1      30.569  15.523 -23.249  0.00  0.00     0.027 A 
ATOM     10  C   UNL d   1      29.426  16.047 -23.939  0.00  0.00     0.094 A 
ATOM     11  C   UNL d   1      29.770  15.453 -23.443  0.00  0.00     0.026 A 
ENDROOT
BRANCH   1  12
ATOM     12  C   UNL d   1      32.413  18.036 -24.350  0.00  0.00     0.216 C 
ATOM     13  O   UNL d   1      32.787  17.982 -25.080  0.00  0.00    -0.644 OA
ATOM     14  O   UNL d   1      32.499  18.723 -23.883  0.00  0.00    -0.644 OA
ENDBRANCH   1  12
BRANCH  10  15
ATOM     15  O   UNL d   1      28.625  16.004 -24.151  0.00  0.00    -0.328 OA
ATOM     16  C   UNL d   1      28.080  15.649 -23.650  0.00  0.00     0.181 C 
ENDBRANCH  10  15
TORSDOF 2
ENDMDL
MODEL 3
REMARK VINA RESULT:      -2.7      0.989      1.667
REMARK  2 active torsions:
REMARK  status: ('A' for Active; 'I' for Inactive)
REMARK    1  A    between atoms: C_6  and  C_1 
REMARK    2  A    between atoms: O_15  and  C_12 
ROOT
ATOM      1  C   UNL d   1      32.769  21.417 -21.362  0.00  0.00     0.128 A 
ATOM      2  C   UNL d   1      32.975  21.847 -22.062  0.00  0.00     0.306 A 
ATOM      3  C   UNL d   1      32.730  20.602 -21.396  0.00  0.00     0.013 A 
ATOM      4  O   UNL d   1      33.127  21.429 -22.744  0.00  0.00    -0.273 OA
ATOM      5  C   UNL d   1      32.881  20.204 -22.073  0.00  0.00     0.025 A 
ATOM      6  C   UNL d   1      33.087  20.634 -22.773  0.00  0.00     0.103 A 
ATOM      7  O   UNL d   1      33.018  22.683 -22.037  0.00  0.00    -0.259 OA
ATOM      8  C   UNL d   1      32.843  19.383 -22.111  0.00  0.00     0.026 A 
ATOM      9  C   UNL d   1      33.239  20.210 -23.459  0.00  0.00     0.027 A 
ATOM     10  C   UNL d   1      32.997  18.958 -22.804  0.00  0.00     0.094 A 
ATOM     11  C   UNL d   1      33.203  19.388 -23.504  0.00  0.00     0.026 A 
ENDROOT
BRANCH   1  12
ATOM     12  C   UNL d   1      32.609  21.830 -20.647  0.00  0.00     0.216 C 
ATOM     13  O   UNL d   1      33.214  21.967 -20.108  0.00  0.00    -0.644 OA
ATOM     14  O   UNL d   1      31.835  22.099 -20.488  0.00  0.00    -0.644 OA
ENDBRANCH   1  12
BRANCH  10  15
ATOM     15  O   UNL d   1      32.951  18.130 -22.817  0.00  0.00    -0.328 OA
ATOM     16  C   UNL d   1      32.592  17.743 -23.447  0.00  0.00     0.181 C 
ENDBRANCH  10  15
TORSDOF 2
ENDMDL
MODEL 4
REMARK VINA RESULT:      -2.4      1.693      4.660
REMARK  2 active torsions:
REMARK  status: ('A' for Active; 'I' for Inactive)
REMARK    1  A    between atoms: C_6  and  C_1 
REMARK    2  A    between atoms: O_15  and  C_12 
ROOT
ATOM      1  C   UNL d   1      32.751  17.626 -23.640  0.00  0.00     0.128 A 
ATOM      2  C   UNL d   1      32.821  18.074 -24.356  0.00  0.00     0.306 A 
ATOM      3  C   UNL d   1      32.823  18.012 -22.924  0.00  0.00     0.013 A 
ATOM      4  O   UNL d   1      32.958  18.875 -24.302  0.00  0.00    -0.273 OA
ATOM      5  C   UNL d   1      32.958  18.800 -22.885  0.00  0.00     0.025 A 
ATOM      6  C   UNL d   1      33.028  19.248 -23.600  0.00  0.00     0.103 A 
ATOM      7  O   UNL d   1      32.748  17.688 -25.095  0.00  0.00    -0.259 OA
ATOM      8  C   UNL d   1      33.031  19.191 -22.165  0.00  0.00     0.026 A 
ATOM      9  C   UNL d   1      33.166  20.054 -23.543  0.00  0.00     0.027 A 
ATOM     10  C   UNL d   1      33.171  20.005 -22.109  0.00  0.00     0.094 A 
ATOM     11  C   UNL d   1      33.241  20.453 -22.825  0.00  0.00     0.026 A 
ENDROOT
BRANCH   1  12
ATOM     12  C   UNL d   1      32.609  16.798 -23.675  0.00  0.00     0.216 C 
ATOM     13  O   UNL d   1      33.219  16.285 -23.876  0.00  0.00    -0.644 OA
ATOM     14  O   UNL d   1      31.848  16.501 -23.506  0.00  0.00    -0.644 OA
ENDBRANCH   1  12
BRANCH  10  15
ATOM     15  O   UNL d   1      33.241  20.378 -21.372  0.00  0.00    -0.328 OA
ATOM     16  C   UNL d   1      32.860  21.092 -21.228  0.00  0.00     0.181 C 
ENDBRANCH  10  15
TORSDOF 2
ENDMDL
MODEL 5
REMARK VINA RESULT:      -2.1      0.977      3.689
REMARK  2 active torsions:
REMARK  status: ('A' for Active; 'I' for Inactive)
REMARK    1  A    between atoms: C_6  and  C_1 
REMARK    2  A    between atoms: O_15  and  C_12 
ROOT
ATOM      1  C   UNL d   1      32.869  19.054 -23.275  0.00  0.00     0.128 A 
ATOM      2  C   UNL d   1      33.107  18.518 -22.664  0.00  0.00     0.306 A 
ATOM      3  C   UNL d   1      32.766  19.843 -23.090  0.00  0.00     0.013 A 
ATOM      4  O   UNL d   1      33.225  18.811 -21.913  0.00  0.00    -0.273 OA
ATOM      5  C   UNL d   1      32.885  20.118 -22.348  0.00  0.00     0.025 A 
ATOM      6  C   UNL d   1      33.123  19.582 -21.737  0.00  0.00     0.103 A 
ATOM      7  O   UNL d   1      33.216  17.707 -22.843  0.00  0.00    -0.259 OA
ATOM      8  C   UNL d   1      32.782  20.912 -22.159  0.00  0.00     0.026 A 
ATOM      9  C   UNL d   1      33.241  19.880 -20.982  0.00  0.00     0.027 A 
ATOM     10  C   UNL d   1      32.901  21.211 -21.396  0.00  0.00     0.094 A 
ATOM     11  C   UNL d   1      33.140  20.675 -20.785  0.00  0.00     0.026 A 
ENDROOT
BRANCH   1  12
ATOM     12  C   UNL d   1      32.743  18.771 -24.056  0.00  0.00     0.216 C 
ATOM     13  O   UNL d   1      32.133  18.240 -24.207  0.00  0.00    -0.644 OA
ATOM     14  O   UNL d   1      33.237  19.030 -24.676  0.00  0.00    -0.644 OA
ENDBRANCH   1  12
BRANCH  10  15
ATOM     15  O   UNL d   1      32.791  22.015 -21.230  0.00  0.00    -0.328 OA
ATOM     16  C   UNL d   1      32.789  22.283 -20.453  0.00  0.00     0.181 C 
ENDBRANCH  10  15
TORSDOF 2
ENDMDL
MODEL 6
REMARK VINA RESULT:      -1.9      1.754      2.780
REMARK  2 active torsions:
REMARK  status: ('A' for Active; 'I' for Inactive)
REMARK    1  A    between atoms: C_6  and  C_1 
REMARK    2  A    between atoms: O_15  and  C_12 
ROOT
ATOM      1  C   UNL d   1      32.740  22.719 -20.833  0.00  0.00     0.128 A 
ATOM      2  C   UNL d   1      32.921  21.899 -20.947  0.00  0.00     0.306 A 
ATOM      3  C   UNL d   1      32.735  23.216 -21.481  0.00  0.00     0.013 A 
ATOM      4  O   UNL d   1      33.084  21.638 -21.701  0.00  0.00    -0.273 OA
ATOM      5  C   UNL d   1      32.896  22.947 -22.217  0.00  0.00     0.025 A 
ATOM      6  C   UNL d   1      33.078  22.127 -22.331  0.00  0.00     0.103 A 
ATOM      7  O   UNL d   1      32.929  21.381 -20.289  0.00  0.00    -0.259 OA
ATOM      8  C   UNL d   1      32.892  23.445 -22.871  0.00  0.00     0.026 A 
ATOM      9  C   UNL d   1      33.241  21.867 -23.092  0.00  0.00     0.027 A 
ATOM     10  C   UNL d   1      33.057  23.181 -23.637  0.00  0.00     0.094 A 
ATOM     11  C   UNL d   1      33.238  22.361 -23.752  0.00  0.00     0.026 A 
ENDROOT
BRANCH   1  12
ATOM     12  C   UNL d   1      32.570  23.008 -20.062  0.00  0.00     0.216 C 
ATOM     13  O   UNL d   1      31.790  23.062 -19.807  0.00  0.00    -0.644 OA
ATOM     14  O   UNL d   1      33.193  23.238 -19.559  0.00  0.00    -0.644 OA
ENDBRANCH   1  12
BRANCH  10  15
ATOM     15  O   UNL d   1      33.047  23.702 -24.282  0.00  0.00    -0.328 OA
ATOM     16  C   UNL d   1      32.719  23.471 -25.000  0.00  0.00     0.181 C 
ENDBRANCH  10  15
TORSDOF 2
ENDMDL
MODEL 7
REMARK VINA RESULT:      -1.5      2.652      4.446
REMARK  2 active torsions:
REMARK  status: ('A' for Active; 'I' for Inactive)
REMARK    1  A    between atoms: C_6  and  C_1 
REMARK    2  A    between atoms: O_15  and  C_12 
ROOT
ATOM      1  C   UNL d   1      32.570  18.846 -23.333  0.00  0.00     0.128 A 
ATOM      2  C   UNL d   1      32.828  18.987 -24.128  0.00  0.00     0.306 A 
ATOM      3  C   UNL d   1      32.168  18.155 -23.166  0.00  0.00     0.013 A 
ATOM      4  O   UNL d   1      32.665  18.427 -24.695  0.00  0.00    -0.273 OA
ATOM      5  C   UNL d   1      32.014  17.613 -23.733  0.00  0.00     0.025 A 
ATOM      6  C   UNL d   1      32.272  17.754 -24.528  0.00  0.00     0.103 A 
ATOM      7  O   UNL d   1      33.241  19.693 -24.309  0.00  0.00    -0.259 OA
ATOM      8  C   UNL d   1      31.609  16.915 -23.568  0.00  0.00     0.026 A 
ATOM      9  C   UNL d   1      32.107  17.187 -25.097  0.00  0.00     0.027 A 
ATOM     10  C   UNL d   1      31.444  16.345 -24.144  0.00  0.00     0.094 A 
ATOM     11  C   UNL d   1      31.702  16.487 -24.938  0.00  0.00     0.026 A 
ENDROOT
BRANCH   1  12
ATOM     12  C   UNL d   1      32.728  19.413 -22.733  0.00  0.00     0.216 C 
ATOM     13  O   UNL d   1      33.165  19.198 -22.071  0.00  0.00    -0.644 OA
ATOM     14  O   UNL d   1      32.442  20.192 -22.813  0.00  0.00    -0.644 OA
ENDBRANCH   1  12
BRANCH  10  15
ATOM     15  O   UNL d   1      31.034  15.650 -23.953  0.00  0.00    -0.328 OA
ATOM     16  C   UNL d   1      30.248  15.556 -24.173  0.00  0.00     0.181 C 
ENDBRANCH  10  15
TORSDOF 2
ENDMDL
MODEL 8
REMARK VINA RESULT:      -0.1      1.428      2.195
REMARK  2 active torsions:
REMARK  status: ('A' for Active; 'I' for Inactive)
REMARK    1  A    between atoms: C_6  and  C_1 
REMARK    2  A    between atoms: O_15  and  C_12 
ROOT
ATOM      1  C   UNL d   1      32.507  22.269 -20.917  0.00  0.00     0.128 A 
ATOM      2  C   UNL d   1      32.744  23.058 -21.114  0.00  0.00     0.306 A 
ATOM      3  C   UNL d   1      32.521  21.696 -21.498  0.00  0.00     0.013 A 
ATOM      4  O   UNL d   1      32.977  23.215 -21.878  0.00  0.00    -0.273 OA
ATOM      5  C   UNL d   1      32.752  21.864 -22.246  0.00  0.00     0.025 A 
ATOM      6  C   UNL d   1      32.989  22.653 -22.443  0.00  0.00     0.103 A 
ATOM      7  O   UNL d   1      32.733  23.653 -20.525  0.00  0.00    -0.259 OA
ATOM      8  C   UNL d   1      32.768  21.288 -22.834  0.00  0.00     0.026 A 
ATOM      9  C   UNL d   1      33.223  22.808 -23.214  0.00  0.00     0.027 A 
ATOM     10  C   UNL d   1      33.004  21.447 -23.611  0.00  0.00     0.094 A 
ATOM     11  C   UNL d   1      33.241  22.236 -23.808  0.00  0.00     0.026 A 
ENDROOT
BRANCH   1  12
ATOM     12  C   UNL d   1      32.264  22.087 -20.133  0.00  0.00     0.216 C 
ATOM     13  O   UNL d   1      32.821  22.035 -19.531  0.00  0.00    -0.644 OA
ATOM     14  O   UNL d   1      31.455  21.959 -19.970  0.00  0.00    -0.644 OA
ENDBRANCH   1  12
BRANCH  10  15
ATOM     15  O   UNL d   1      33.011  20.850 -24.187  0.00  0.00    -0.328 OA
ATOM     16  C   UNL d   1      33.241  21.019 -24.958  0.00  0.00     0.181 C 
ENDBRANCH  10  15
TORSDOF 2
ENDMDL
