MODEL 1
REMARK VINA RESULT:      33.5      0.000      0.000
REMARK  6 active torsions:
REMARK  status: ('A' for Active; 'I' for Inactive)
REMARK       I    between atoms: N_2  and  C_4 
REMARK    1  A    between atoms: C_6  and  N_2 
REMARK    2  A    between atoms: C_12  and  C_3 
REMARK    3  A    between atoms: C_4  and  C_11 
REMARK    4  A    between atoms: O_13  and  C_9 
REMARK    5  A    between atoms: C_11  and  C_12 
REMARK    6  A    between atoms: C_17  and  O_13 
ROOT
ATOM      1  N   UNL d   1      58.334  49.673  49.760  0.00  0.00    -0.206 NA
ATOM      2  C   UNL d   1      59.129  49.685  49.978  0.00  0.00     0.279 C 
ATOM      3  O   UNL d   1      59.714  49.675  49.402  0.00  0.00    -0.265 OA
ENDROOT
BRANCH   1   4
ATOM      4  C   UNL d   1      57.746  49.683  50.347  0.00  0.00     0.107 A 
ATOM      5  C   UNL d   1      56.952  49.692  50.130  0.00  0.00     0.118 A 
ATOM      6  C   UNL d   1      56.371  49.702  50.706  0.00  0.00     0.026 A 
ATOM      7  C   UNL d   1      56.578  49.704  51.511  0.00  0.00     0.002 A 
ATOM      8  C   UNL d   1      57.377  49.696  51.729  0.00  0.00     0.002 A 
ATOM      9  C   UNL d   1      57.966  49.685  51.142  0.00  0.00     0.021 A 
BRANCH   5  10
ATOM     10  O   UNL d   1      56.751  49.690  49.332  0.00  0.00    -0.304 OA
BRANCH  10  11
ATOM     11  C   UNL d   1      56.733  48.986  48.908  0.00  0.00     0.123 C 
ATOM     12  C   UNL d   1      56.131  48.438  49.031  0.00  0.00     0.029 C 
ENDBRANCH  10  11
ENDBRANCH   5  10
ENDBRANCH   1   4
BRANCH   2  13
ATOM     13  C   UNL d   1      59.344  49.708  50.774  0.00  0.00     0.065 C 
BRANCH  13  14
ATOM     14  C   UNL d   1      60.136  49.690  50.988  0.00  0.00     0.030 C 
BRANCH  14  15
ATOM     15  C   UNL d   1      60.535  48.968  51.047  0.00  0.00     0.100 A 
ATOM     16  O   UNL d   1      60.758  48.576  51.741  0.00  0.00    -0.307 OA
ATOM     17  C   UNL d   1      61.140  47.883  51.539  0.00  0.00     0.100 A 
ATOM     18  C   UNL d   1      61.159  47.836  50.712  0.00  0.00     0.027 A 
ATOM     19  C   UNL d   1      61.449  47.330  52.059  0.00  0.00     0.027 C 
ATOM     20  C   UNL d   1      60.786  48.506  50.408  0.00  0.00     0.027 A 
ENDBRANCH  14  15
ENDBRANCH  13  14
ENDBRANCH   2  13
TORSDOF 6
ENDMDL
