MODEL 1
REMARK VINA RESULT:       0.7      0.000      0.000
REMARK  1 active torsions:
REMARK  status: ('A' for Active; 'I' for Inactive)
REMARK    1  A    between atoms: C_2  and  N_1 
ROOT
ATOM      1  C   UNL d   1      46.517 -19.216  41.985  0.00  0.00     0.130 A 
ATOM      2  C   UNL d   1      46.493 -18.463  42.250  0.00  0.00     0.067 A 
ATOM      3  C   UNL d   1      46.513 -18.295  43.063  0.00  0.00     0.215 A 
ATOM      4  C   UNL d   1      46.558 -18.916  43.605  0.00  0.00     0.120 A 
ATOM      5  C   UNL d   1      46.562 -19.854  42.514  0.00  0.00     0.025 A 
ATOM      6  C   UNL d   1      46.582 -19.709  43.326  0.00  0.00     0.022 A 
ATOM      7  N   UNL d   1      46.578 -18.768  44.412  0.00  0.00    -0.241 NA
ATOM      8  O   UNL d   1      46.489 -17.522  43.336  0.00  0.00    -0.285 OA
ATOM      9  C   UNL d   1      46.627 -20.327  43.863  0.00  0.00     0.003 A 
ATOM     10  C   UNL d   1      46.623 -19.407  44.942  0.00  0.00     0.099 A 
ATOM     11  C   UNL d   1      46.647 -20.159  44.677  0.00  0.00     0.021 A 
ENDROOT
BRANCH   1  12
ATOM     12  N   UNL d   1      46.495 -19.328  41.176  0.00  0.00    -0.114 N 
ATOM     13  O   UNL d   1      46.321 -18.687  40.685  0.00  0.00    -0.532 OA
ATOM     14  O   UNL d   1      46.644 -20.069  40.870  0.00  0.00    -0.532 OA
ENDBRANCH   1  12
TORSDOF 1
ENDMDL
