MODEL 1
REMARK VINA RESULT:      49.6      0.000      0.000
REMARK  4 active torsions:
REMARK  status: ('A' for Active; 'I' for Inactive)
REMARK    1  A    between atoms: C_6  and  C_1 
REMARK    2  A    between atoms: C_3  and  C_5 
REMARK    3  A    between atoms: C_5  and  C_6 
REMARK    4  A    between atoms: C_17  and  C_13 
ROOT
ATOM      1  C   UNL d   1     -51.171  25.170  33.369  0.00  0.00     0.202 C 
ATOM      2  O   UNL d   1     -50.418  24.806  33.349  0.00  0.00    -0.286 OA
ENDROOT
BRANCH   1   3
ATOM      3  C   UNL d   1     -51.850  24.678  33.454  0.00  0.00     0.078 A 
ATOM      4  C   UNL d   1     -51.741  23.833  33.430  0.00  0.00     0.202 A 
ATOM      5  C   UNL d   1     -52.406  23.353  33.513  0.00  0.00     0.084 A 
ATOM      6  O   UNL d   1     -50.987  23.515  33.327  0.00  0.00    -0.286 OA
ATOM      7  C   UNL d   1     -53.151  23.673  33.615  0.00  0.00     0.199 A 
ATOM      8  C   UNL d   1     -53.257  24.504  33.637  0.00  0.00     0.039 A 
ATOM      9  O   UNL d   1     -53.826  23.191  33.699  0.00  0.00    -0.286 OA
ATOM     10  C   UNL d   1     -52.595  25.008  33.555  0.00  0.00     0.010 A 
BRANCH   8  11
ATOM     11  C   UNL d   1     -54.008  24.832  33.740  0.00  0.00     0.003 C 
ATOM     12  C   UNL d   1     -54.668  24.537  33.306  0.00  0.00     0.000 C 
ENDBRANCH   8  11
ENDBRANCH   1   3
BRANCH   1  13
ATOM     13  C   UNL d   1     -51.248  25.990  33.309  0.00  0.00     0.081 C 
BRANCH  13  14
ATOM     14  C   UNL d   1     -50.636  26.483  33.594  0.00  0.00     0.166 A 
ATOM     15  N   UNL d   1     -50.727  27.247  33.869  0.00  0.00    -0.225 NA
ATOM     16  C   UNL d   1     -49.979  27.526  34.096  0.00  0.00     0.101 A 
ATOM     17  C   UNL d   1     -49.739  28.249  34.408  0.00  0.00     0.021 A 
ATOM     18  C   UNL d   1     -49.435  26.930  33.958  0.00  0.00     0.101 A 
ATOM     19  C   UNL d   1     -48.949  28.393  34.591  0.00  0.00     0.002 A 
ATOM     20  C   UNL d   1     -48.397  27.785  34.450  0.00  0.00     0.002 A 
ATOM     21  C   UNL d   1     -48.638  27.058  34.136  0.00  0.00     0.021 A 
ATOM     22  N   UNL d   1     -49.826  26.279  33.649  0.00  0.00    -0.225 NA
ENDBRANCH  13  14
ENDBRANCH   1  13
TORSDOF 4
ENDMDL
