MODEL 1
REMARK VINA RESULT:      18.3      0.000      0.000
REMARK  1 active torsions:
REMARK  status: ('A' for Active; 'I' for Inactive)
REMARK    1  A    between atoms: C_2  and  C_1 
ROOT
ATOM      1  C   UNL d   1     -57.639 -98.760 -44.271  0.00  0.00     0.089 A 
ATOM      2  C   UNL d   1     -57.579 -98.762 -45.090  0.00  0.00     0.302 A 
ATOM      3  C   UNL d   1     -56.953 -98.758 -43.800  0.00  0.00     0.009 A 
ATOM      4  O   UNL d   1     -56.834 -98.763 -45.447  0.00  0.00    -0.273 OA
ATOM      5  C   UNL d   1     -56.210 -98.759 -44.168  0.00  0.00     0.023 A 
ATOM      6  C   UNL d   1     -56.151 -98.761 -44.986  0.00  0.00     0.103 A 
ATOM      7  O   UNL d   1     -58.273 -98.763 -45.541  0.00  0.00    -0.259 OA
ATOM      8  C   UNL d   1     -55.527 -98.757 -43.697  0.00  0.00     0.002 A 
ATOM      9  C   UNL d   1     -55.407 -98.762 -45.344  0.00  0.00     0.025 A 
ATOM     10  C   UNL d   1     -54.785 -98.758 -44.064  0.00  0.00     0.000 A 
ATOM     11  C   UNL d   1     -54.726 -98.760 -44.883  0.00  0.00     0.002 A 
ENDROOT
BRANCH   1  12
ATOM     12  C   UNL d   1     -58.391 -98.759 -43.915  0.00  0.00     0.140 A 
ATOM     13  S   UNL d   1     -58.642 -98.757 -43.132  0.00  0.00    -0.024 SA
ATOM     14  C   UNL d   1     -59.457 -98.757 -43.133  0.00  0.00     0.236 A 
ATOM     15  N   UNL d   1     -59.960 -98.755 -42.464  0.00  0.00    -0.118 N 
ATOM     16  N   UNL d   1     -59.724 -98.760 -43.895  0.00  0.00    -0.119 NA
ATOM     17  N   UNL d   1     -59.071 -98.761 -44.393  0.00  0.00    -0.139 NA
ENDBRANCH   1  12
TORSDOF 1
ENDMDL
