MODEL 1
REMARK VINA RESULT:      -8.1      0.000      0.000
REMARK  4 active torsions:
REMARK  status: ('A' for Active; 'I' for Inactive)
REMARK    1  A    between atoms: S_6  and  C_1 
REMARK    2  A    between atoms: C_14  and  N_2 
REMARK    3  A    between atoms: C_7  and  S_6 
REMARK    4  A    between atoms: O_18  and  C_16 
ROOT
ATOM      1  C   UNL d   1      53.103  32.454  53.862  0.00  0.00     0.114 A 
ATOM      2  N   UNL d   1      52.298  32.544  53.705  0.00  0.00    -0.239 NA
ATOM      3  C   UNL d   1      52.020  33.285  53.493  0.00  0.00     0.084 A 
ATOM      4  C   UNL d   1      52.523  33.916  53.437  0.00  0.00     0.018 A 
ATOM      5  C   UNL d   1      53.324  33.830  53.593  0.00  0.00     0.004 A 
ATOM      6  C   UNL d   1      51.212  33.377  53.335  0.00  0.00     0.043 A 
ATOM      7  C   UNL d   1      53.606  33.085  53.807  0.00  0.00     0.026 A 
ATOM      8  C   UNL d   1      52.237  34.664  53.222  0.00  0.00     0.004 A 
ATOM      9  C   UNL d   1      50.933  34.119  53.122  0.00  0.00     0.096 A 
ATOM     10  C   UNL d   1      51.436  34.750  53.066  0.00  0.00     0.024 A 
ATOM     11  C   UNL d   1      53.833  34.469  53.537  0.00  0.00     0.000 C 
ENDROOT
BRANCH   1  12
ATOM     12  S   UNL d   1      53.502  31.737  54.090  0.00  0.00    -0.028 SA
BRANCH  12  13
ATOM     13  C   UNL d   1      53.252  31.340  53.349  0.00  0.00     0.220 A 
ATOM     14  N   UNL d   1      53.110  30.512  53.233  0.00  0.00    -0.186 N 
ATOM     15  N   UNL d   1      52.890  30.416  52.448  0.00  0.00    -0.038 NA
ATOM     16  N   UNL d   1      52.889  31.176  52.062  0.00  0.00    -0.022 NA
ATOM     17  N   UNL d   1      53.114  31.732  52.631  0.00  0.00    -0.101 NA
BRANCH  14  18
ATOM     18  C   UNL d   1      53.183  29.910  53.811  0.00  0.00     0.087 A 
ATOM     19  C   UNL d   1      53.923  29.507  53.875  0.00  0.00     0.019 A 
ATOM     20  C   UNL d   1      54.029  28.879  54.463  0.00  0.00     0.002 A 
ATOM     21  C   UNL d   1      53.383  28.687  54.960  0.00  0.00     0.000 A 
ATOM     22  C   UNL d   1      52.622  29.096  54.901  0.00  0.00     0.002 A 
ATOM     23  C   UNL d   1      52.563  29.705  54.309  0.00  0.00     0.019 A 
ENDBRANCH  14  18
ENDBRANCH  12  13
ENDBRANCH   1  12
BRANCH   9  24
ATOM     24  O   UNL d   1      50.132  34.205  52.967  0.00  0.00    -0.328 OA
ATOM     25  C   UNL d   1      49.883  34.456  52.236  0.00  0.00     0.181 C 
ENDBRANCH   9  24
TORSDOF 4
ENDMDL
MODEL 2
REMARK VINA RESULT:      -7.7      2.100      4.516
REMARK  4 active torsions:
REMARK  status: ('A' for Active; 'I' for Inactive)
REMARK    1  A    between atoms: S_6  and  C_1 
REMARK    2  A    between atoms: C_14  and  N_2 
REMARK    3  A    between atoms: C_7  and  S_6 
REMARK    4  A    between atoms: O_18  and  C_16 
ROOT
ATOM      1  C   UNL d   1      51.874  32.962  53.440  0.00  0.00     0.114 A 
ATOM      2  N   UNL d   1      52.332  33.504  53.861  0.00  0.00    -0.239 NA
ATOM      3  C   UNL d   1      53.084  33.280  54.098  0.00  0.00     0.084 A 
ATOM      4  C   UNL d   1      53.372  32.544  53.924  0.00  0.00     0.018 A 
ATOM      5  C   UNL d   1      52.919  32.004  53.506  0.00  0.00     0.004 A 
ATOM      6  C   UNL d   1      53.547  33.822  54.522  0.00  0.00     0.043 A 
ATOM      7  C   UNL d   1      52.162  32.227  53.266  0.00  0.00     0.026 A 
ATOM      8  C   UNL d   1      54.134  32.323  54.166  0.00  0.00     0.004 A 
ATOM      9  C   UNL d   1      54.300  33.599  54.759  0.00  0.00     0.096 A 
ATOM     10  C   UNL d   1      54.588  32.863  54.585  0.00  0.00     0.024 A 
ATOM     11  C   UNL d   1      53.210  31.259  53.329  0.00  0.00     0.000 C 
ENDROOT
BRANCH   1  12
ATOM     12  S   UNL d   1      51.085  33.083  53.145  0.00  0.00    -0.028 SA
BRANCH  12  13
ATOM     13  C   UNL d   1      51.384  33.593  52.497  0.00  0.00     0.220 A 
ATOM     14  N   UNL d   1      50.967  34.214  52.097  0.00  0.00    -0.186 N 
ATOM     15  N   UNL d   1      51.481  34.523  51.537  0.00  0.00    -0.038 NA
ATOM     16  N   UNL d   1      52.223  34.105  51.576  0.00  0.00    -0.022 NA
ATOM     17  N   UNL d   1      52.145  33.537  52.171  0.00  0.00    -0.101 NA
BRANCH  14  18
ATOM     18  C   UNL d   1      50.181  34.460  52.247  0.00  0.00     0.087 A 
ATOM     19  C   UNL d   1      49.586  34.262  51.680  0.00  0.00     0.019 A 
ATOM     20  C   UNL d   1      48.763  34.504  51.808  0.00  0.00     0.002 A 
ATOM     21  C   UNL d   1      48.579  34.934  52.502  0.00  0.00     0.000 A 
ATOM     22  C   UNL d   1      49.183  35.140  53.088  0.00  0.00     0.002 A 
ATOM     23  C   UNL d   1      49.976  34.882  52.921  0.00  0.00     0.019 A 
ENDBRANCH  14  18
ENDBRANCH  12  13
ENDBRANCH   1  12
BRANCH   9  24
ATOM     24  O   UNL d   1      54.753  34.139  55.178  0.00  0.00    -0.328 OA
ATOM     25  C   UNL d   1      55.563  34.084  55.172  0.00  0.00     0.181 C 
ENDBRANCH   9  24
TORSDOF 4
ENDMDL
MODEL 3
REMARK VINA RESULT:      -7.6      2.099      2.818
REMARK  4 active torsions:
REMARK  status: ('A' for Active; 'I' for Inactive)
REMARK    1  A    between atoms: S_6  and  C_1 
REMARK    2  A    between atoms: C_14  and  N_2 
REMARK    3  A    between atoms: C_7  and  S_6 
REMARK    4  A    between atoms: O_18  and  C_16 
ROOT
ATOM      1  C   UNL d   1      52.143  34.196  52.737  0.00  0.00     0.114 A 
ATOM      2  N   UNL d   1      51.693  34.093  52.053  0.00  0.00    -0.239 NA
ATOM      3  C   UNL d   1      50.890  34.254  52.084  0.00  0.00     0.084 A 
ATOM      4  C   UNL d   1      50.544  34.507  52.770  0.00  0.00     0.018 A 
ATOM      5  C   UNL d   1      50.988  34.610  53.451  0.00  0.00     0.004 A 
ATOM      6  C   UNL d   1      50.435  34.151  51.398  0.00  0.00     0.043 A 
ATOM      7  C   UNL d   1      51.797  34.450  53.423  0.00  0.00     0.026 A 
ATOM      8  C   UNL d   1      49.731  34.668  52.796  0.00  0.00     0.004 A 
ATOM      9  C   UNL d   1      49.631  34.312  51.428  0.00  0.00     0.096 A 
ATOM     10  C   UNL d   1      49.286  34.565  52.114  0.00  0.00     0.024 A 
ATOM     11  C   UNL d   1      50.638  34.867  54.145  0.00  0.00     0.000 C 
ENDROOT
BRANCH   1  12
ATOM     12  S   UNL d   1      52.979  34.061  52.822  0.00  0.00    -0.028 SA
BRANCH  12  13
ATOM     13  C   UNL d   1      52.852  33.197  52.898  0.00  0.00     0.220 A 
ATOM     14  N   UNL d   1      53.249  32.663  53.424  0.00  0.00    -0.186 N 
ATOM     15  N   UNL d   1      52.938  31.917  53.286  0.00  0.00    -0.038 NA
ATOM     16  N   UNL d   1      52.344  31.969  52.676  0.00  0.00    -0.022 NA
ATOM     17  N   UNL d   1      52.305  32.763  52.449  0.00  0.00    -0.101 NA
BRANCH  14  18
ATOM     18  C   UNL d   1      53.845  32.864  53.977  0.00  0.00     0.087 A 
ATOM     19  C   UNL d   1      53.681  32.749  54.799  0.00  0.00     0.019 A 
ATOM     20  C   UNL d   1      54.277  32.948  55.395  0.00  0.00     0.002 A 
ATOM     21  C   UNL d   1      55.013  33.252  55.135  0.00  0.00     0.000 A 
ATOM     22  C   UNL d   1      55.188  33.372  54.296  0.00  0.00     0.002 A 
ATOM     23  C   UNL d   1      54.573  33.164  53.746  0.00  0.00     0.019 A 
ENDBRANCH  14  18
ENDBRANCH  12  13
ENDBRANCH   1  12
BRANCH   9  24
ATOM     24  O   UNL d   1      49.187  34.209  50.747  0.00  0.00    -0.328 OA
ATOM     25  C   UNL d   1      48.461  34.564  50.676  0.00  0.00     0.181 C 
ENDBRANCH   9  24
TORSDOF 4
ENDMDL
MODEL 4
REMARK VINA RESULT:      -7.3      1.723      4.442
REMARK  4 active torsions:
REMARK  status: ('A' for Active; 'I' for Inactive)
REMARK    1  A    between atoms: S_6  and  C_1 
REMARK    2  A    between atoms: C_14  and  N_2 
REMARK    3  A    between atoms: C_7  and  S_6 
REMARK    4  A    between atoms: O_18  and  C_16 
ROOT
ATOM      1  C   UNL d   1      52.141  33.488  53.731  0.00  0.00     0.114 A 
ATOM      2  N   UNL d   1      52.079  32.741  53.388  0.00  0.00    -0.239 NA
ATOM      3  C   UNL d   1      52.695  32.210  53.490  0.00  0.00     0.084 A 
ATOM      4  C   UNL d   1      53.351  32.414  53.918  0.00  0.00     0.018 A 
ATOM      5  C   UNL d   1      53.415  33.156  54.260  0.00  0.00     0.004 A 
ATOM      6  C   UNL d   1      52.635  31.458  53.146  0.00  0.00     0.043 A 
ATOM      7  C   UNL d   1      52.797  33.692  54.159  0.00  0.00     0.026 A 
ATOM      8  C   UNL d   1      53.972  31.874  54.018  0.00  0.00     0.004 A 
ATOM      9  C   UNL d   1      53.252  30.927  53.248  0.00  0.00     0.096 A 
ATOM     10  C   UNL d   1      53.908  31.130  53.676  0.00  0.00     0.024 A 
ATOM     11  C   UNL d   1      54.079  33.363  54.692  0.00  0.00     0.000 C 
ENDROOT
BRANCH   1  12
ATOM     12  S   UNL d   1      51.567  34.117  53.692  0.00  0.00    -0.028 SA
BRANCH  12  13
ATOM     13  C   UNL d   1      51.718  34.228  52.835  0.00  0.00     0.220 A 
ATOM     14  N   UNL d   1      51.155  34.440  52.238  0.00  0.00    -0.186 N 
ATOM     15  N   UNL d   1      51.565  34.475  51.527  0.00  0.00    -0.038 NA
ATOM     16  N   UNL d   1      52.385  34.288  51.667  0.00  0.00    -0.022 NA
ATOM     17  N   UNL d   1      52.460  34.139  52.476  0.00  0.00    -0.101 NA
BRANCH  14  18
ATOM     18  C   UNL d   1      50.339  34.584  52.354  0.00  0.00     0.087 A 
ATOM     19  C   UNL d   1      49.792  34.247  51.804  0.00  0.00     0.019 A 
ATOM     20  C   UNL d   1      48.941  34.378  51.898  0.00  0.00     0.002 A 
ATOM     21  C   UNL d   1      48.679  34.844  52.543  0.00  0.00     0.000 A 
ATOM     22  C   UNL d   1      49.233  35.192  53.110  0.00  0.00     0.002 A 
ATOM     23  C   UNL d   1      50.059  35.037  52.979  0.00  0.00     0.019 A 
ENDBRANCH  14  18
ENDBRANCH  12  13
ENDBRANCH   1  12
BRANCH   9  24
ATOM     24  O   UNL d   1      53.188  30.184  52.906  0.00  0.00    -0.328 OA
ATOM     25  C   UNL d   1      52.956  29.548  53.353  0.00  0.00     0.181 C 
ENDBRANCH   9  24
TORSDOF 4
ENDMDL
MODEL 5
REMARK VINA RESULT:      -7.2      1.992      4.534
REMARK  4 active torsions:
REMARK  status: ('A' for Active; 'I' for Inactive)
REMARK    1  A    between atoms: S_6  and  C_1 
REMARK    2  A    between atoms: C_14  and  N_2 
REMARK    3  A    between atoms: C_7  and  S_6 
REMARK    4  A    between atoms: O_18  and  C_16 
ROOT
ATOM      1  C   UNL d   1      53.699  32.298  53.424  0.00  0.00     0.114 A 
ATOM      2  N   UNL d   1      53.973  31.574  53.709  0.00  0.00    -0.239 NA
ATOM      3  C   UNL d   1      53.491  30.915  53.633  0.00  0.00     0.084 A 
ATOM      4  C   UNL d   1      52.762  30.973  53.287  0.00  0.00     0.018 A 
ATOM      5  C   UNL d   1      52.487  31.691  53.003  0.00  0.00     0.004 A 
ATOM      6  C   UNL d   1      53.764  30.186  53.919  0.00  0.00     0.043 A 
ATOM      7  C   UNL d   1      52.970  32.355  53.078  0.00  0.00     0.026 A 
ATOM      8  C   UNL d   1      52.278  30.303  53.213  0.00  0.00     0.004 A 
ATOM      9  C   UNL d   1      53.282  29.527  53.843  0.00  0.00     0.096 A 
ATOM     10  C   UNL d   1      52.553  29.584  53.497  0.00  0.00     0.024 A 
ATOM     11  C   UNL d   1      51.749  31.749  52.653  0.00  0.00     0.000 C 
ENDROOT
BRANCH   1  12
ATOM     12  S   UNL d   1      54.109  33.044  53.448  0.00  0.00    -0.028 SA
BRANCH  12  13
ATOM     13  C   UNL d   1      54.116  33.035  54.325  0.00  0.00     0.220 A 
ATOM     14  N   UNL d   1      53.877  33.659  54.847  0.00  0.00    -0.186 N 
ATOM     15  N   UNL d   1      53.987  33.383  55.612  0.00  0.00    -0.038 NA
ATOM     16  N   UNL d   1      54.293  32.588  55.583  0.00  0.00    -0.022 NA
ATOM     17  N   UNL d   1      54.366  32.391  54.784  0.00  0.00    -0.101 NA
BRANCH  14  18
ATOM     18  C   UNL d   1      53.586  34.410  54.621  0.00  0.00     0.087 A 
ATOM     19  C   UNL d   1      52.815  34.634  54.885  0.00  0.00     0.019 A 
ATOM     20  C   UNL d   1      52.486  35.406  54.667  0.00  0.00     0.002 A 
ATOM     21  C   UNL d   1      52.951  35.917  54.194  0.00  0.00     0.000 A 
ATOM     22  C   UNL d   1      53.742  35.695  53.921  0.00  0.00     0.002 A 
ATOM     23  C   UNL d   1      54.024  34.928  54.158  0.00  0.00     0.019 A 
ENDBRANCH  14  18
ENDBRANCH  12  13
ENDBRANCH   1  12
BRANCH   9  24
ATOM     24  O   UNL d   1      53.557  28.808  54.127  0.00  0.00    -0.328 OA
ATOM     25  C   UNL d   1      53.382  28.575  54.885  0.00  0.00     0.181 C 
ENDBRANCH   9  24
TORSDOF 4
ENDMDL
MODEL 6
REMARK VINA RESULT:      -7.1      2.275      3.448
REMARK  4 active torsions:
REMARK  status: ('A' for Active; 'I' for Inactive)
REMARK    1  A    between atoms: S_6  and  C_1 
REMARK    2  A    between atoms: C_14  and  N_2 
REMARK    3  A    between atoms: C_7  and  S_6 
REMARK    4  A    between atoms: O_18  and  C_16 
ROOT
ATOM      1  C   UNL d   1      50.920  33.841  52.879  0.00  0.00     0.114 A 
ATOM      2  N   UNL d   1      50.501  34.328  53.397  0.00  0.00    -0.239 NA
ATOM      3  C   UNL d   1      49.861  34.750  53.107  0.00  0.00     0.084 A 
ATOM      4  C   UNL d   1      49.643  34.690  52.330  0.00  0.00     0.018 A 
ATOM      5  C   UNL d   1      50.058  34.207  51.813  0.00  0.00     0.004 A 
ATOM      6  C   UNL d   1      49.438  35.240  53.625  0.00  0.00     0.043 A 
ATOM      7  C   UNL d   1      50.703  33.782  52.102  0.00  0.00     0.026 A 
ATOM      8  C   UNL d   1      48.995  35.119  52.041  0.00  0.00     0.004 A 
ATOM      9  C   UNL d   1      48.797  35.662  53.335  0.00  0.00     0.096 A 
ATOM     10  C   UNL d   1      48.579  35.603  52.558  0.00  0.00     0.024 A 
ATOM     11  C   UNL d   1      49.838  34.148  51.026  0.00  0.00     0.000 C 
ENDROOT
BRANCH   1  12
ATOM     12  S   UNL d   1      51.597  33.360  53.067  0.00  0.00    -0.028 SA
BRANCH  12  13
ATOM     13  C   UNL d   1      52.108  34.069  53.130  0.00  0.00     0.220 A 
ATOM     14  N   UNL d   1      52.875  34.120  53.489  0.00  0.00    -0.186 N 
ATOM     15  N   UNL d   1      53.125  34.897  53.407  0.00  0.00    -0.038 NA
ATOM     16  N   UNL d   1      52.525  35.344  52.999  0.00  0.00    -0.022 NA
ATOM     17  N   UNL d   1      51.908  34.819  52.836  0.00  0.00    -0.101 NA
BRANCH  14  18
ATOM     18  C   UNL d   1      53.293  33.494  53.856  0.00  0.00     0.087 A 
ATOM     19  C   UNL d   1      53.393  33.521  54.695  0.00  0.00     0.019 A 
ATOM     20  C   UNL d   1      53.822  32.887  55.104  0.00  0.00     0.002 A 
ATOM     21  C   UNL d   1      54.129  32.257  54.647  0.00  0.00     0.000 A 
ATOM     22  C   UNL d   1      54.030  32.223  53.787  0.00  0.00     0.002 A 
ATOM     23  C   UNL d   1      53.603  32.866  53.429  0.00  0.00     0.019 A 
ENDBRANCH  14  18
ENDBRANCH  12  13
ENDBRANCH   1  12
BRANCH   9  24
ATOM     24  O   UNL d   1      48.382  36.145  53.851  0.00  0.00    -0.328 OA
ATOM     25  C   UNL d   1      47.670  36.465  53.628  0.00  0.00     0.181 C 
ENDBRANCH   9  24
TORSDOF 4
ENDMDL
