MODEL 1
REMARK VINA RESULT:       0.8      0.000      0.000
REMARK  5 active torsions:
REMARK  status: ('A' for Active; 'I' for Inactive)
REMARK    1  A    between atoms: N_4  and  S_1 
REMARK    2  A    between atoms: C_10  and  S_1 
REMARK    3  A    between atoms: C_2  and  N_9 
REMARK    4  A    between atoms: C_13  and  C_3 
REMARK    5  A    between atoms: C_11  and  C_8 
REMARK       I    between atoms: N_9  and  C_11 
REMARK       I    between atoms: C_15  and  N_12 
ROOT
ATOM      1  N   UNL d   1      58.970   0.486  30.187  0.00  0.00    -0.200 NA
ATOM      2  C   UNL d   1      59.649   0.012  30.190  0.00  0.00     0.296 C 
ATOM      3  O   UNL d   1      59.797  -0.481  30.836  0.00  0.00    -0.264 OA
ENDROOT
BRANCH   1   4
ATOM      4  C   UNL d   1      58.445   0.468  30.823  0.00  0.00     0.119 A 
ATOM      5  C   UNL d   1      57.636   0.345  30.788  0.00  0.00     0.084 A 
ATOM      6  C   UNL d   1      57.329   0.372  31.558  0.00  0.00     0.016 A 
ATOM      7  C   UNL d   1      56.566   0.287  31.854  0.00  0.00     0.020 A 
ATOM      8  C   UNL d   1      57.960   0.512  32.068  0.00  0.00     0.049 A 
ATOM      9  C   UNL d   1      56.434   0.342  32.659  0.00  0.00     0.083 A 
ATOM     10  N   UNL d   1      57.070   0.485  33.181  0.00  0.00    -0.272 N 
ATOM     11  C   UNL d   1      57.830   0.569  32.880  0.00  0.00     0.089 A 
ATOM     12  C   UNL d   1      56.930   0.541  34.003  0.00  0.00     0.265 C 
ATOM     13  O   UNL d   1      57.561   0.681  34.515  0.00  0.00    -0.267 OA
ATOM     14  C   UNL d   1      56.163   0.455  34.298  0.00  0.00     0.066 C 
ATOM     15  S   UNL d   1      58.649   0.572  31.622  0.00  0.00    -0.066 SA
BRANCH   5  16
ATOM     16  C   UNL d   1      57.192   0.216  30.099  0.00  0.00     0.299 C 
ATOM     17  O   UNL d   1      57.314   0.682  29.437  0.00  0.00    -0.264 OA
ATOM     18  N   UNL d   1      56.635  -0.381  30.094  0.00  0.00    -0.102 N 
ENDBRANCH   5  16
ENDBRANCH   1   4
BRANCH   2  19
ATOM     19  C   UNL d   1      60.168   0.031  29.560  0.00  0.00     0.133 A 
ATOM     20  N   UNL d   1      60.336  -0.603  29.047  0.00  0.00    -0.226 N 
ATOM     21  C   UNL d   1      60.896  -0.333  28.488  0.00  0.00     0.092 A 
ATOM     22  C   UNL d   1      61.064   0.453  28.660  0.00  0.00     0.021 A 
ATOM     23  C   UNL d   1      60.619   0.681  29.318  0.00  0.00     0.025 A 
BRANCH  20  24
ATOM     24  S   UNL d   1      60.010  -1.362  29.084  0.00  0.00     0.277 S 
ATOM     25  O   UNL d   1      59.523  -1.154  28.455  0.00  0.00    -0.199 OA
ATOM     26  O   UNL d   1      60.504  -1.568  29.718  0.00  0.00    -0.199 OA
BRANCH  24  27
ATOM     27  C   UNL d   1      59.661  -2.107  29.089  0.00  0.00     0.133 A 
ATOM     28  S   UNL d   1      59.843  -2.727  29.600  0.00  0.00    -0.074 SA
ATOM     29  C   UNL d   1      59.359  -3.371  29.409  0.00  0.00     0.036 A 
ATOM     30  C   UNL d   1      58.877  -3.143  28.775  0.00  0.00     0.008 A 
ATOM     31  C   UNL d   1      59.064  -2.363  28.578  0.00  0.00     0.020 A 
ENDBRANCH  24  27
ENDBRANCH  20  24
ENDBRANCH   2  19
TORSDOF 5
ENDMDL
MODEL 2
REMARK VINA RESULT:       1.4      1.085      1.632
REMARK  5 active torsions:
REMARK  status: ('A' for Active; 'I' for Inactive)
REMARK    1  A    between atoms: N_4  and  S_1 
REMARK    2  A    between atoms: C_10  and  S_1 
REMARK    3  A    between atoms: C_2  and  N_9 
REMARK    4  A    between atoms: C_13  and  C_3 
REMARK    5  A    between atoms: C_11  and  C_8 
REMARK       I    between atoms: N_9  and  C_11 
REMARK       I    between atoms: C_15  and  N_12 
ROOT
ATOM      1  N   UNL d   1      59.322   0.492  30.627  0.00  0.00    -0.200 NA
ATOM      2  C   UNL d   1      59.210   0.081  29.917  0.00  0.00     0.296 C 
ATOM      3  O   UNL d   1      58.488  -0.292  29.773  0.00  0.00    -0.264 OA
ENDROOT
BRANCH   1   4
ATOM      4  C   UNL d   1      58.719   0.529  31.189  0.00  0.00     0.119 A 
ATOM      5  C   UNL d   1      58.806   0.600  32.000  0.00  0.00     0.084 A 
ATOM      6  C   UNL d   1      58.054   0.616  32.349  0.00  0.00     0.016 A 
ATOM      7  C   UNL d   1      57.806   0.679  33.130  0.00  0.00     0.020 A 
ATOM      8  C   UNL d   1      57.501   0.554  31.741  0.00  0.00     0.049 A 
ATOM      9  C   UNL d   1      57.008   0.679  33.305  0.00  0.00     0.083 A 
ATOM     10  N   UNL d   1      56.443   0.617  32.693  0.00  0.00    -0.272 N 
ATOM     11  C   UNL d   1      56.695   0.555  31.914  0.00  0.00     0.089 A 
ATOM     12  C   UNL d   1      55.627   0.618  32.877  0.00  0.00     0.265 C 
ATOM     13  O   UNL d   1      55.074   0.556  32.269  0.00  0.00    -0.267 OA
ATOM     14  C   UNL d   1      55.382   0.681  33.663  0.00  0.00     0.066 C 
ATOM     15  S   UNL d   1      57.904   0.500  31.025  0.00  0.00    -0.066 SA
BRANCH   5  16
ATOM     16  C   UNL d   1      59.526   0.648  32.410  0.00  0.00     0.299 C 
ATOM     17  O   UNL d   1      60.234   0.665  31.999  0.00  0.00    -0.264 OA
ATOM     18  N   UNL d   1      59.515   0.678  33.226  0.00  0.00    -0.102 N 
ENDBRANCH   5  16
ENDBRANCH   1   4
BRANCH   2  19
ATOM     19  C   UNL d   1      59.808   0.045  29.363  0.00  0.00     0.133 A 
ATOM     20  N   UNL d   1      60.069  -0.641  28.971  0.00  0.00    -0.226 N 
ATOM     21  C   UNL d   1      60.688  -0.417  28.456  0.00  0.00     0.092 A 
ATOM     22  C   UNL d   1      60.800   0.393  28.534  0.00  0.00     0.021 A 
ATOM     23  C   UNL d   1      60.261   0.681  29.091  0.00  0.00     0.025 A 
BRANCH  20  24
ATOM     24  S   UNL d   1      59.771  -1.407  29.072  0.00  0.00     0.277 S 
ATOM     25  O   UNL d   1      59.219  -1.241  28.486  0.00  0.00    -0.199 OA
ATOM     26  O   UNL d   1      60.331  -1.569  29.663  0.00  0.00    -0.199 OA
BRANCH  24  27
ATOM     27  C   UNL d   1      59.448  -2.159  29.144  0.00  0.00     0.133 A 
ATOM     28  S   UNL d   1      58.914  -2.513  28.626  0.00  0.00    -0.074 SA
ATOM     29  C   UNL d   1      58.738  -3.269  28.912  0.00  0.00     0.036 A 
ATOM     30  C   UNL d   1      59.167  -3.379  29.612  0.00  0.00     0.008 A 
ATOM     31  C   UNL d   1      59.605  -2.695  29.755  0.00  0.00     0.020 A 
ENDBRANCH  24  27
ENDBRANCH  20  24
ENDBRANCH   2  19
TORSDOF 5
ENDMDL
