MODEL 1
REMARK VINA RESULT:      49.3      0.000      0.000
REMARK  7 active torsions:
REMARK  status: ('A' for Active; 'I' for Inactive)
REMARK    1  A    between atoms: S_7  and  C_1 
REMARK    2  A    between atoms: C_6  and  C_8 
REMARK       I    between atoms: N_10  and  C_6 
REMARK    3  A    between atoms: C_13  and  S_7 
REMARK    4  A    between atoms: C_21  and  N_10 
REMARK    5  A    between atoms: C_14  and  C_13 
REMARK    6  A    between atoms: C_17  and  C_21 
REMARK    7  A    between atoms: C_22  and  C_17 
ROOT
ATOM      1  C   UNL d   1     -47.622  30.015  35.503  0.00  0.00     0.058 A 
ATOM      2  C   UNL d   1     -47.143  29.392  35.287  0.00  0.00     0.005 A 
ATOM      3  C   UNL d   1     -48.452  29.953  35.390  0.00  0.00     0.005 A 
ATOM      4  C   UNL d   1     -48.291  28.640  34.849  0.00  0.00     0.007 A 
ATOM      5  C   UNL d   1     -48.774  29.292  35.075  0.00  0.00     0.001 A 
ATOM      6  C   UNL d   1     -47.473  28.713  34.964  0.00  0.00     0.001 A 
ENDROOT
BRANCH   4   7
ATOM      7  C   UNL d   1     -48.612  27.979  34.534  0.00  0.00     0.038 C 
BRANCH   7   8
ATOM      8  S   UNL d   1     -49.181  28.036  33.915  0.00  0.00    -0.048 SA
BRANCH   8   9
ATOM      9  C   UNL d   1     -49.709  27.409  33.772  0.00  0.00     0.194 A 
ATOM     10  N   UNL d   1     -49.496  26.614  33.704  0.00  0.00    -0.220 NA
ATOM     11  C   UNL d   1     -50.181  26.189  33.564  0.00  0.00     0.101 A 
ATOM     12  C   UNL d   1     -50.326  25.399  33.450  0.00  0.00     0.021 A 
ATOM     13  C   UNL d   1     -50.811  26.723  33.547  0.00  0.00     0.101 A 
ATOM     14  C   UNL d   1     -51.064  25.140  33.324  0.00  0.00     0.002 A 
ATOM     15  C   UNL d   1     -51.694  25.674  33.307  0.00  0.00     0.002 A 
ATOM     16  C   UNL d   1     -51.587  26.468  33.416  0.00  0.00     0.021 A 
ATOM     17  N   UNL d   1     -50.509  27.473  33.676  0.00  0.00    -0.220 NA
ENDBRANCH   8   9
ENDBRANCH   7   8
ENDBRANCH   4   7
BRANCH   1  18
ATOM     18  C   UNL d   1     -47.261  30.686  35.825  0.00  0.00     0.279 C 
ATOM     19  O   UNL d   1     -46.901  30.630  36.568  0.00  0.00    -0.265 OA
ATOM     20  N   UNL d   1     -47.256  31.403  35.419  0.00  0.00    -0.206 NA
BRANCH  20  21
ATOM     21  C   UNL d   1     -47.613  31.463  34.680  0.00  0.00     0.106 C 
BRANCH  21  22
ATOM     22  C   UNL d   1     -47.407  32.083  34.166  0.00  0.00     0.066 C 
BRANCH  22  23
ATOM     23  C   UNL d   1     -47.938  32.690  34.024  0.00  0.00     0.236 C 
ATOM     24  O   UNL d   1     -47.706  33.354  33.587  0.00  0.00    -0.283 OA
ENDBRANCH  22  23
ENDBRANCH  21  22
ENDBRANCH  20  21
ENDBRANCH   1  18
TORSDOF 7
ENDMDL
