MODEL 1
REMARK VINA RESULT:      17.0      0.000      0.000
REMARK  2 active torsions:
REMARK  status: ('A' for Active; 'I' for Inactive)
REMARK    1  A    between atoms: C_3  and  C_1 
REMARK       I    between atoms: N_6  and  C_3 
REMARK    2  A    between atoms: C_12  and  N_6 
ROOT
ATOM      1  C   UNL d   1      14.632  11.945  -1.313  0.00  0.00     0.008 A 
ATOM      2  S   UNL d   1      14.409  11.899  -0.017  0.00  0.00    -0.086 SA
ATOM      3  C   UNL d   1      14.049  11.881  -0.742  0.00  0.00     0.030 A 
ATOM      4  C   UNL d   1      15.199  11.972  -0.128  0.00  0.00     0.035 A 
ATOM      5  C   UNL d   1      13.631  11.875  -2.343  0.00  0.00     0.085 A 
ATOM      6  C   UNL d   1      14.421  11.941  -2.113  0.00  0.00     0.020 A 
ATOM      7  C   UNL d   1      15.354  12.002  -0.931  0.00  0.00     0.007 A 
ATOM      8  C   UNL d   1      13.239  11.813  -0.967  0.00  0.00     0.008 A 
ATOM      9  C   UNL d   1      13.040  11.811  -1.770  0.00  0.00     0.020 A 
ENDROOT
BRANCH   5  10
ATOM     10  N   UNL d   1      13.432  11.873  -3.147  0.00  0.00    -0.208 NA
ATOM     11  C   UNL d   1      13.524  12.558  -3.597  0.00  0.00     0.285 C 
ATOM     12  O   UNL d   1      13.815  13.241  -3.245  0.00  0.00    -0.265 OA
BRANCH  11  13
ATOM     13  C   UNL d   1      13.327  12.556  -4.394  0.00  0.00     0.088 A 
ATOM     14  S   UNL d   1      13.569  11.982  -4.963  0.00  0.00    -0.071 SA
ATOM     15  C   UNL d   1      13.246  12.192  -5.695  0.00  0.00     0.087 A 
ATOM     16 CL   UNL d   1      13.336  11.809  -6.362  0.00  0.00    -0.075 Cl
ATOM     17  C   UNL d   1      12.791  12.918  -5.572  0.00  0.00     0.019 A 
ATOM     18  C   UNL d   1      12.845  13.131  -4.787  0.00  0.00     0.013 A 
ENDBRANCH  11  13
ENDBRANCH   5  10
TORSDOF 2
ENDMDL
