MODEL 1
REMARK VINA RESULT:      -4.1      0.000      0.000
REMARK  7 active torsions:
REMARK  status: ('A' for Active; 'I' for Inactive)
REMARK    1  A    between atoms: C_3  and  C_1 
REMARK    2  A    between atoms: C_4  and  C_1 
REMARK    3  A    between atoms: C_2  and  C_5 
REMARK    4  A    between atoms: O_14  and  C_2 
REMARK    5  A    between atoms: C_6  and  C_3 
REMARK    6  A    between atoms: C_13  and  C_4 
REMARK    7  A    between atoms: O_20  and  C_15 
ROOT
ATOM      1  C   UNL d   1     -41.702-122.594 -51.079  0.00  0.00     0.042 C 
ENDROOT
BRANCH   1   2
ATOM      2  C   UNL d   1     -41.608-122.307 -50.310  0.00  0.00     0.196 C 
ATOM      3  O   UNL d   1     -41.134-121.649 -50.163  0.00  0.00    -0.287 OA
BRANCH   2   4
ATOM      4  C   UNL d   1     -41.993-122.684 -49.689  0.00  0.00     0.039 A 
ATOM      5  C   UNL d   1     -41.553-123.073 -49.100  0.00  0.00     0.005 A 
ATOM      6  C   UNL d   1     -41.941-123.452 -48.477  0.00  0.00     0.024 A 
ATOM      7  C   UNL d   1     -42.767-123.440 -48.444  0.00  0.00     0.094 A 
ATOM      8  C   UNL d   1     -43.203-123.054 -49.027  0.00  0.00     0.024 A 
ATOM      9  C   UNL d   1     -42.818-122.677 -49.648  0.00  0.00     0.005 A 
BRANCH   7  10
ATOM     10  O   UNL d   1     -43.151-123.817 -47.823  0.00  0.00    -0.328 OA
ATOM     11  C   UNL d   1     -42.946-123.642 -47.039  0.00  0.00     0.181 C 
ENDBRANCH   7  10
ENDBRANCH   2   4
ENDBRANCH   1   2
BRANCH   1  12
ATOM     12  C   UNL d   1     -41.123-122.432 -51.650  0.00  0.00     0.003 C 
BRANCH  12  13
ATOM     13  C   UNL d   1     -41.314-122.453 -52.450  0.00  0.00     0.000 A 
ATOM     14  C   UNL d   1     -41.556-121.769 -52.823  0.00  0.00     0.000 A 
ATOM     15  C   UNL d   1     -41.750-121.782 -53.626  0.00  0.00     0.005 A 
ATOM     16  C   UNL d   1     -41.698-122.496 -54.052  0.00  0.00     0.063 A 
ATOM     17  C   UNL d   1     -41.453-123.183 -53.668  0.00  0.00     0.005 A 
ATOM     18  C   UNL d   1     -41.262-123.163 -52.869  0.00  0.00     0.000 A 
BRANCH  16  19
ATOM     19  C   UNL d   1     -41.889-122.517 -54.852  0.00  0.00     0.296 C 
ATOM     20  O   UNL d   1     -41.864-123.230 -55.264  0.00  0.00    -0.259 OA
BRANCH  19  21
ATOM     21  O   UNL d   1     -42.107-121.825 -55.239  0.00  0.00    -0.296 OA
ATOM     22  C   UNL d   1     -42.309-121.837 -56.038  0.00  0.00     0.185 C 
ENDBRANCH  19  21
ENDBRANCH  16  19
ENDBRANCH  12  13
ENDBRANCH   1  12
TORSDOF 7
ENDMDL
