MODEL 1
REMARK VINA RESULT:      -2.0      0.000      0.000
REMARK  6 active torsions:
REMARK  status: ('A' for Active; 'I' for Inactive)
REMARK    1  A    between atoms: N_3  and  C_1 
REMARK    2  A    between atoms: C_5  and  C_2 
REMARK    3  A    between atoms: C_7  and  C_5 
REMARK    4  A    between atoms: C_8  and  C_5 
REMARK    5  A    between atoms: O_15  and  C_7 
REMARK    6  A    between atoms: C_19  and  O_15 
ROOT
ATOM      1  C   UNL d   1      58.382  -0.132  30.839  0.00  0.00     0.166 A 
ATOM      2  C   UNL d   1      57.955  -0.752  30.501  0.00  0.00     0.122 A 
ATOM      3  N   UNL d   1      58.115   0.229  31.536  0.00  0.00    -0.225 NA
ATOM      4  N   UNL d   1      57.258  -1.011  30.863  0.00  0.00    -0.241 NA
ATOM      5  C   UNL d   1      57.416  -0.036  31.892  0.00  0.00     0.101 A 
ATOM      6  C   UNL d   1      56.992  -0.653  31.556  0.00  0.00     0.099 A 
ATOM      7  C   UNL d   1      57.156   0.322  32.579  0.00  0.00     0.021 A 
ATOM      8  C   UNL d   1      56.296  -0.914  31.914  0.00  0.00     0.021 A 
ATOM      9  C   UNL d   1      56.032  -0.557  32.603  0.00  0.00     0.002 A 
ATOM     10  C   UNL d   1      56.459   0.063  32.941  0.00  0.00     0.002 A 
ENDROOT
BRANCH   2  11
ATOM     11  C   UNL d   1      58.222  -1.114  29.804  0.00  0.00     0.105 C 
BRANCH  11  12
ATOM     12  C   UNL d   1      58.411  -1.917  29.801  0.00  0.00     0.303 C 
ATOM     13  O   UNL d   1      58.000  -2.436  30.290  0.00  0.00    -0.259 OA
BRANCH  12  14
ATOM     14  O   UNL d   1      59.006  -2.198  29.311  0.00  0.00    -0.273 OA
BRANCH  14  15
ATOM     15  C   UNL d   1      59.463  -2.823  29.038  0.00  0.00     0.103 A 
ATOM     16  C   UNL d   1      60.286  -2.760  29.057  0.00  0.00     0.025 A 
ATOM     17  C   UNL d   1      60.747  -3.385  28.784  0.00  0.00     0.002 A 
ATOM     18  C   UNL d   1      60.390  -4.061  28.496  0.00  0.00     0.000 A 
ATOM     19  C   UNL d   1      59.575  -4.123  28.477  0.00  0.00     0.002 A 
ATOM     20  C   UNL d   1      59.105  -3.498  28.750  0.00  0.00     0.025 A 
ENDBRANCH  14  15
ENDBRANCH  12  14
ENDBRANCH  11  12
BRANCH  11  21
ATOM     21  C   UNL d   1      58.301  -0.672  29.104  0.00  0.00     0.129 C 
ATOM     22  N   UNL d   1      57.582  -0.531  28.497  0.00  0.00    -0.146 N 
ENDBRANCH  11  21
ENDBRANCH   2  11
BRANCH   1  23
ATOM     23  N   UNL d   1      59.080   0.132  30.482  0.00  0.00    -0.284 N 
ATOM     24  C   UNL d   1      59.100   0.276  29.665  0.00  0.00     0.106 A 
ATOM     25  C   UNL d   1      59.798   0.539  29.317  0.00  0.00     0.118 A 
ATOM     26  C   UNL d   1      59.814   0.682  28.500  0.00  0.00     0.028 C 
ATOM     27  O   UNL d   1      60.477   0.661  29.767  0.00  0.00    -0.304 OA
ATOM     28  C   UNL d   1      60.456   0.517  30.585  0.00  0.00     0.118 A 
ATOM     29  C   UNL d   1      59.757   0.251  30.950  0.00  0.00     0.106 A 
ATOM     30  C   UNL d   1      61.133   0.636  31.052  0.00  0.00     0.028 C 
ENDBRANCH   1  23
TORSDOF 6
ENDMDL
