MODEL 1
REMARK VINA RESULT:      29.5      0.000      0.000
REMARK  3 active torsions:
REMARK  status: ('A' for Active; 'I' for Inactive)
REMARK    1  A    between atoms: N_2  and  S_1 
REMARK    2  A    between atoms: N_3  and  S_1 
REMARK    3  A    between atoms: C_6  and  N_2 
ROOT
ATOM      1  C   UNL d   1     -55.411-102.309 -37.784  0.00  0.00     0.095 A 
ATOM      2  C   UNL d   1     -54.978-101.903 -39.347  0.00  0.00     0.000 A 
ATOM      3  C   UNL d   1     -55.074-102.879 -38.282  0.00  0.00     0.020 A 
ATOM      4  C   UNL d   1     -55.531-101.546 -38.062  0.00  0.00     0.020 A 
ATOM      5  C   UNL d   1     -54.854-102.672 -39.077  0.00  0.00     0.002 A 
ATOM      6  C   UNL d   1     -55.311-101.339 -38.856  0.00  0.00     0.002 A 
ATOM      7  C   UNL d   1     -54.764-101.702 -40.119  0.00  0.00     0.000 C 
ENDROOT
BRANCH   1   8
ATOM      8  N   UNL d   1     -55.624-102.509 -37.014  0.00  0.00    -0.144 NA
BRANCH   8   9
ATOM      9  S   UNL d   1     -55.265-102.126 -36.377  0.00  0.00     0.351 S 
ATOM     10  O   UNL d   1     -55.184-102.843 -35.985  0.00  0.00    -0.180 OA
ATOM     11  O   UNL d   1     -54.914-102.152 -35.631  0.00  0.00    -0.180 OA
BRANCH   9  12
ATOM     12  N   UNL d   1     -55.155-101.309 -36.401  0.00  0.00    -0.212 N 
ATOM     13  C   UNL d   1     -55.472-100.836 -35.804  0.00  0.00     0.113 C 
ATOM     14  C   UNL d   1     -54.730-100.971 -37.020  0.00  0.00     0.113 C 
ENDBRANCH   9  12
ENDBRANCH   8   9
ENDBRANCH   1   8
TORSDOF 3
ENDMDL
