MODEL 1
REMARK VINA RESULT:      -8.8      0.000      0.000
REMARK  5 active torsions:
REMARK  status: ('A' for Active; 'I' for Inactive)
REMARK    1  A    between atoms: C_9  and  N_1 
REMARK    2  A    between atoms: C_8  and  C_3 
REMARK       I    between atoms: N_12  and  C_8 
REMARK    3  A    between atoms: C_21  and  C_9 
REMARK    4  A    between atoms: C_20  and  N_12 
REMARK    5  A    between atoms: C_13  and  C_20 
ROOT
ATOM      1  N   UNL d   1      53.630  33.219  53.370  0.00  0.00    -0.273 N 
ATOM      2  C   UNL d   1      53.786  32.420  53.301  0.00  0.00     0.177 A 
ATOM      3  C   UNL d   1      53.069  32.040  53.109  0.00  0.00     0.115 A 
ATOM      4  C   UNL d   1      52.833  33.348  53.226  0.00  0.00     0.167 A 
ATOM      5  C   UNL d   1      52.485  32.616  53.065  0.00  0.00     0.123 A 
ATOM      6  N   UNL d   1      52.367  34.038  53.219  0.00  0.00    -0.225 NA
ATOM      7  N   UNL d   1      51.670  32.573  52.896  0.00  0.00    -0.241 NA
ATOM      8  C   UNL d   1      51.561  33.991  53.052  0.00  0.00     0.101 A 
ATOM      9  C   UNL d   1      51.213  33.259  52.891  0.00  0.00     0.099 A 
ATOM     10  N   UNL d   1      54.519  32.049  53.401  0.00  0.00    -0.128 N 
ATOM     11  C   UNL d   1      50.406  33.212  52.723  0.00  0.00     0.021 A 
ATOM     12  C   UNL d   1      51.103  34.677  53.046  0.00  0.00     0.021 A 
ATOM     13  C   UNL d   1      49.947  33.899  52.717  0.00  0.00     0.002 A 
ATOM     14  C   UNL d   1      50.295  34.632  52.879  0.00  0.00     0.002 A 
ENDROOT
BRANCH   3  15
ATOM     15  C   UNL d   1      52.965  31.225  52.987  0.00  0.00     0.284 C 
ATOM     16  N   UNL d   1      53.020  30.702  53.620  0.00  0.00    -0.204 NA
ATOM     17  O   UNL d   1      52.806  30.943  52.222  0.00  0.00    -0.265 OA
BRANCH  16  18
ATOM     18  C   UNL d   1      52.915  29.886  53.489  0.00  0.00     0.127 C 
BRANCH  18  19
ATOM     19  C   UNL d   1      53.096  29.346  54.091  0.00  0.00     0.119 A 
ATOM     20  O   UNL d   1      52.699  29.278  54.814  0.00  0.00    -0.304 OA
ATOM     21  C   UNL d   1      53.063  28.677  55.235  0.00  0.00     0.123 A 
ATOM     22  C   UNL d   1      53.685  28.373  54.771  0.00  0.00     0.029 A 
ATOM     23  C   UNL d   1      53.698  28.789  54.072  0.00  0.00     0.028 A 
ENDBRANCH  18  19
ENDBRANCH  16  18
ENDBRANCH   3  15
BRANCH   1  24
ATOM     24  C   UNL d   1      54.195  33.811  53.557  0.00  0.00     0.083 C 
BRANCH  24  25
ATOM     25  C   UNL d   1      54.469  33.892  54.331  0.00  0.00     0.018 A 
ATOM     26  C   UNL d   1      53.977  34.202  54.910  0.00  0.00     0.002 A 
ATOM     27  C   UNL d   1      54.253  34.283  55.687  0.00  0.00     0.000 A 
ATOM     28  C   UNL d   1      55.018  34.055  55.882  0.00  0.00     0.000 A 
ATOM     29  C   UNL d   1      55.514  33.742  55.295  0.00  0.00     0.000 A 
ATOM     30  C   UNL d   1      55.238  33.661  54.518  0.00  0.00     0.002 A 
ENDBRANCH  24  25
ENDBRANCH   1  24
TORSDOF 5
ENDMDL
MODEL 2
REMARK VINA RESULT:      -8.8      1.463      4.082
REMARK  5 active torsions:
REMARK  status: ('A' for Active; 'I' for Inactive)
REMARK    1  A    between atoms: C_9  and  N_1 
REMARK    2  A    between atoms: C_8  and  C_3 
REMARK       I    between atoms: N_12  and  C_8 
REMARK    3  A    between atoms: C_21  and  C_9 
REMARK    4  A    between atoms: C_20  and  N_12 
REMARK    5  A    between atoms: C_13  and  C_20 
ROOT
ATOM      1  N   UNL d   1      53.205  33.549  53.392  0.00  0.00    -0.273 N 
ATOM      2  C   UNL d   1      52.509  33.977  53.411  0.00  0.00     0.177 A 
ATOM      3  C   UNL d   1      51.879  33.435  53.344  0.00  0.00     0.115 A 
ATOM      4  C   UNL d   1      53.025  32.753  53.314  0.00  0.00     0.167 A 
ATOM      5  C   UNL d   1      52.201  32.682  53.284  0.00  0.00     0.123 A 
ATOM      6  N   UNL d   1      53.500  32.070  53.265  0.00  0.00    -0.225 NA
ATOM      7  N   UNL d   1      51.853  31.930  53.205  0.00  0.00    -0.241 NA
ATOM      8  C   UNL d   1      53.151  31.328  53.187  0.00  0.00     0.101 A 
ATOM      9  C   UNL d   1      52.328  31.257  53.157  0.00  0.00     0.099 A 
ATOM     10  N   UNL d   1      52.436  34.798  53.484  0.00  0.00    -0.128 N 
ATOM     11  C   UNL d   1      51.978  30.514  53.079  0.00  0.00     0.021 A 
ATOM     12  C   UNL d   1      53.625  30.655  53.139  0.00  0.00     0.021 A 
ATOM     13  C   UNL d   1      52.453  29.840  53.031  0.00  0.00     0.002 A 
ATOM     14  C   UNL d   1      53.277  29.910  53.061  0.00  0.00     0.002 A 
ENDROOT
BRANCH   3  15
ATOM     15  C   UNL d   1      51.070  33.624  53.338  0.00  0.00     0.284 C 
ATOM     16  N   UNL d   1      50.719  33.915  52.652  0.00  0.00    -0.204 NA
ATOM     17  O   UNL d   1      50.620  33.518  54.028  0.00  0.00    -0.265 OA
BRANCH  16  18
ATOM     18  C   UNL d   1      49.907  34.102  52.654  0.00  0.00     0.127 C 
BRANCH  18  19
ATOM     19  C   UNL d   1      49.543  34.361  51.956  0.00  0.00     0.119 A 
ATOM     20  O   UNL d   1      49.761  34.143  51.188  0.00  0.00    -0.304 OA
ATOM     21  C   UNL d   1      49.254  34.527  50.673  0.00  0.00     0.123 A 
ATOM     22  C   UNL d   1      48.722  34.983  51.123  0.00  0.00     0.029 A 
ATOM     23  C   UNL d   1      48.906  34.875  51.908  0.00  0.00     0.028 A 
ENDBRANCH  18  19
ENDBRANCH  16  18
ENDBRANCH   3  15
BRANCH   1  24
ATOM     24  C   UNL d   1      53.977  33.873  53.443  0.00  0.00     0.083 C 
BRANCH  24  25
ATOM     25  C   UNL d   1      54.376  33.880  54.165  0.00  0.00     0.018 A 
ATOM     26  C   UNL d   1      53.996  34.146  54.842  0.00  0.00     0.002 A 
ATOM     27  C   UNL d   1      54.398  34.153  55.566  0.00  0.00     0.000 A 
ATOM     28  C   UNL d   1      55.176  33.895  55.612  0.00  0.00     0.000 A 
ATOM     29  C   UNL d   1      55.559  33.627  54.926  0.00  0.00     0.000 A 
ATOM     30  C   UNL d   1      55.158  33.619  54.201  0.00  0.00     0.002 A 
ENDBRANCH  24  25
ENDBRANCH   1  24
TORSDOF 5
ENDMDL
MODEL 3
REMARK VINA RESULT:      -8.8      1.365      4.610
REMARK  5 active torsions:
REMARK  status: ('A' for Active; 'I' for Inactive)
REMARK    1  A    between atoms: C_9  and  N_1 
REMARK    2  A    between atoms: C_8  and  C_3 
REMARK       I    between atoms: N_12  and  C_8 
REMARK    3  A    between atoms: C_21  and  C_9 
REMARK    4  A    between atoms: C_20  and  N_12 
REMARK    5  A    between atoms: C_13  and  C_20 
ROOT
ATOM      1  N   UNL d   1      52.900  31.981  53.110  0.00  0.00    -0.273 N 
ATOM      2  C   UNL d   1      52.129  32.214  52.971  0.00  0.00     0.177 A 
ATOM      3  C   UNL d   1      52.009  32.936  53.371  0.00  0.00     0.115 A 
ATOM      4  C   UNL d   1      53.265  32.540  53.587  0.00  0.00     0.167 A 
ATOM      5  C   UNL d   1      52.711  33.133  53.749  0.00  0.00     0.123 A 
ATOM      6  N   UNL d   1      54.033  32.595  53.902  0.00  0.00    -0.225 NA
ATOM      7  N   UNL d   1      52.927  33.781  54.226  0.00  0.00    -0.241 NA
ATOM      8  C   UNL d   1      54.243  33.238  54.373  0.00  0.00     0.101 A 
ATOM      9  C   UNL d   1      53.689  33.831  54.535  0.00  0.00     0.099 A 
ATOM     10  N   UNL d   1      51.565  31.813  52.518  0.00  0.00    -0.128 N 
ATOM     11  C   UNL d   1      53.899  34.475  55.007  0.00  0.00     0.021 A 
ATOM     12  C   UNL d   1      55.005  33.289  54.684  0.00  0.00     0.021 A 
ATOM     13  C   UNL d   1      54.663  34.525  55.318  0.00  0.00     0.002 A 
ATOM     14  C   UNL d   1      55.216  33.932  55.156  0.00  0.00     0.002 A 
ENDROOT
BRANCH   3  15
ATOM     15  C   UNL d   1      51.305  33.377  53.384  0.00  0.00     0.284 C 
ATOM     16  N   UNL d   1      51.071  33.801  52.718  0.00  0.00    -0.204 NA
ATOM     17  O   UNL d   1      50.840  33.386  54.072  0.00  0.00    -0.265 OA
BRANCH  16  18
ATOM     18  C   UNL d   1      50.364  34.240  52.739  0.00  0.00     0.127 C 
BRANCH  18  19
ATOM     19  C   UNL d   1      49.945  34.379  52.037  0.00  0.00     0.119 A 
ATOM     20  O   UNL d   1      50.261  34.351  51.273  0.00  0.00    -0.304 OA
ATOM     21  C   UNL d   1      49.653  34.523  50.752  0.00  0.00     0.123 A 
ATOM     22  C   UNL d   1      48.960  34.656  51.195  0.00  0.00     0.029 A 
ATOM     23  C   UNL d   1      49.148  34.566  51.981  0.00  0.00     0.028 A 
ENDBRANCH  18  19
ENDBRANCH  16  18
ENDBRANCH   3  15
BRANCH   1  24
ATOM     24  C   UNL d   1      53.258  31.284  52.813  0.00  0.00     0.083 C 
BRANCH  24  25
ATOM     25  C   UNL d   1      53.170  30.569  53.215  0.00  0.00     0.018 A 
ATOM     26  C   UNL d   1      53.725  30.341  53.775  0.00  0.00     0.002 A 
ATOM     27  C   UNL d   1      53.636  29.623  54.178  0.00  0.00     0.000 A 
ATOM     28  C   UNL d   1      52.994  29.136  54.020  0.00  0.00     0.000 A 
ATOM     29  C   UNL d   1      52.434  29.367  53.453  0.00  0.00     0.000 A 
ATOM     30  C   UNL d   1      52.523  30.085  53.050  0.00  0.00     0.002 A 
ENDBRANCH  24  25
ENDBRANCH   1  24
TORSDOF 5
ENDMDL
MODEL 4
REMARK VINA RESULT:      -8.6      0.710      3.246
REMARK  5 active torsions:
REMARK  status: ('A' for Active; 'I' for Inactive)
REMARK    1  A    between atoms: C_9  and  N_1 
REMARK    2  A    between atoms: C_8  and  C_3 
REMARK       I    between atoms: N_12  and  C_8 
REMARK    3  A    between atoms: C_21  and  C_9 
REMARK    4  A    between atoms: C_20  and  N_12 
REMARK    5  A    between atoms: C_13  and  C_20 
ROOT
ATOM      1  N   UNL d   1      51.990  33.084  53.612  0.00  0.00    -0.273 N 
ATOM      2  C   UNL d   1      51.982  32.319  53.323  0.00  0.00     0.177 A 
ATOM      3  C   UNL d   1      52.736  31.990  53.462  0.00  0.00     0.115 A 
ATOM      4  C   UNL d   1      52.730  33.240  53.929  0.00  0.00     0.167 A 
ATOM      5  C   UNL d   1      53.193  32.562  53.836  0.00  0.00     0.123 A 
ATOM      6  N   UNL d   1      53.054  33.915  54.294  0.00  0.00    -0.225 NA
ATOM      7  N   UNL d   1      53.980  32.557  54.108  0.00  0.00    -0.241 NA
ATOM      8  C   UNL d   1      53.833  33.906  54.563  0.00  0.00     0.101 A 
ATOM      9  C   UNL d   1      54.296  33.227  54.470  0.00  0.00     0.099 A 
ATOM     10  N   UNL d   1      51.347  31.936  52.958  0.00  0.00    -0.128 N 
ATOM     11  C   UNL d   1      55.077  33.218  54.738  0.00  0.00     0.021 A 
ATOM     12  C   UNL d   1      54.151  34.576  54.924  0.00  0.00     0.021 A 
ATOM     13  C   UNL d   1      55.394  33.890  55.100  0.00  0.00     0.002 A 
ATOM     14  C   UNL d   1      54.931  34.568  55.194  0.00  0.00     0.002 A 
ENDROOT
BRANCH   3  15
ATOM     15  C   UNL d   1      52.979  31.223  53.260  0.00  0.00     0.284 C 
ATOM     16  N   UNL d   1      52.986  30.628  53.829  0.00  0.00    -0.204 NA
ATOM     17  O   UNL d   1      53.216  31.060  52.480  0.00  0.00    -0.265 OA
BRANCH  16  18
ATOM     18  C   UNL d   1      53.232  29.861  53.618  0.00  0.00     0.127 C 
BRANCH  18  19
ATOM     19  C   UNL d   1      53.323  29.282  54.205  0.00  0.00     0.119 A 
ATOM     20  O   UNL d   1      52.952  29.282  54.945  0.00  0.00    -0.304 OA
ATOM     21  C   UNL d   1      53.201  28.610  55.341  0.00  0.00     0.123 A 
ATOM     22  C   UNL d   1      53.726  28.195  54.846  0.00  0.00     0.029 A 
ATOM     23  C   UNL d   1      53.795  28.614  54.152  0.00  0.00     0.028 A 
ENDBRANCH  18  19
ENDBRANCH  16  18
ENDBRANCH   3  15
BRANCH   1  24
ATOM     24  C   UNL d   1      51.345  33.619  53.588  0.00  0.00     0.083 C 
BRANCH  24  25
ATOM     25  C   UNL d   1      51.087  33.925  52.867  0.00  0.00     0.018 A 
ATOM     26  C   UNL d   1      51.628  34.239  52.336  0.00  0.00     0.002 A 
ATOM     27  C   UNL d   1      51.368  34.546  51.612  0.00  0.00     0.000 A 
ATOM     28  C   UNL d   1      50.569  34.538  51.421  0.00  0.00     0.000 A 
ATOM     29  C   UNL d   1      50.023  34.220  51.959  0.00  0.00     0.000 A 
ATOM     30  C   UNL d   1      50.283  33.913  52.683  0.00  0.00     0.002 A 
ENDBRANCH  24  25
ENDBRANCH   1  24
TORSDOF 5
ENDMDL
