MODEL 1
REMARK VINA RESULT:      -8.7      0.000      0.000
REMARK  4 active torsions:
REMARK  status: ('A' for Active; 'I' for Inactive)
REMARK    1  A    between atoms: N_2  and  S_1 
REMARK    2  A    between atoms: C_3  and  S_1 
REMARK    3  A    between atoms: O_16  and  C_8 
REMARK    4  A    between atoms: O_17  and  C_11 
ROOT
ATOM      1  S   UNL d   1      51.527  33.817  52.933  0.00  0.00     0.271 S 
ATOM      2  O   UNL d   1      51.960  34.423  52.583  0.00  0.00    -0.200 OA
ATOM      3  O   UNL d   1      51.090  33.204  53.287  0.00  0.00    -0.200 OA
ENDROOT
BRANCH   1   4
ATOM      4  N   UNL d   1      52.208  33.543  53.310  0.00  0.00    -0.229 N 
ATOM      5  C   UNL d   1      52.571  34.007  53.889  0.00  0.00     0.092 A 
ATOM      6  C   UNL d   1      53.252  33.733  54.266  0.00  0.00     0.018 A 
ATOM      7  C   UNL d   1      53.615  34.197  54.844  0.00  0.00     0.002 A 
ATOM      8  C   UNL d   1      53.569  32.997  54.066  0.00  0.00     0.003 A 
ATOM      9  C   UNL d   1      54.295  33.924  55.222  0.00  0.00     0.000 A 
ATOM     10  C   UNL d   1      54.613  33.188  55.022  0.00  0.00     0.000 A 
ATOM     11  C   UNL d   1      54.250  32.724  54.444  0.00  0.00     0.000 A 
ATOM     12  C   UNL d   1      53.206  32.533  53.488  0.00  0.00     0.020 A 
ATOM     13  C   UNL d   1      52.525  32.807  53.111  0.00  0.00     0.092 A 
ENDBRANCH   1   4
BRANCH   1  14
ATOM     14  C   UNL d   1      50.846  34.083  52.560  0.00  0.00     0.106 A 
ATOM     15  C   UNL d   1      50.250  34.442  53.008  0.00  0.00     0.039 A 
ATOM     16  C   UNL d   1      49.566  34.711  52.638  0.00  0.00     0.117 A 
ATOM     17  C   UNL d   1      49.471  34.624  51.825  0.00  0.00     0.116 A 
ATOM     18  C   UNL d   1      50.067  34.264  51.377  0.00  0.00     0.027 A 
ATOM     19  C   UNL d   1      50.748  33.998  51.750  0.00  0.00     0.015 A 
BRANCH  16  20
ATOM     20  O   UNL d   1      48.971  35.069  53.084  0.00  0.00    -0.326 OA
ATOM     21  C   UNL d   1      49.171  35.596  53.693  0.00  0.00     0.181 C 
ENDBRANCH  16  20
BRANCH  17  22
ATOM     22  O   UNL d   1      48.782  34.894  51.454  0.00  0.00    -0.326 OA
ATOM     23  C   UNL d   1      48.590  34.630  50.696  0.00  0.00     0.181 C 
ENDBRANCH  17  22
ENDBRANCH   1  14
TORSDOF 4
ENDMDL
MODEL 2
REMARK VINA RESULT:      -8.2      1.235      4.664
REMARK  4 active torsions:
REMARK  status: ('A' for Active; 'I' for Inactive)
REMARK    1  A    between atoms: N_2  and  S_1 
REMARK    2  A    between atoms: C_3  and  S_1 
REMARK    3  A    between atoms: O_16  and  C_8 
REMARK    4  A    between atoms: O_17  and  C_11 
ROOT
ATOM      1  S   UNL d   1      52.002  33.930  53.275  0.00  0.00     0.271 S 
ATOM      2  O   UNL d   1      51.585  33.362  53.700  0.00  0.00    -0.200 OA
ATOM      3  O   UNL d   1      52.422  34.504  52.844  0.00  0.00    -0.200 OA
ENDROOT
BRANCH   1   4
ATOM      4  N   UNL d   1      51.319  34.121  52.852  0.00  0.00    -0.229 N 
ATOM      5  C   UNL d   1      50.696  34.506  53.232  0.00  0.00     0.092 A 
ATOM      6  C   UNL d   1      50.013  34.697  52.810  0.00  0.00     0.018 A 
ATOM      7  C   UNL d   1      49.390  35.083  53.190  0.00  0.00     0.002 A 
ATOM      8  C   UNL d   1      49.953  34.502  52.009  0.00  0.00     0.003 A 
ATOM      9  C   UNL d   1      48.707  35.273  52.768  0.00  0.00     0.000 A 
ATOM     10  C   UNL d   1      48.647  35.079  51.967  0.00  0.00     0.000 A 
ATOM     11  C   UNL d   1      49.270  34.693  51.587  0.00  0.00     0.000 A 
ATOM     12  C   UNL d   1      50.576  34.117  51.629  0.00  0.00     0.020 A 
ATOM     13  C   UNL d   1      51.259  33.926  52.052  0.00  0.00     0.092 A 
ENDBRANCH   1   4
BRANCH   1  14
ATOM     14  C   UNL d   1      52.685  33.746  53.691  0.00  0.00     0.106 A 
ATOM     15  C   UNL d   1      53.060  33.021  53.558  0.00  0.00     0.039 A 
ATOM     16  C   UNL d   1      53.745  32.833  53.974  0.00  0.00     0.117 A 
ATOM     17  C   UNL d   1      54.059  33.363  54.520  0.00  0.00     0.116 A 
ATOM     18  C   UNL d   1      53.684  34.087  54.652  0.00  0.00     0.027 A 
ATOM     19  C   UNL d   1      53.001  34.272  54.236  0.00  0.00     0.015 A 
BRANCH  16  20
ATOM     20  O   UNL d   1      54.120  32.109  53.842  0.00  0.00    -0.326 OA
ATOM     21  C   UNL d   1      53.678  31.452  53.598  0.00  0.00     0.181 C 
ENDBRANCH  16  20
BRANCH  17  22
ATOM     22  O   UNL d   1      54.749  33.172  54.938  0.00  0.00    -0.326 OA
ATOM     23  C   UNL d   1      55.159  33.759  55.346  0.00  0.00     0.181 C 
ENDBRANCH  17  22
ENDBRANCH   1  14
TORSDOF 4
ENDMDL
MODEL 3
REMARK VINA RESULT:      -7.8      2.170      3.603
REMARK  4 active torsions:
REMARK  status: ('A' for Active; 'I' for Inactive)
REMARK    1  A    between atoms: N_2  and  S_1 
REMARK    2  A    between atoms: C_3  and  S_1 
REMARK    3  A    between atoms: O_16  and  C_8 
REMARK    4  A    between atoms: O_17  and  C_11 
ROOT
ATOM      1  S   UNL d   1      53.055  32.324  53.665  0.00  0.00     0.271 S 
ATOM      2  O   UNL d   1      53.834  32.373  53.405  0.00  0.00    -0.200 OA
ATOM      3  O   UNL d   1      52.267  32.273  53.927  0.00  0.00    -0.200 OA
ENDROOT
BRANCH   1   4
ATOM      4  N   UNL d   1      53.082  31.501  53.603  0.00  0.00    -0.229 N 
ATOM      5  C   UNL d   1      53.231  31.045  54.275  0.00  0.00     0.092 A 
ATOM      6  C   UNL d   1      53.258  30.222  54.214  0.00  0.00     0.018 A 
ATOM      7  C   UNL d   1      53.407  29.766  54.885  0.00  0.00     0.002 A 
ATOM      8  C   UNL d   1      53.138  29.857  53.483  0.00  0.00     0.003 A 
ATOM      9  C   UNL d   1      53.434  28.943  54.824  0.00  0.00     0.000 A 
ATOM     10  C   UNL d   1      53.314  28.578  54.093  0.00  0.00     0.000 A 
ATOM     11  C   UNL d   1      53.165  29.034  53.422  0.00  0.00     0.000 A 
ATOM     12  C   UNL d   1      52.989  30.313  52.811  0.00  0.00     0.020 A 
ATOM     13  C   UNL d   1      52.962  31.136  52.872  0.00  0.00     0.092 A 
ENDBRANCH   1   4
BRANCH   1  14
ATOM     14  C   UNL d   1      53.020  33.141  53.728  0.00  0.00     0.106 A 
ATOM     15  C   UNL d   1      52.538  33.571  53.211  0.00  0.00     0.039 A 
ATOM     16  C   UNL d   1      52.501  34.390  53.271  0.00  0.00     0.117 A 
ATOM     17  C   UNL d   1      52.941  34.786  53.844  0.00  0.00     0.116 A 
ATOM     18  C   UNL d   1      53.423  34.356  54.361  0.00  0.00     0.027 A 
ATOM     19  C   UNL d   1      53.458  33.539  54.298  0.00  0.00     0.015 A 
BRANCH  16  20
ATOM     20  O   UNL d   1      52.020  34.819  52.755  0.00  0.00    -0.326 OA
ATOM     21  C   UNL d   1      51.464  34.424  52.283  0.00  0.00     0.181 C 
ENDBRANCH  16  20
BRANCH  17  22
ATOM     22  O   UNL d   1      52.903  35.611  53.904  0.00  0.00    -0.326 OA
ATOM     23  C   UNL d   1      53.134  35.985  54.601  0.00  0.00     0.181 C 
ENDBRANCH  17  22
ENDBRANCH   1  14
TORSDOF 4
ENDMDL
