MODEL 1
REMARK VINA RESULT:      -6.1      0.000      0.000
REMARK  6 active torsions:
REMARK  status: ('A' for Active; 'I' for Inactive)
REMARK    1  A    between atoms: C_5  and  C_1 
REMARK    2  A    between atoms: N_6  and  C_5 
REMARK    3  A    between atoms: C_9  and  C_5 
REMARK    4  A    between atoms: C_8  and  C_11 
REMARK    5  A    between atoms: O_18  and  C_8 
REMARK    6  A    between atoms: C_23  and  O_18 
ROOT
ATOM      1  C   UNL d   1     -48.887  13.132  22.649  0.00  0.00     0.083 C 
ENDROOT
BRANCH   1   2
ATOM      2  C   UNL d   1     -49.428  13.697  22.359  0.00  0.00     0.037 A 
ATOM      3  C   UNL d   1     -49.800  13.675  21.622  0.00  0.00     0.083 A 
ATOM      4  N   UNL d   1     -50.284  14.315  21.539  0.00  0.00    -0.245 NA
ATOM      5  C   UNL d   1     -49.686  13.068  21.046  0.00  0.00     0.021 C 
ATOM      6  C   UNL d   1     -50.231  14.756  22.216  0.00  0.00     0.081 A 
ATOM      7  C   UNL d   1     -49.702  14.374  22.722  0.00  0.00     0.021 A 
ATOM      8  C   UNL d   1     -50.590  15.459  22.452  0.00  0.00     0.019 A 
ATOM      9  C   UNL d   1     -49.536  14.698  23.462  0.00  0.00     0.002 A 
ATOM     10  C   UNL d   1     -49.896  15.402  23.698  0.00  0.00     0.000 A 
ATOM     11  C   UNL d   1     -50.424  15.784  23.192  0.00  0.00     0.002 A 
ENDBRANCH   1   2
BRANCH   1  12
ATOM     12  N   UNL d   1     -48.061  13.267  22.586  0.00  0.00    -0.302 N 
ATOM     13  C   UNL d   1     -47.729  13.391  21.854  0.00  0.00     0.080 A 
ATOM     14  C   UNL d   1     -46.918  13.523  21.794  0.00  0.00     0.024 A 
ATOM     15  C   UNL d   1     -46.458  13.528  22.484  0.00  0.00     0.067 A 
ATOM     16  C   UNL d   1     -46.795  13.404  23.217  0.00  0.00     0.024 A 
ATOM     17  C   UNL d   1     -47.606  13.272  23.276  0.00  0.00     0.080 A 
BRANCH  15  18
ATOM     18  C   UNL d   1     -45.633  13.662  22.436  0.00  0.00     0.300 C 
ATOM     19  O   UNL d   1     -45.328  14.429  22.521  0.00  0.00    -0.259 OA
BRANCH  18  20
ATOM     20  O   UNL d   1     -45.139  13.027  22.306  0.00  0.00    -0.271 OA
BRANCH  20  21
ATOM     21  C   UNL d   1     -44.474  13.118  21.829  0.00  0.00     0.126 C 
ATOM     22  C   UNL d   1     -43.945  12.505  21.757  0.00  0.00     0.029 C 
ENDBRANCH  20  21
ENDBRANCH  18  20
ENDBRANCH  15  18
ENDBRANCH   1  12
BRANCH   1  23
ATOM     23  C   UNL d   1     -49.173  12.427  23.005  0.00  0.00     0.098 A 
ATOM     24  N   UNL d   1     -49.912  12.410  23.349  0.00  0.00    -0.243 NA
ATOM     25  C   UNL d   1     -50.193  11.728  23.695  0.00  0.00     0.099 A 
ATOM     26  C   UNL d   1     -49.728  11.052  23.698  0.00  0.00     0.021 A 
ATOM     27  C   UNL d   1     -48.983  11.055  23.355  0.00  0.00     0.003 A 
ATOM     28  C   UNL d   1     -48.687  11.740  23.001  0.00  0.00     0.021 A 
ENDBRANCH   1  23
TORSDOF 6
ENDMDL
MODEL 2
REMARK VINA RESULT:      -4.5      6.730      9.298
REMARK  6 active torsions:
REMARK  status: ('A' for Active; 'I' for Inactive)
REMARK    1  A    between atoms: C_5  and  C_1 
REMARK    2  A    between atoms: N_6  and  C_5 
REMARK    3  A    between atoms: C_9  and  C_5 
REMARK    4  A    between atoms: C_8  and  C_11 
REMARK    5  A    between atoms: O_18  and  C_8 
REMARK    6  A    between atoms: C_23  and  O_18 
ROOT
ATOM      1  C   UNL d   1     -40.528  14.438  20.486  0.00  0.00     0.083 C 
ENDROOT
BRANCH   1   2
ATOM      2  C   UNL d   1     -39.948  14.611  21.062  0.00  0.00     0.037 A 
ATOM      3  C   UNL d   1     -39.920  15.293  21.528  0.00  0.00     0.083 A 
ATOM      4  N   UNL d   1     -39.281  15.263  22.019  0.00  0.00    -0.245 NA
ATOM      5  C   UNL d   1     -40.481  15.922  21.491  0.00  0.00     0.021 C 
ATOM      6  C   UNL d   1     -38.891  14.568  21.877  0.00  0.00     0.081 A 
ATOM      7  C   UNL d   1     -39.303  14.166  21.286  0.00  0.00     0.021 A 
ATOM      8  C   UNL d   1     -38.211  14.235  22.202  0.00  0.00     0.019 A 
ATOM      9  C   UNL d   1     -39.033  13.432  21.023  0.00  0.00     0.002 A 
ATOM     10  C   UNL d   1     -38.352  13.099  21.349  0.00  0.00     0.000 A 
ATOM     11  C   UNL d   1     -37.940  13.501  21.940  0.00  0.00     0.002 A 
ENDBRANCH   1   2
BRANCH   1  12
ATOM     12  N   UNL d   1     -40.386  14.614  19.678  0.00  0.00    -0.302 N 
ATOM     13  C   UNL d   1     -40.185  14.015  19.166  0.00  0.00     0.080 A 
ATOM     14  C   UNL d   1     -40.046  14.190  18.373  0.00  0.00     0.024 A 
ATOM     15  C   UNL d   1     -40.114  14.974  18.115  0.00  0.00     0.067 A 
ATOM     16  C   UNL d   1     -40.316  15.573  18.632  0.00  0.00     0.024 A 
ATOM     17  C   UNL d   1     -40.455  15.397  19.425  0.00  0.00     0.080 A 
BRANCH  15  18
ATOM     18  C   UNL d   1     -39.975  15.165  17.311  0.00  0.00     0.300 C 
ATOM     19  O   UNL d   1     -40.602  15.410  16.825  0.00  0.00    -0.259 OA
BRANCH  18  20
ATOM     20  O   UNL d   1     -39.217  15.105  17.019  0.00  0.00    -0.271 OA
BRANCH  20  21
ATOM     21  C   UNL d   1     -39.008  15.518  16.338  0.00  0.00     0.126 C 
ATOM     22  C   UNL d   1     -38.338  15.306  15.930  0.00  0.00     0.029 C 
ENDBRANCH  20  21
ENDBRANCH  18  20
ENDBRANCH  15  18
ENDBRANCH   1  12
BRANCH   1  23
ATOM     23  C   UNL d   1     -41.253  14.086  20.720  0.00  0.00     0.098 A 
ATOM     24  N   UNL d   1     -41.305  13.278  20.822  0.00  0.00    -0.243 NA
ATOM     25  C   UNL d   1     -42.008  12.933  21.048  0.00  0.00     0.099 A 
ATOM     26  C   UNL d   1     -42.669  13.402  21.176  0.00  0.00     0.021 A 
ATOM     27  C   UNL d   1     -42.630  14.215  21.077  0.00  0.00     0.003 A 
ATOM     28  C   UNL d   1     -41.925  14.577  20.848  0.00  0.00     0.021 A 
ENDBRANCH   1  23
TORSDOF 6
ENDMDL
MODEL 3
REMARK VINA RESULT:      -4.3      4.767      8.801
REMARK  6 active torsions:
REMARK  status: ('A' for Active; 'I' for Inactive)
REMARK    1  A    between atoms: C_5  and  C_1 
REMARK    2  A    between atoms: N_6  and  C_5 
REMARK    3  A    between atoms: C_9  and  C_5 
REMARK    4  A    between atoms: C_8  and  C_11 
REMARK    5  A    between atoms: O_18  and  C_8 
REMARK    6  A    between atoms: C_23  and  O_18 
ROOT
ATOM      1  C   UNL d   1     -40.686  14.449  20.466  0.00  0.00     0.083 C 
ENDROOT
BRANCH   1   2
ATOM      2  C   UNL d   1     -40.056  14.628  20.984  0.00  0.00     0.037 A 
ATOM      3  C   UNL d   1     -39.997  15.304  21.455  0.00  0.00     0.083 A 
ATOM      4  N   UNL d   1     -39.311  15.282  21.881  0.00  0.00    -0.245 NA
ATOM      5  C   UNL d   1     -40.571  15.922  21.482  0.00  0.00     0.021 C 
ATOM      6  C   UNL d   1     -38.924  14.598  21.692  0.00  0.00     0.081 A 
ATOM      7  C   UNL d   1     -39.383  14.194  21.138  0.00  0.00     0.021 A 
ATOM      8  C   UNL d   1     -38.208  14.275  21.944  0.00  0.00     0.019 A 
ATOM      9  C   UNL d   1     -39.126  13.469  20.840  0.00  0.00     0.002 A 
ATOM     10  C   UNL d   1     -38.409  13.147  21.093  0.00  0.00     0.000 A 
ATOM     11  C   UNL d   1     -37.950  13.550  21.647  0.00  0.00     0.002 A 
ENDBRANCH   1   2
BRANCH   1  12
ATOM     12  N   UNL d   1     -41.372  14.062  20.754  0.00  0.00    -0.302 N 
ATOM     13  C   UNL d   1     -41.989  14.503  21.048  0.00  0.00     0.080 A 
ATOM     14  C   UNL d   1     -42.662  14.121  21.330  0.00  0.00     0.024 A 
ATOM     15  C   UNL d   1     -42.695  13.293  21.308  0.00  0.00     0.067 A 
ATOM     16  C   UNL d   1     -42.074  12.853  21.012  0.00  0.00     0.024 A 
ATOM     17  C   UNL d   1     -41.401  13.236  20.730  0.00  0.00     0.080 A 
BRANCH  15  18
ATOM     18  C   UNL d   1     -43.374  12.892  21.592  0.00  0.00     0.300 C 
ATOM     19  O   UNL d   1     -43.335  12.085  21.781  0.00  0.00    -0.259 OA
BRANCH  18  20
ATOM     20  O   UNL d   1     -44.069  13.309  21.677  0.00  0.00    -0.271 OA
BRANCH  20  21
ATOM     21  C   UNL d   1     -44.783  12.905  21.739  0.00  0.00     0.126 C 
ATOM     22  C   UNL d   1     -45.422  13.271  22.081  0.00  0.00     0.029 C 
ENDBRANCH  20  21
ENDBRANCH  18  20
ENDBRANCH  15  18
ENDBRANCH   1  12
BRANCH   1  23
ATOM     23  C   UNL d   1     -40.629  14.659  19.655  0.00  0.00     0.098 A 
ATOM     24  N   UNL d   1     -40.329  14.128  19.113  0.00  0.00    -0.243 NA
ATOM     25  C   UNL d   1     -40.272  14.328  18.325  0.00  0.00     0.099 A 
ATOM     26  C   UNL d   1     -40.519  15.069  18.075  0.00  0.00     0.021 A 
ATOM     27  C   UNL d   1     -40.822  15.612  18.609  0.00  0.00     0.003 A 
ATOM     28  C   UNL d   1     -40.885  15.422  19.410  0.00  0.00     0.021 A 
ENDBRANCH   1  23
TORSDOF 6
ENDMDL
MODEL 4
REMARK VINA RESULT:      -3.3      6.940      9.463
REMARK  6 active torsions:
REMARK  status: ('A' for Active; 'I' for Inactive)
REMARK    1  A    between atoms: C_5  and  C_1 
REMARK    2  A    between atoms: N_6  and  C_5 
REMARK    3  A    between atoms: C_9  and  C_5 
REMARK    4  A    between atoms: C_8  and  C_11 
REMARK    5  A    between atoms: O_18  and  C_8 
REMARK    6  A    between atoms: C_23  and  O_18 
ROOT
ATOM      1  C   UNL d   1     -39.557  14.192  20.724  0.00  0.00     0.083 C 
ENDROOT
BRANCH   1   2
ATOM      2  C   UNL d   1     -40.334  14.485  20.813  0.00  0.00     0.037 A 
ATOM      3  C   UNL d   1     -40.557  15.279  20.778  0.00  0.00     0.083 A 
ATOM      4  N   UNL d   1     -41.354  15.346  20.889  0.00  0.00    -0.245 NA
ATOM      5  C   UNL d   1     -40.025  15.921  20.644  0.00  0.00     0.021 C 
ATOM      6  C   UNL d   1     -41.652  14.601  20.998  0.00  0.00     0.081 A 
ATOM      7  C   UNL d   1     -41.022  14.070  20.951  0.00  0.00     0.021 A 
ATOM      8  C   UNL d   1     -42.415  14.322  21.135  0.00  0.00     0.019 A 
ATOM      9  C   UNL d   1     -41.159  13.262  21.041  0.00  0.00     0.002 A 
ATOM     10  C   UNL d   1     -41.924  12.982  21.178  0.00  0.00     0.000 A 
ATOM     11  C   UNL d   1     -42.553  13.513  21.225  0.00  0.00     0.002 A 
ENDBRANCH   1   2
BRANCH   1  12
ATOM     12  N   UNL d   1     -39.256  14.021  19.959  0.00  0.00    -0.302 N 
ATOM     13  C   UNL d   1     -39.259  13.254  19.689  0.00  0.00     0.080 A 
ATOM     14  C   UNL d   1     -38.963  13.088  18.938  0.00  0.00     0.024 A 
ATOM     15  C   UNL d   1     -38.669  13.709  18.475  0.00  0.00     0.067 A 
ATOM     16  C   UNL d   1     -38.667  14.477  18.749  0.00  0.00     0.024 A 
ATOM     17  C   UNL d   1     -38.963  14.643  19.500  0.00  0.00     0.080 A 
BRANCH  15  18
ATOM     18  C   UNL d   1     -38.365  13.553  17.709  0.00  0.00     0.300 C 
ATOM     19  O   UNL d   1     -37.978  12.837  17.551  0.00  0.00    -0.259 OA
BRANCH  18  20
ATOM     20  O   UNL d   1     -38.458  14.117  17.128  0.00  0.00    -0.271 OA
BRANCH  20  21
ATOM     21  C   UNL d   1     -38.316  13.919  16.341  0.00  0.00     0.126 C 
ATOM     22  C   UNL d   1     -38.274  14.507  15.782  0.00  0.00     0.029 C 
ENDBRANCH  20  21
ENDBRANCH  18  20
ENDBRANCH  15  18
ENDBRANCH   1  12
BRANCH   1  23
ATOM     23  C   UNL d   1     -39.078  14.070  21.403  0.00  0.00     0.098 A 
ATOM     24  N   UNL d   1     -38.974  13.319  21.702  0.00  0.00    -0.243 NA
ATOM     25  C   UNL d   1     -38.509  13.196  22.361  0.00  0.00     0.099 A 
ATOM     26  C   UNL d   1     -38.145  13.834  22.726  0.00  0.00     0.021 A 
ATOM     27  C   UNL d   1     -38.241  14.594  22.435  0.00  0.00     0.003 A 
ATOM     28  C   UNL d   1     -38.709  14.732  21.768  0.00  0.00     0.021 A 
ENDBRANCH   1  23
TORSDOF 6
ENDMDL
