MODEL 1
REMARK VINA RESULT:       5.1      0.000      0.000
REMARK  7 active torsions:
REMARK  status: ('A' for Active; 'I' for Inactive)
REMARK    1  A    between atoms: C_19  and  N_5 
REMARK    2  A    between atoms: C_12  and  C_6 
REMARK       I    between atoms: N_20  and  C_12 
REMARK    3  A    between atoms: C_21  and  C_19 
REMARK    4  A    between atoms: C_26  and  N_20 
REMARK    5  A    between atoms: C_23  and  C_26 
REMARK    6  A    between atoms: C_27  and  C_23 
REMARK    7  A    between atoms: O_24  and  C_27 
ROOT
ATOM      1  C   UNL d   1      56.427   0.541  33.709  0.00  0.00     0.155 A 
ATOM      2  C   UNL d   1      55.832   0.517  33.139  0.00  0.00     0.091 A 
ATOM      3  N   UNL d   1      56.232   0.589  34.508  0.00  0.00    -0.210 NA
ATOM      4  N   UNL d   1      54.836   0.587  34.157  0.00  0.00    -0.258 N 
ATOM      5  N   UNL d   1      57.218   0.519  33.482  0.00  0.00    -0.274 N 
ATOM      6  C   UNL d   1      56.833   0.446  32.110  0.00  0.00     0.094 A 
ATOM      7  C   UNL d   1      55.032   0.539  33.357  0.00  0.00     0.269 A 
ATOM      8  C   UNL d   1      57.425   0.471  32.684  0.00  0.00     0.175 A 
ATOM      9  C   UNL d   1      55.438   0.612  34.738  0.00  0.00     0.152 A 
ATOM     10  C   UNL d   1      56.033   0.469  32.329  0.00  0.00     0.016 A 
ATOM     11  C   UNL d   1      54.042   0.610  34.387  0.00  0.00     0.084 A 
ATOM     12  C   UNL d   1      55.239   0.659  35.534  0.00  0.00     0.038 A 
ATOM     13  N   UNL d   1      58.222   0.448  32.455  0.00  0.00    -0.128 N 
ATOM     14  C   UNL d   1      53.847   0.657  35.185  0.00  0.00     0.018 A 
ATOM     15  C   UNL d   1      54.451   0.682  35.764  0.00  0.00     0.005 A 
ATOM     16  O   UNL d   1      54.442   0.514  32.781  0.00  0.00    -0.266 OA
ATOM     17  C   UNL d   1      53.057   0.680  35.425  0.00  0.00     0.002 C 
ENDROOT
BRANCH   6  18
ATOM     18  C   UNL d   1      57.031   0.399  31.314  0.00  0.00     0.282 C 
ATOM     19  O   UNL d   1      56.513   0.682  30.737  0.00  0.00    -0.265 OA
ATOM     20  N   UNL d   1      57.750   0.068  31.087  0.00  0.00    -0.206 NA
BRANCH  20  21
ATOM     21  C   UNL d   1      57.960   0.015  30.291  0.00  0.00     0.104 C 
BRANCH  21  22
ATOM     22  C   UNL d   1      58.157  -0.708  29.953  0.00  0.00     0.047 C 
BRANCH  22  23
ATOM     23  C   UNL d   1      58.661  -0.727  29.300  0.00  0.00     0.118 C 
BRANCH  23  24
ATOM     24  O   UNL d   1      59.153  -1.379  29.168  0.00  0.00    -0.326 OA
ATOM     25  C   UNL d   1      59.861  -1.292  28.753  0.00  0.00     0.181 C 
ENDBRANCH  23  24
ENDBRANCH  22  23
ENDBRANCH  21  22
ENDBRANCH  20  21
ENDBRANCH   6  18
BRANCH   5  26
ATOM     26  C   UNL d   1      57.814   0.543  34.052  0.00  0.00     0.083 C 
BRANCH  26  27
ATOM     27  C   UNL d   1      58.597   0.372  33.850  0.00  0.00     0.019 C 
ATOM     28  C   UNL d   1      59.219   0.682  34.295  0.00  0.00     0.002 C 
ENDBRANCH  26  27
ENDBRANCH   5  26
TORSDOF 7
ENDMDL
MODEL 2
REMARK VINA RESULT:       6.4      1.664      2.552
REMARK  7 active torsions:
REMARK  status: ('A' for Active; 'I' for Inactive)
REMARK    1  A    between atoms: C_19  and  N_5 
REMARK    2  A    between atoms: C_12  and  C_6 
REMARK       I    between atoms: N_20  and  C_12 
REMARK    3  A    between atoms: C_21  and  C_19 
REMARK    4  A    between atoms: C_26  and  N_20 
REMARK    5  A    between atoms: C_23  and  C_26 
REMARK    6  A    between atoms: C_27  and  C_23 
REMARK    7  A    between atoms: O_24  and  C_27 
ROOT
ATOM      1  C   UNL d   1      57.099   0.508  32.365  0.00  0.00     0.155 A 
ATOM      2  C   UNL d   1      57.604   0.575  33.014  0.00  0.00     0.091 A 
ATOM      3  N   UNL d   1      56.285   0.469  32.478  0.00  0.00    -0.210 NA
ATOM      4  N   UNL d   1      56.488   0.565  33.900  0.00  0.00    -0.258 N 
ATOM      5  N   UNL d   1      57.409   0.481  31.602  0.00  0.00    -0.274 N 
ATOM      6  C   UNL d   1      58.733   0.586  32.123  0.00  0.00     0.094 A 
ATOM      7  C   UNL d   1      57.303   0.604  33.786  0.00  0.00     0.269 A 
ATOM      8  C   UNL d   1      58.224   0.519  31.477  0.00  0.00     0.175 A 
ATOM      9  C   UNL d   1      55.972   0.497  33.244  0.00  0.00     0.152 A 
ATOM     10  C   UNL d   1      58.431   0.615  32.896  0.00  0.00     0.016 A 
ATOM     11  C   UNL d   1      56.175   0.592  34.665  0.00  0.00     0.084 A 
ATOM     12  C   UNL d   1      55.160   0.458  33.361  0.00  0.00     0.038 A 
ATOM     13  N   UNL d   1      58.535   0.491  30.709  0.00  0.00    -0.128 N 
ATOM     14  C   UNL d   1      55.361   0.553  34.778  0.00  0.00     0.018 A 
ATOM     15  C   UNL d   1      54.848   0.485  34.120  0.00  0.00     0.005 A 
ATOM     16  O   UNL d   1      57.814   0.671  34.430  0.00  0.00    -0.266 OA
ATOM     17  C   UNL d   1      55.039   0.580  35.539  0.00  0.00     0.002 C 
ENDROOT
BRANCH   6  18
ATOM     18  C   UNL d   1      59.545   0.625  32.007  0.00  0.00     0.282 C 
ATOM     19  O   UNL d   1      60.059   0.648  32.653  0.00  0.00    -0.265 OA
ATOM     20  N   UNL d   1      59.852   0.641  31.243  0.00  0.00    -0.206 NA
BRANCH  20  21
ATOM     21  C   UNL d   1      60.666   0.680  31.114  0.00  0.00     0.104 C 
BRANCH  21  22
ATOM     22  C   UNL d   1      61.026   0.213  30.541  0.00  0.00     0.047 C 
BRANCH  22  23
ATOM     23  C   UNL d   1      60.781   0.273  29.755  0.00  0.00     0.118 C 
BRANCH  23  24
ATOM     24  O   UNL d   1      61.130  -0.196  29.170  0.00  0.00    -0.326 OA
ATOM     25  C   UNL d   1      60.690  -0.774  28.778  0.00  0.00     0.181 C 
ENDBRANCH  23  24
ENDBRANCH  22  23
ENDBRANCH  21  22
ENDBRANCH  20  21
ENDBRANCH   6  18
BRANCH   5  26
ATOM     26  C   UNL d   1      56.904   0.414  30.953  0.00  0.00     0.083 C 
BRANCH  26  27
ATOM     27  C   UNL d   1      57.201   0.210  30.209  0.00  0.00     0.019 C 
ATOM     28  C   UNL d   1      57.016   0.669  29.548  0.00  0.00     0.002 C 
ENDBRANCH  26  27
ENDBRANCH   5  26
TORSDOF 7
ENDMDL
