MODEL 1
REMARK VINA RESULT:      -2.5      0.000      0.000
REMARK  2 active torsions:
REMARK  status: ('A' for Active; 'I' for Inactive)
REMARK    1  A    between atoms: C_2  and  P_1 
REMARK    2  A    between atoms: C_7  and  C_2 
ROOT
ATOM      1  C   UNL d   1      32.477  22.415 -20.714  0.00  0.00     0.194 C 
ATOM      2  N   UNL d   1      32.737  22.627 -19.953  0.00  0.00    -0.138 N 
ENDROOT
BRANCH   1   3
ATOM      3  P   UNL d   1      32.394  21.604 -20.895  0.00  0.00     0.317 P 
ATOM      4  O   UNL d   1      32.322  20.813 -21.072  0.00  0.00    -0.635 OA
ATOM      5  O   UNL d   1      33.232  21.561 -20.987  0.00  0.00    -0.635 OA
ATOM      6  O   UNL d   1      31.566  21.649 -20.803  0.00  0.00    -0.635 OA
ENDBRANCH   1   3
BRANCH   1   7
ATOM      7  C   UNL d   1      32.304  22.995 -21.276  0.00  0.00     0.029 C 
ATOM      8  C   UNL d   1      32.662  22.973 -22.011  0.00  0.00     0.002 C 
ATOM      9  C   UNL d   1      31.768  23.594 -21.088  0.00  0.00     0.002 C 
ENDBRANCH   1   7
TORSDOF 2
ENDMDL
MODEL 2
REMARK VINA RESULT:      -2.3      1.396      1.798
REMARK  2 active torsions:
REMARK  status: ('A' for Active; 'I' for Inactive)
REMARK    1  A    between atoms: C_2  and  P_1 
REMARK    2  A    between atoms: C_7  and  C_2 
ROOT
ATOM      1  C   UNL d   1      32.836  21.442 -20.914  0.00  0.00     0.194 C 
ATOM      2  N   UNL d   1      33.241  21.295 -20.202  0.00  0.00    -0.138 N 
ENDROOT
BRANCH   1   3
ATOM      3  P   UNL d   1      32.249  22.036 -20.923  0.00  0.00     0.317 P 
ATOM      4  O   UNL d   1      31.683  22.621 -20.932  0.00  0.00    -0.635 OA
ATOM      5  O   UNL d   1      32.863  22.612 -20.990  0.00  0.00    -0.635 OA
ATOM      6  O   UNL d   1      31.645  21.465 -20.856  0.00  0.00    -0.635 OA
ENDBRANCH   1   3
BRANCH   1   7
ATOM      7  C   UNL d   1      33.012  21.009 -21.595  0.00  0.00     0.029 C 
ATOM      8  C   UNL d   1      33.241  21.395 -22.278  0.00  0.00     0.002 C 
ATOM      9  C   UNL d   1      32.954  20.186 -21.577  0.00  0.00     0.002 C 
ENDBRANCH   1   7
TORSDOF 2
ENDMDL
MODEL 3
REMARK VINA RESULT:      -2.0      7.409      7.674
REMARK  2 active torsions:
REMARK  status: ('A' for Active; 'I' for Inactive)
REMARK    1  A    between atoms: C_2  and  P_1 
REMARK    2  A    between atoms: C_7  and  C_2 
ROOT
ATOM      1  C   UNL d   1      29.058  15.994 -23.971  0.00  0.00     0.194 C 
ATOM      2  N   UNL d   1      28.821  15.453 -24.557  0.00  0.00    -0.138 N 
ENDROOT
BRANCH   1   3
ATOM      3  P   UNL d   1      28.756  16.771 -24.002  0.00  0.00     0.317 P 
ATOM      4  O   UNL d   1      28.456  17.528 -24.028  0.00  0.00    -0.635 OA
ATOM      5  O   UNL d   1      28.112  16.518 -23.519  0.00  0.00    -0.635 OA
ATOM      6  O   UNL d   1      29.394  17.019 -24.480  0.00  0.00    -0.635 OA
ENDBRANCH   1   3
BRANCH   1   7
ATOM      7  C   UNL d   1      29.580  15.764 -23.373  0.00  0.00     0.029 C 
ATOM      8  C   UNL d   1      29.292  15.459 -22.672  0.00  0.00     0.002 C 
ATOM      9  C   UNL d   1      30.393  15.847 -23.493  0.00  0.00     0.002 C 
ENDBRANCH   1   7
TORSDOF 2
ENDMDL
