MODEL 1
REMARK VINA RESULT:       9.6      0.000      0.000
REMARK  0 active torsions:
REMARK  status: ('A' for Active; 'I' for Inactive)
ROOT
ATOM      1  N   UNL d   1     -52.581  25.193  33.321  0.00  0.00    -0.183 NA
ATOM      2  C   UNL d   1     -52.463  24.375  33.333  0.00  0.00     0.339 A 
ATOM      3  N   UNL d   1     -51.054  24.589  33.342  0.00  0.00    -0.201 NA
ATOM      4  C   UNL d   1     -51.706  24.076  33.343  0.00  0.00     0.337 A 
ATOM      5  C   UNL d   1     -51.936  25.706  33.320  0.00  0.00     0.184 A 
ATOM      6  C   UNL d   1     -51.179  25.407  33.330  0.00  0.00     0.121 A 
ATOM      7  N   UNL d   1     -52.055  26.523  33.308  0.00  0.00    -0.223 NA
ATOM      8  C   UNL d   1     -50.528  25.919  33.329  0.00  0.00     0.031 A 
ATOM      9  O   UNL d   1     -53.110  23.855  33.334  0.00  0.00    -0.260 OA
ATOM     10  O   UNL d   1     -51.583  23.251  33.355  0.00  0.00    -0.260 OA
ATOM     11  C   UNL d   1     -50.653  26.738  33.318  0.00  0.00     0.055 A 
ATOM     12  C   UNL d   1     -51.410  27.037  33.307  0.00  0.00     0.107 A 
ATOM     13 BR   UNL d   1     -50.012  27.257  33.316  0.00  0.00    -0.048 Br
ENDROOT
TORSDOF 0
ENDMDL
MODEL 2
REMARK VINA RESULT:      11.8      1.800      2.185
REMARK  0 active torsions:
REMARK  status: ('A' for Active; 'I' for Inactive)
ROOT
ATOM      1  N   UNL d   1     -52.424  24.889  33.306  0.00  0.00    -0.183 NA
ATOM      2  C   UNL d   1     -53.137  24.471  33.320  0.00  0.00     0.339 A 
ATOM      3  N   UNL d   1     -52.406  23.248  33.361  0.00  0.00    -0.201 NA
ATOM      4  C   UNL d   1     -53.128  23.657  33.347  0.00  0.00     0.337 A 
ATOM      5  C   UNL d   1     -51.706  24.487  33.320  0.00  0.00     0.184 A 
ATOM      6  C   UNL d   1     -51.697  23.673  33.347  0.00  0.00     0.121 A 
ATOM      7  N   UNL d   1     -50.994  24.905  33.306  0.00  0.00    -0.223 NA
ATOM      8  C   UNL d   1     -50.976  23.264  33.361  0.00  0.00     0.031 A 
ATOM      9  O   UNL d   1     -53.863  24.874  33.306  0.00  0.00    -0.260 OA
ATOM     10  O   UNL d   1     -53.845  23.233  33.361  0.00  0.00    -0.260 OA
ATOM     11  C   UNL d   1     -50.265  23.689  33.347  0.00  0.00     0.055 A 
ATOM     12  C   UNL d   1     -50.274  24.502  33.320  0.00  0.00     0.107 A 
ATOM     13 BR   UNL d   1     -49.542  23.292  33.361  0.00  0.00    -0.048 Br
ENDROOT
TORSDOF 0
ENDMDL
