MODEL 1
REMARK VINA RESULT:      10.9      0.000      0.000
REMARK  2 active torsions:
REMARK  status: ('A' for Active; 'I' for Inactive)
REMARK    1  A    between atoms: C_6  and  C_1 
REMARK    2  A    between atoms: O_15  and  C_12 
ROOT
ATOM      1  C   UNL d   1      14.574  12.350  -1.099  0.00  0.00     0.128 A 
ATOM      2  C   UNL d   1      13.857  11.988  -0.830  0.00  0.00     0.306 A 
ATOM      3  C   UNL d   1      14.664  12.505  -1.896  0.00  0.00     0.013 A 
ATOM      4  O   UNL d   1      13.283  11.808  -1.378  0.00  0.00    -0.273 OA
ATOM      5  C   UNL d   1      14.091  12.323  -2.424  0.00  0.00     0.025 A 
ATOM      6  C   UNL d   1      13.374  11.961  -2.156  0.00  0.00     0.103 A 
ATOM      7  O   UNL d   1      13.756  11.825  -0.015  0.00  0.00    -0.259 OA
ATOM      8  C   UNL d   1      14.178  12.478  -3.228  0.00  0.00     0.026 A 
ATOM      9  C   UNL d   1      12.797  11.781  -2.710  0.00  0.00     0.027 A 
ATOM     10  C   UNL d   1      13.595  12.295  -3.786  0.00  0.00     0.094 A 
ATOM     11  C   UNL d   1      12.878  11.933  -3.517  0.00  0.00     0.026 A 
ENDROOT
BRANCH   1  12
ATOM     12  C   UNL d   1      15.179  12.543  -0.548  0.00  0.00     0.216 C 
ATOM     13  O   UNL d   1      15.676  11.955  -0.260  0.00  0.00    -0.644 OA
ATOM     14  O   UNL d   1      15.273  13.333  -0.296  0.00  0.00    -0.644 OA
ENDBRANCH   1  12
BRANCH  10  15
ATOM     15  O   UNL d   1      13.705  12.461  -4.590  0.00  0.00    -0.328 OA
ATOM     16  C   UNL d   1      13.208  12.131  -5.156  0.00  0.00     0.181 C 
ENDBRANCH  10  15
TORSDOF 2
ENDMDL
MODEL 2
REMARK VINA RESULT:      13.7      0.970      3.412
REMARK  2 active torsions:
REMARK  status: ('A' for Active; 'I' for Inactive)
REMARK    1  A    between atoms: C_6  and  C_1 
REMARK    2  A    between atoms: O_15  and  C_12 
ROOT
ATOM      1  C   UNL d   1      13.570  12.917  -3.619  0.00  0.00     0.128 A 
ATOM      2  C   UNL d   1      13.245  12.150  -3.470  0.00  0.00     0.306 A 
ATOM      3  C   UNL d   1      14.030  13.270  -3.043  0.00  0.00     0.013 A 
ATOM      4  O   UNL d   1      13.404  11.792  -2.756  0.00  0.00    -0.273 OA
ATOM      5  C   UNL d   1      14.178  12.907  -2.346  0.00  0.00     0.025 A 
ATOM      6  C   UNL d   1      13.853  12.139  -2.197  0.00  0.00     0.103 A 
ATOM      7  O   UNL d   1      12.772  11.780  -4.054  0.00  0.00    -0.259 OA
ATOM      8  C   UNL d   1      14.641  13.260  -1.764  0.00  0.00     0.026 A 
ATOM      9  C   UNL d   1      14.015  11.781  -1.477  0.00  0.00     0.027 A 
ATOM     10  C   UNL d   1      14.803  12.896  -1.038  0.00  0.00     0.094 A 
ATOM     11  C   UNL d   1      14.478  12.128  -0.889  0.00  0.00     0.026 A 
ENDROOT
BRANCH   1  12
ATOM     12  C   UNL d   1      13.418  13.304  -4.349  0.00  0.00     0.216 C 
ATOM     13  O   UNL d   1      13.048  14.038  -4.357  0.00  0.00    -0.644 OA
ATOM     14  O   UNL d   1      13.642  12.939  -5.066  0.00  0.00    -0.644 OA
ENDBRANCH   1  12
BRANCH  10  15
ATOM     15  O   UNL d   1      15.272  13.272  -0.467  0.00  0.00    -0.328 OA
ATOM     16  C   UNL d   1      14.977  13.908  -0.039  0.00  0.00     0.181 C 
ENDBRANCH  10  15
TORSDOF 2
ENDMDL
