MODEL 1
REMARK VINA RESULT:      13.4      0.000      0.000
REMARK  2 active torsions:
REMARK  status: ('A' for Active; 'I' for Inactive)
REMARK    1  A    between atoms: C_3  and  C_1 
REMARK       I    between atoms: N_7  and  C_3 
REMARK    2  A    between atoms: C_11  and  N_7 
ROOT
ATOM      1  C   UNL d   1      46.208 -17.894  43.715  0.00  0.00     0.121 A 
ATOM      2  C   UNL d   1      46.227 -18.603  44.133  0.00  0.00     0.305 A 
ATOM      3  C   UNL d   1      46.303 -17.895  42.896  0.00  0.00     0.012 A 
ATOM      4  O   UNL d   1      46.341 -19.308  43.729  0.00  0.00    -0.273 OA
ATOM      5  C   UNL d   1      46.417 -18.607  42.496  0.00  0.00     0.023 A 
ATOM      6  C   UNL d   1      46.436 -19.316  42.914  0.00  0.00     0.103 A 
ATOM      7  O   UNL d   1      46.131 -18.591  44.955  0.00  0.00    -0.259 OA
ATOM      8  C   UNL d   1      46.510 -18.604  41.683  0.00  0.00     0.002 A 
ATOM      9  C   UNL d   1      46.548 -20.018  42.516  0.00  0.00     0.025 A 
ATOM     10  C   UNL d   1      46.625 -19.321  41.276  0.00  0.00     0.000 A 
ATOM     11  C   UNL d   1      46.644 -20.029  41.694  0.00  0.00     0.002 A 
ENDROOT
BRANCH   1  12
ATOM     12  C   UNL d   1      46.093 -17.178  44.122  0.00  0.00     0.284 C 
ATOM     13  N   UNL d   1      45.802 -16.525  43.724  0.00  0.00    -0.208 NA
ATOM     14  O   UNL d   1      46.272 -17.124  44.931  0.00  0.00    -0.265 OA
BRANCH  13  15
ATOM     15  C   UNL d   1      45.690 -15.816  44.130  0.00  0.00     0.085 A 
ATOM     16  C   UNL d   1      44.981 -15.681  44.542  0.00  0.00     0.019 A 
ATOM     17  C   UNL d   1      44.874 -14.966  44.949  0.00  0.00     0.002 A 
ATOM     18  C   UNL d   1      45.464 -14.387  44.950  0.00  0.00     0.000 A 
ATOM     19  C   UNL d   1      46.173 -14.522  44.538  0.00  0.00     0.002 A 
ATOM     20  C   UNL d   1      46.288 -15.223  44.133  0.00  0.00     0.019 A 
ENDBRANCH  13  15
ENDBRANCH   1  12
TORSDOF 2
ENDMDL
