MODEL 1
REMARK VINA RESULT:      66.9      0.000      0.000
REMARK  2 active torsions:
REMARK  status: ('A' for Active; 'I' for Inactive)
REMARK    1  A    between atoms: N_9  and  C_2 
REMARK    2  A    between atoms: C_4  and  N_10 
ROOT
ATOM      1  C   UNL d   1      45.982 -17.974  41.565  0.00  0.00     0.152 A 
ATOM      2  C   UNL d   1      46.012 -18.285  40.801  0.00  0.00     0.174 A 
ATOM      3  C   UNL d   1      46.173 -18.448  42.212  0.00  0.00     0.111 A 
ATOM      4  O   UNL d   1      45.784 -17.225  41.848  0.00  0.00    -0.302 OA
ATOM      5  N   UNL d   1      46.234 -19.071  40.684  0.00  0.00    -0.207 NA
ATOM      6  C   UNL d   1      46.095 -17.995  42.895  0.00  0.00     0.043 A 
ATOM      7  N   UNL d   1      46.395 -19.234  42.095  0.00  0.00    -0.225 NA
ATOM      8  C   UNL d   1      45.854 -17.237  42.670  0.00  0.00     0.102 A 
ATOM      9  C   UNL d   1      46.425 -19.544  41.331  0.00  0.00     0.164 A 
ATOM     10  C   UNL d   1      46.211 -18.171  43.691  0.00  0.00     0.004 A 
ATOM     11  C   UNL d   1      45.729 -16.656  43.244  0.00  0.00     0.025 A 
ATOM     12  C   UNL d   1      46.647 -20.330  41.214  0.00  0.00     0.042 C 
ATOM     13  C   UNL d   1      46.086 -17.590  44.265  0.00  0.00     0.000 A 
ATOM     14  C   UNL d   1      45.845 -16.832  44.041  0.00  0.00     0.002 A 
ENDROOT
BRANCH   2  15
ATOM     15  N   UNL d   1      45.820 -17.809  40.155  0.00  0.00    -0.285 N 
ATOM     16  C   UNL d   1      45.034 -17.747  39.910  0.00  0.00     0.101 A 
ATOM     17  C   UNL d   1      44.841 -17.271  39.264  0.00  0.00     0.117 A 
ATOM     18  N   UNL d   1      45.434 -16.858  38.864  0.00  0.00    -0.135 N 
ATOM     19  C   UNL d   1      46.218 -16.921  39.110  0.00  0.00     0.117 A 
ATOM     20  C   UNL d   1      46.411 -17.396  39.755  0.00  0.00     0.101 A 
BRANCH  18  21
ATOM     21  C   UNL d   1      45.240 -16.382  38.218  0.00  0.00     0.735 A 
ATOM     22  N   UNL d   1      44.496 -16.445  37.868  0.00  0.00    -0.060 NA
ATOM     23  C   UNL d   1      44.301 -15.971  37.223  0.00  0.00     0.101 A 
ATOM     24  C   UNL d   1      43.556 -16.033  36.873  0.00  0.00     0.021 C 
ATOM     25  C   UNL d   1      44.851 -15.431  36.926  0.00  0.00     0.040 A 
ATOM     26  C   UNL d   1      45.595 -15.368  37.276  0.00  0.00     0.101 A 
ATOM     27  N   UNL d   1      45.790 -15.844  37.922  0.00  0.00    -0.060 NA
ATOM     28  C   UNL d   1      46.146 -14.830  36.980  0.00  0.00     0.021 C 
ENDBRANCH  18  21
ENDBRANCH   2  15
TORSDOF 2
ENDMDL
MODEL 2
REMARK VINA RESULT:      69.1      3.301      5.919
REMARK  2 active torsions:
REMARK  status: ('A' for Active; 'I' for Inactive)
REMARK    1  A    between atoms: N_9  and  C_2 
REMARK    2  A    between atoms: C_4  and  N_10 
ROOT
ATOM      1  C   UNL d   1      45.511 -13.968  43.154  0.00  0.00     0.152 A 
ATOM      2  C   UNL d   1      45.955 -14.369  43.723  0.00  0.00     0.174 A 
ATOM      3  C   UNL d   1      45.446 -13.146  43.186  0.00  0.00     0.111 A 
ATOM      4  O   UNL d   1      45.080 -14.232  42.502  0.00  0.00    -0.302 OA
ATOM      5  N   UNL d   1      46.333 -13.949  44.323  0.00  0.00    -0.207 NA
ATOM      6  C   UNL d   1      44.976 -12.901  42.556  0.00  0.00     0.043 A 
ATOM      7  N   UNL d   1      45.824 -12.726  43.786  0.00  0.00    -0.225 NA
ATOM      8  C   UNL d   1      44.749 -13.574  42.132  0.00  0.00     0.102 A 
ATOM      9  C   UNL d   1      46.268 -13.129  44.355  0.00  0.00     0.164 A 
ATOM     10  C   UNL d   1      44.724 -12.156  42.311  0.00  0.00     0.004 A 
ATOM     11  C   UNL d   1      44.270 -13.498  41.463  0.00  0.00     0.025 A 
ATOM     12  C   UNL d   1      46.646 -12.709  44.955  0.00  0.00     0.042 C 
ATOM     13  C   UNL d   1      44.245 -12.081  41.642  0.00  0.00     0.000 A 
ATOM     14  C   UNL d   1      44.018 -12.753  41.219  0.00  0.00     0.002 A 
ENDROOT
BRANCH   2  15
ATOM     15  N   UNL d   1      46.019 -15.192  43.689  0.00  0.00    -0.285 N 
ATOM     16  C   UNL d   1      45.517 -15.661  44.145  0.00  0.00     0.101 A 
ATOM     17  C   UNL d   1      45.580 -16.484  44.113  0.00  0.00     0.117 A 
ATOM     18  N   UNL d   1      46.145 -16.835  43.624  0.00  0.00    -0.135 N 
ATOM     19  C   UNL d   1      46.646 -16.365  43.169  0.00  0.00     0.117 A 
ATOM     20  C   UNL d   1      46.583 -15.543  43.201  0.00  0.00     0.101 A 
BRANCH  18  21
ATOM     21  C   UNL d   1      46.208 -17.657  43.592  0.00  0.00     0.735 A 
ATOM     22  N   UNL d   1      46.204 -18.043  42.863  0.00  0.00    -0.060 NA
ATOM     23  C   UNL d   1      46.266 -18.863  42.829  0.00  0.00     0.101 A 
ATOM     24  C   UNL d   1      46.262 -19.249  42.099  0.00  0.00     0.021 C 
ATOM     25  C   UNL d   1      46.333 -19.302  43.526  0.00  0.00     0.040 A 
ATOM     26  C   UNL d   1      46.337 -18.916  44.255  0.00  0.00     0.101 A 
ATOM     27  N   UNL d   1      46.274 -18.094  44.288  0.00  0.00    -0.060 NA
ATOM     28  C   UNL d   1      46.403 -19.352  44.952  0.00  0.00     0.021 C 
ENDBRANCH  18  21
ENDBRANCH   2  15
TORSDOF 2
ENDMDL
