MODEL 1
REMARK VINA RESULT:      26.3      0.000      0.000
REMARK  3 active torsions:
REMARK  status: ('A' for Active; 'I' for Inactive)
REMARK    1  A    between atoms: N_2  and  S_1 
REMARK    2  A    between atoms: C_3  and  S_1 
REMARK    3  A    between atoms: C_4  and  N_2 
ROOT
ATOM      1  S   UNL d   1      14.669  12.635  -0.932  0.00  0.00     0.287 S 
ATOM      2  O   UNL d   1      15.147  12.774  -0.269  0.00  0.00    -0.198 OA
ATOM      3  O   UNL d   1      14.887  11.840  -0.919  0.00  0.00    -0.198 OA
ENDROOT
BRANCH   1   4
ATOM      4  N   UNL d   1      14.456  13.432  -0.940  0.00  0.00    -0.139 NA
BRANCH   4   5
ATOM      5  C   UNL d   1      14.959  14.005  -0.632  0.00  0.00     0.175 A 
ATOM      6  N   UNL d   1      14.747  14.799  -0.646  0.00  0.00    -0.226 NA
ATOM      7  C   UNL d   1      15.239  15.321  -0.348  0.00  0.00     0.083 A 
ATOM      8  C   UNL d   1      15.054  16.132  -0.347  0.00  0.00     0.021 C 
ATOM      9  C   UNL d   1      15.962  15.096  -0.021  0.00  0.00     0.019 A 
ATOM     10  C   UNL d   1      16.144  14.365  -0.014  0.00  0.00     0.005 A 
ATOM     11  C   UNL d   1      15.682  13.780  -0.304  0.00  0.00     0.040 A 
ENDBRANCH   4   5
ENDBRANCH   1   4
BRANCH   1  12
ATOM     12  C   UNL d   1      14.200  12.494  -1.584  0.00  0.00     0.105 A 
ATOM     13  C   UNL d   1      14.340  12.897  -2.291  0.00  0.00     0.013 A 
ATOM     14  C   UNL d   1      13.864  12.753  -2.948  0.00  0.00     0.001 A 
ATOM     15  C   UNL d   1      14.002  13.153  -3.650  0.00  0.00     0.000 A 
ATOM     16  C   UNL d   1      13.248  12.205  -2.901  0.00  0.00     0.000 A 
ATOM     17  C   UNL d   1      13.527  13.011  -4.313  0.00  0.00     0.000 A 
ATOM     18  C   UNL d   1      12.907  12.459  -4.263  0.00  0.00     0.000 A 
ATOM     19  C   UNL d   1      12.769  12.058  -3.561  0.00  0.00     0.000 A 
ATOM     20  C   UNL d   1      13.109  11.802  -2.195  0.00  0.00     0.001 A 
ATOM     21  C   UNL d   1      13.586  11.948  -1.538  0.00  0.00     0.013 A 
ENDBRANCH   1  12
TORSDOF 3
ENDMDL
MODEL 2
REMARK VINA RESULT:      28.0      2.169      3.496
REMARK  3 active torsions:
REMARK  status: ('A' for Active; 'I' for Inactive)
REMARK    1  A    between atoms: N_2  and  S_1 
REMARK    2  A    between atoms: C_3  and  S_1 
REMARK    3  A    between atoms: C_4  and  N_2 
ROOT
ATOM      1  S   UNL d   1      13.368  12.511  -3.567  0.00  0.00     0.287 S 
ATOM      2  O   UNL d   1      13.216  12.687  -4.362  0.00  0.00    -0.198 OA
ATOM      3  O   UNL d   1      13.683  11.782  -3.791  0.00  0.00    -0.198 OA
ENDROOT
BRANCH   1   4
ATOM      4  N   UNL d   1      13.052  13.241  -3.349  0.00  0.00    -0.139 NA
BRANCH   4   5
ATOM      5  C   UNL d   1      13.156  13.903  -3.826  0.00  0.00     0.175 A 
ATOM      6  N   UNL d   1      13.627  14.529  -3.577  0.00  0.00    -0.226 NA
ATOM      7  C   UNL d   1      13.709  15.143  -4.045  0.00  0.00     0.083 A 
ATOM      8  C   UNL d   1      14.179  15.792  -3.822  0.00  0.00     0.021 C 
ATOM      9  C   UNL d   1      13.335  15.179  -4.780  0.00  0.00     0.019 A 
ATOM     10  C   UNL d   1      12.906  14.599  -4.996  0.00  0.00     0.005 A 
ATOM     11  C   UNL d   1      12.782  13.940  -4.560  0.00  0.00     0.040 A 
ENDBRANCH   4   5
ENDBRANCH   1   4
BRANCH   1  12
ATOM     12  C   UNL d   1      13.519  12.333  -2.785  0.00  0.00     0.105 A 
ATOM     13  C   UNL d   1      14.251  12.517  -2.452  0.00  0.00     0.013 A 
ATOM     14  C   UNL d   1      14.401  12.336  -1.662  0.00  0.00     0.001 A 
ATOM     15  C   UNL d   1      15.129  12.519  -1.331  0.00  0.00     0.000 A 
ATOM     16  C   UNL d   1      13.820  11.972  -1.204  0.00  0.00     0.000 A 
ATOM     17  C   UNL d   1      15.284  12.339  -0.538  0.00  0.00     0.000 A 
ATOM     18  C   UNL d   1      14.696  11.972  -0.078  0.00  0.00     0.000 A 
ATOM     19  C   UNL d   1      13.969  11.790  -0.409  0.00  0.00     0.000 A 
ATOM     20  C   UNL d   1      13.088  11.788  -1.536  0.00  0.00     0.001 A 
ATOM     21  C   UNL d   1      12.940  11.970  -2.327  0.00  0.00     0.013 A 
ENDBRANCH   1  12
TORSDOF 3
ENDMDL
