MODEL 1
REMARK VINA RESULT:      -9.0      0.000      0.000
REMARK  3 active torsions:
REMARK  status: ('A' for Active; 'I' for Inactive)
REMARK    1  A    between atoms: N_2  and  C_1 
REMARK       I    between atoms: C_4  and  N_2 
REMARK    2  A    between atoms: C_8  and  C_4 
REMARK    3  A    between atoms: C_10  and  C_5 
ROOT
ATOM      1  C   UNL d   1      51.868  33.203  53.286  0.00  0.00     0.197 A 
ATOM      2  N   UNL d   1      52.363  33.576  53.811  0.00  0.00    -0.221 NA
ATOM      3  C   UNL d   1      53.084  33.108  53.803  0.00  0.00     0.090 A 
ATOM      4  S   UNL d   1      52.228  32.535  52.949  0.00  0.00    -0.046 SA
ATOM      5  C   UNL d   1      52.973  32.475  53.263  0.00  0.00     0.058 A 
ENDROOT
BRANCH   1   6
ATOM      6  N   UNL d   1      51.082  33.463  53.105  0.00  0.00    -0.183 NA
ATOM      7  C   UNL d   1      50.989  34.128  52.594  0.00  0.00     0.281 C 
ATOM      8  O   UNL d   1      51.652  34.514  52.279  0.00  0.00    -0.265 OA
BRANCH   7   9
ATOM      9  C   UNL d   1      50.239  34.409  52.396  0.00  0.00     0.058 A 
ATOM     10  C   UNL d   1      49.953  34.256  51.646  0.00  0.00     0.005 A 
ATOM     11  C   UNL d   1      49.191  34.537  51.436  0.00  0.00     0.000 A 
ATOM     12  C   UNL d   1      48.730  34.962  51.966  0.00  0.00     0.000 A 
ATOM     13  C   UNL d   1      49.034  35.114  52.735  0.00  0.00     0.000 A 
ATOM     14  C   UNL d   1      48.039  35.226  51.796  0.00  0.00     0.000 C 
ATOM     15  C   UNL d   1      49.792  34.834  52.944  0.00  0.00     0.005 A 
ENDBRANCH   7   9
ENDBRANCH   1   6
BRANCH   3  16
ATOM     16  C   UNL d   1      53.768  33.240  54.234  0.00  0.00     0.018 A 
ATOM     17  C   UNL d   1      54.479  33.293  53.845  0.00  0.00     0.002 A 
ATOM     18  C   UNL d   1      55.186  33.427  54.271  0.00  0.00     0.000 A 
ATOM     19  C   UNL d   1      55.169  33.506  55.087  0.00  0.00     0.000 A 
ATOM     20  C   UNL d   1      54.444  33.453  55.495  0.00  0.00     0.000 A 
ATOM     21  C   UNL d   1      53.746  33.319  55.055  0.00  0.00     0.002 A 
ENDBRANCH   3  16
TORSDOF 3
ENDMDL
MODEL 2
REMARK VINA RESULT:      -8.3      1.597      4.981
REMARK  3 active torsions:
REMARK  status: ('A' for Active; 'I' for Inactive)
REMARK    1  A    between atoms: N_2  and  C_1 
REMARK       I    between atoms: C_4  and  N_2 
REMARK    2  A    between atoms: C_8  and  C_4 
REMARK    3  A    between atoms: C_10  and  C_5 
ROOT
ATOM      1  C   UNL d   1      51.665  33.246  53.216  0.00  0.00     0.197 A 
ATOM      2  N   UNL d   1      50.866  33.323  53.088  0.00  0.00    -0.221 NA
ATOM      3  C   UNL d   1      50.769  34.122  52.788  0.00  0.00     0.090 A 
ATOM      4  S   UNL d   1      52.074  33.940  53.017  0.00  0.00    -0.046 SA
ATOM      5  C   UNL d   1      51.528  34.478  52.755  0.00  0.00     0.058 A 
ENDROOT
BRANCH   1   6
ATOM      6  N   UNL d   1      52.034  32.543  53.515  0.00  0.00    -0.183 NA
ATOM      7  C   UNL d   1      52.414  32.026  52.967  0.00  0.00     0.281 C 
ATOM      8  O   UNL d   1      52.424  32.204  52.157  0.00  0.00    -0.265 OA
BRANCH   7   9
ATOM      9  C   UNL d   1      52.783  31.334  53.222  0.00  0.00     0.058 A 
ATOM     10  C   UNL d   1      52.426  30.620  53.054  0.00  0.00     0.005 A 
ATOM     11  C   UNL d   1      52.794  29.911  53.309  0.00  0.00     0.000 A 
ATOM     12  C   UNL d   1      53.503  29.921  53.724  0.00  0.00     0.000 A 
ATOM     13  C   UNL d   1      53.862  30.663  53.892  0.00  0.00     0.000 A 
ATOM     14  C   UNL d   1      53.852  29.292  53.964  0.00  0.00     0.000 C 
ATOM     15  C   UNL d   1      53.495  31.368  53.637  0.00  0.00     0.005 A 
ENDBRANCH   7   9
ENDBRANCH   1   6
BRANCH   3  16
ATOM     16  C   UNL d   1      50.070  34.489  52.568  0.00  0.00     0.018 A 
ATOM     17  C   UNL d   1      49.677  34.950  53.109  0.00  0.00     0.002 A 
ATOM     18  C   UNL d   1      48.963  35.332  52.900  0.00  0.00     0.000 A 
ATOM     19  C   UNL d   1      48.651  35.245  52.146  0.00  0.00     0.000 A 
ATOM     20  C   UNL d   1      49.048  34.774  51.584  0.00  0.00     0.000 A 
ATOM     21  C   UNL d   1      49.761  34.399  51.809  0.00  0.00     0.002 A 
ENDBRANCH   3  16
TORSDOF 3
ENDMDL
MODEL 3
REMARK VINA RESULT:      -8.1      0.912      5.111
REMARK  3 active torsions:
REMARK  status: ('A' for Active; 'I' for Inactive)
REMARK    1  A    between atoms: N_2  and  C_1 
REMARK       I    between atoms: C_4  and  N_2 
REMARK    2  A    between atoms: C_8  and  C_4 
REMARK    3  A    between atoms: C_10  and  C_5 
ROOT
ATOM      1  C   UNL d   1      50.794  34.092  52.938  0.00  0.00     0.197 A 
ATOM      2  N   UNL d   1      50.171  34.536  53.213  0.00  0.00    -0.221 NA
ATOM      3  C   UNL d   1      49.690  34.691  52.518  0.00  0.00     0.090 A 
ATOM      4  S   UNL d   1      50.736  33.959  52.120  0.00  0.00    -0.046 SA
ATOM      5  C   UNL d   1      50.061  34.325  51.861  0.00  0.00     0.058 A 
ENDROOT
BRANCH   1   6
ATOM      6  N   UNL d   1      51.424  33.802  53.425  0.00  0.00    -0.183 NA
ATOM      7  C   UNL d   1      52.170  34.195  53.392  0.00  0.00     0.281 C 
ATOM      8  O   UNL d   1      52.279  34.850  52.894  0.00  0.00    -0.265 OA
BRANCH   7   9
ATOM      9  C   UNL d   1      52.805  33.940  53.852  0.00  0.00     0.058 A 
ATOM     10  C   UNL d   1      53.092  34.441  54.429  0.00  0.00     0.005 A 
ATOM     11  C   UNL d   1      53.737  34.190  54.901  0.00  0.00     0.000 A 
ATOM     12  C   UNL d   1      54.085  33.454  54.796  0.00  0.00     0.000 A 
ATOM     13  C   UNL d   1      53.782  32.946  54.199  0.00  0.00     0.000 A 
ATOM     14  C   UNL d   1      54.670  33.208  55.213  0.00  0.00     0.000 C 
ATOM     15  C   UNL d   1      53.140  33.196  53.729  0.00  0.00     0.005 A 
ENDBRANCH   7   9
ENDBRANCH   1   6
BRANCH   3  16
ATOM     16  C   UNL d   1      48.991  35.118  52.482  0.00  0.00     0.018 A 
ATOM     17  C   UNL d   1      48.767  35.567  53.122  0.00  0.00     0.002 A 
ATOM     18  C   UNL d   1      48.057  36.008  53.101  0.00  0.00     0.000 A 
ATOM     19  C   UNL d   1      47.578  35.992  52.435  0.00  0.00     0.000 A 
ATOM     20  C   UNL d   1      47.800  35.534  51.775  0.00  0.00     0.000 A 
ATOM     21  C   UNL d   1      48.513  35.099  51.811  0.00  0.00     0.002 A 
ENDBRANCH   3  16
TORSDOF 3
ENDMDL
MODEL 4
REMARK VINA RESULT:      -6.3     10.357     11.105
REMARK  3 active torsions:
REMARK  status: ('A' for Active; 'I' for Inactive)
REMARK    1  A    between atoms: N_2  and  C_1 
REMARK       I    between atoms: C_4  and  N_2 
REMARK    2  A    between atoms: C_8  and  C_4 
REMARK    3  A    between atoms: C_10  and  C_5 
ROOT
ATOM      1  C   UNL d   1      44.398  29.945  59.789  0.00  0.00     0.197 A 
ATOM      2  N   UNL d   1      44.373  29.862  60.597  0.00  0.00    -0.221 NA
ATOM      3  C   UNL d   1      44.375  30.666  60.899  0.00  0.00     0.090 A 
ATOM      4  S   UNL d   1      44.416  30.744  59.564  0.00  0.00    -0.046 SA
ATOM      5  C   UNL d   1      44.402  31.188  60.242  0.00  0.00     0.058 A 
ENDROOT
BRANCH   1   6
ATOM      6  N   UNL d   1      44.405  29.296  59.243  0.00  0.00    -0.183 NA
ATOM      7  C   UNL d   1      45.103  29.164  58.788  0.00  0.00     0.281 C 
ATOM      8  O   UNL d   1      45.764  29.658  58.874  0.00  0.00    -0.265 OA
BRANCH   7   9
ATOM      9  C   UNL d   1      45.146  28.542  58.247  0.00  0.00     0.058 A 
ATOM     10  C   UNL d   1      45.087  28.715  57.452  0.00  0.00     0.005 A 
ATOM     11  C   UNL d   1      45.129  28.089  56.896  0.00  0.00     0.000 A 
ATOM     12  C   UNL d   1      45.228  27.310  57.133  0.00  0.00     0.000 A 
ATOM     13  C   UNL d   1      45.288  27.143  57.955  0.00  0.00     0.000 A 
ATOM     14  C   UNL d   1      45.269  26.729  56.646  0.00  0.00     0.000 C 
ATOM     15  C   UNL d   1      45.246  27.766  58.509  0.00  0.00     0.005 A 
ENDBRANCH   7   9
ENDBRANCH   1   6
BRANCH   3  16
ATOM     16  C   UNL d   1      44.355  30.903  61.683  0.00  0.00     0.018 A 
ATOM     17  C   UNL d   1      44.339  31.697  61.857  0.00  0.00     0.002 A 
ATOM     18  C   UNL d   1      44.318  31.955  62.652  0.00  0.00     0.000 A 
ATOM     19  C   UNL d   1      44.314  31.410  63.266  0.00  0.00     0.000 A 
ATOM     20  C   UNL d   1      44.331  30.594  63.096  0.00  0.00     0.000 A 
ATOM     21  C   UNL d   1      44.351  30.352  62.296  0.00  0.00     0.002 A 
ENDBRANCH   3  16
TORSDOF 3
ENDMDL
MODEL 5
REMARK VINA RESULT:      -6.3     10.348     10.927
REMARK  3 active torsions:
REMARK  status: ('A' for Active; 'I' for Inactive)
REMARK    1  A    between atoms: N_2  and  C_1 
REMARK       I    between atoms: C_4  and  N_2 
REMARK    2  A    between atoms: C_8  and  C_4 
REMARK    3  A    between atoms: C_10  and  C_5 
ROOT
ATOM      1  C   UNL d   1      44.473  30.053  60.080  0.00  0.00     0.197 A 
ATOM      2  N   UNL d   1      44.330  29.433  60.585  0.00  0.00    -0.221 NA
ATOM      3  C   UNL d   1      44.579  29.717  61.357  0.00  0.00     0.090 A 
ATOM      4  S   UNL d   1      44.793  30.705  60.481  0.00  0.00    -0.046 SA
ATOM      5  C   UNL d   1      44.859  30.502  61.263  0.00  0.00     0.058 A 
ENDROOT
BRANCH   1   6
ATOM      6  N   UNL d   1      44.314  30.036  59.247  0.00  0.00    -0.183 NA
ATOM      7  C   UNL d   1      44.968  29.988  58.716  0.00  0.00     0.281 C 
ATOM      8  O   UNL d   1      45.745  29.959  59.006  0.00  0.00    -0.265 OA
BRANCH   7   9
ATOM      9  C   UNL d   1      44.851  29.970  57.900  0.00  0.00     0.058 A 
ATOM     10  C   UNL d   1      44.889  29.248  57.520  0.00  0.00     0.005 A 
ATOM     11  C   UNL d   1      44.771  29.220  56.690  0.00  0.00     0.000 A 
ATOM     12  C   UNL d   1      44.620  29.899  56.254  0.00  0.00     0.000 A 
ATOM     13  C   UNL d   1      44.583  30.637  56.657  0.00  0.00     0.000 A 
ATOM     14  C   UNL d   1      44.511  29.895  55.504  0.00  0.00     0.000 C 
ATOM     15  C   UNL d   1      44.700  30.665  57.482  0.00  0.00     0.005 A 
ENDBRANCH   7   9
ENDBRANCH   1   6
BRANCH   3  16
ATOM     16  C   UNL d   1      44.554  29.311  62.068  0.00  0.00     0.018 A 
ATOM     17  C   UNL d   1      44.352  29.710  62.746  0.00  0.00     0.002 A 
ATOM     18  C   UNL d   1      44.323  29.311  63.480  0.00  0.00     0.000 A 
ATOM     19  C   UNL d   1      44.499  28.510  63.524  0.00  0.00     0.000 A 
ATOM     20  C   UNL d   1      44.707  28.093  62.833  0.00  0.00     0.000 A 
ATOM     21  C   UNL d   1      44.732  28.507  62.107  0.00  0.00     0.002 A 
ENDBRANCH   3  16
TORSDOF 3
ENDMDL
MODEL 6
REMARK VINA RESULT:      -6.0     10.365     11.199
REMARK  3 active torsions:
REMARK  status: ('A' for Active; 'I' for Inactive)
REMARK    1  A    between atoms: N_2  and  C_1 
REMARK       I    between atoms: C_4  and  N_2 
REMARK    2  A    between atoms: C_8  and  C_4 
REMARK    3  A    between atoms: C_10  and  C_5 
ROOT
ATOM      1  C   UNL d   1      44.512  29.857  59.548  0.00  0.00     0.197 A 
ATOM      2  N   UNL d   1      44.718  29.094  59.358  0.00  0.00    -0.221 NA
ATOM      3  C   UNL d   1      44.863  29.111  58.512  0.00  0.00     0.090 A 
ATOM      4  S   UNL d   1      44.518  30.349  58.881  0.00  0.00    -0.046 SA
ATOM      5  C   UNL d   1      44.732  29.896  58.245  0.00  0.00     0.058 A 
ENDROOT
BRANCH   1   6
ATOM      6  N   UNL d   1      44.316  30.116  60.331  0.00  0.00    -0.183 NA
ATOM      7  C   UNL d   1      44.927  30.453  60.806  0.00  0.00     0.281 C 
ATOM      8  O   UNL d   1      45.699  30.526  60.511  0.00  0.00    -0.265 OA
BRANCH   7   9
ATOM      9  C   UNL d   1      44.772  30.716  61.572  0.00  0.00     0.058 A 
ATOM     10  C   UNL d   1      44.634  31.513  61.688  0.00  0.00     0.005 A 
ATOM     11  C   UNL d   1      44.476  31.789  62.463  0.00  0.00     0.000 A 
ATOM     12  C   UNL d   1      44.457  31.279  63.106  0.00  0.00     0.000 A 
ATOM     13  C   UNL d   1      44.601  30.461  62.975  0.00  0.00     0.000 A 
ATOM     14  C   UNL d   1      44.316  31.509  63.815  0.00  0.00     0.000 C 
ATOM     15  C   UNL d   1      44.758  30.185  62.203  0.00  0.00     0.005 A 
ENDBRANCH   7   9
ENDBRANCH   1   6
BRANCH   3  16
ATOM     16  C   UNL d   1      45.088  28.485  58.033  0.00  0.00     0.018 A 
ATOM     17  C   UNL d   1      45.322  27.787  58.376  0.00  0.00     0.002 A 
ATOM     18  C   UNL d   1      45.555  27.139  57.901  0.00  0.00     0.000 A 
ATOM     19  C   UNL d   1      45.550  27.202  57.083  0.00  0.00     0.000 A 
ATOM     20  C   UNL d   1      45.311  27.915  56.722  0.00  0.00     0.000 A 
ATOM     21  C   UNL d   1      45.081  28.553  57.211  0.00  0.00     0.002 A 
ENDBRANCH   3  16
TORSDOF 3
ENDMDL
