MODEL 1
REMARK VINA RESULT:      -3.0      0.000      0.000
REMARK  5 active torsions:
REMARK  status: ('A' for Active; 'I' for Inactive)
REMARK    1  A    between atoms: C_9  and  C_2 
REMARK    2  A    between atoms: O_8  and  C_4 
REMARK    3  A    between atoms: C_14  and  O_8 
REMARK    4  A    between atoms: N_11  and  C_9 
REMARK    5  A    between atoms: O_20  and  C_18 
ROOT
ATOM      1  C   UNL d   1      31.287  17.105 -24.370  0.00  0.00     0.108 A 
ATOM      2  C   UNL d   1      30.647  16.716 -24.729  0.00  0.00     0.079 A 
ATOM      3  C   UNL d   1      31.900  16.663 -24.020  0.00  0.00     0.064 A 
ATOM      4  C   UNL d   1      32.568  17.882 -23.652  0.00  0.00     0.163 A 
ATOM      5  C   UNL d   1      32.531  17.049 -23.666  0.00  0.00     0.222 A 
ATOM      6  O   UNL d   1      31.309  17.935 -24.364  0.00  0.00    -0.303 OA
ATOM      7  C   UNL d   1      31.951  18.325 -24.004  0.00  0.00     0.150 A 
ATOM      8  C   UNL d   1      31.858  15.834 -24.038  0.00  0.00     0.009 A 
ATOM      9  C   UNL d   1      30.616  15.894 -24.740  0.00  0.00     0.199 A 
ATOM     10  O   UNL d   1      33.141  16.614 -23.319  0.00  0.00    -0.284 OA
ATOM     11  C   UNL d   1      31.221  15.453 -24.394  0.00  0.00     0.042 A 
ATOM     12  O   UNL d   1      29.979  15.512 -25.097  0.00  0.00    -0.286 OA
ENDROOT
BRANCH   4  13
ATOM     13  O   UNL d   1      33.202  18.265 -23.297  0.00  0.00    -0.302 OA
BRANCH  13  14
ATOM     14  C   UNL d   1      33.137  19.058 -23.083  0.00  0.00     0.102 A 
ATOM     15  C   UNL d   1      32.969  19.258 -22.302  0.00  0.00     0.049 A 
ATOM     16  C   UNL d   1      32.905  20.051 -22.088  0.00  0.00     0.096 A 
ATOM     17  C   UNL d   1      33.008  20.642 -22.654  0.00  0.00     0.024 A 
ATOM     18  C   UNL d   1      33.178  20.432 -23.443  0.00  0.00     0.004 A 
ATOM     19  C   UNL d   1      33.241  19.642 -23.650  0.00  0.00     0.025 A 
BRANCH  16  20
ATOM     20  O   UNL d   1      32.737  20.252 -21.308  0.00  0.00    -0.328 OA
ATOM     21  C   UNL d   1      32.812  21.035 -21.061  0.00  0.00     0.181 C 
ENDBRANCH  16  20
ENDBRANCH  13  14
ENDBRANCH   4  13
BRANCH   2  22
ATOM     22  C   UNL d   1      30.047  17.153 -25.071  0.00  0.00     0.086 C 
BRANCH  22  23
ATOM     23  N   UNL d   1      29.382  17.359 -24.626  0.00  0.00    -0.299 N 
ATOM     24  C   UNL d   1      29.105  16.845 -24.047  0.00  0.00     0.107 A 
ATOM     25  C   UNL d   1      28.438  17.054 -23.603  0.00  0.00     0.142 A 
ATOM     26  O   UNL d   1      28.056  17.772 -23.742  0.00  0.00    -0.300 OA
ATOM     27  C   UNL d   1      28.339  18.285 -24.326  0.00  0.00     0.142 A 
ATOM     28  C   UNL d   1      29.003  18.078 -24.768  0.00  0.00     0.107 A 
ENDBRANCH  22  23
ENDBRANCH   2  22
TORSDOF 5
ENDMDL
MODEL 2
REMARK VINA RESULT:      -1.6      2.045      5.332
REMARK  5 active torsions:
REMARK  status: ('A' for Active; 'I' for Inactive)
REMARK    1  A    between atoms: C_9  and  C_2 
REMARK    2  A    between atoms: O_8  and  C_4 
REMARK    3  A    between atoms: C_14  and  O_8 
REMARK    4  A    between atoms: N_11  and  C_9 
REMARK    5  A    between atoms: O_20  and  C_18 
ROOT
ATOM      1  C   UNL d   1      33.232  21.294 -23.025  0.00  0.00     0.108 A 
ATOM      2  C   UNL d   1      33.232  22.010 -22.604  0.00  0.00     0.079 A 
ATOM      3  C   UNL d   1      33.225  21.301 -23.858  0.00  0.00     0.064 A 
ATOM      4  C   UNL d   1      33.233  19.863 -23.868  0.00  0.00     0.163 A 
ATOM      5  C   UNL d   1      33.225  20.593 -24.272  0.00  0.00     0.222 A 
ATOM      6  O   UNL d   1      33.241  20.576 -22.609  0.00  0.00    -0.303 OA
ATOM      7  C   UNL d   1      33.241  19.857 -23.031  0.00  0.00     0.150 A 
ATOM      8  C   UNL d   1      33.217  22.030 -24.254  0.00  0.00     0.009 A 
ATOM      9  C   UNL d   1      33.224  22.727 -23.007  0.00  0.00     0.199 A 
ATOM     10  O   UNL d   1      33.217  20.595 -25.097  0.00  0.00    -0.284 OA
ATOM     11  C   UNL d   1      33.216  22.737 -23.832  0.00  0.00     0.042 A 
ATOM     12  O   UNL d   1      33.224  23.435 -22.586  0.00  0.00    -0.286 OA
ENDROOT
BRANCH   4  13
ATOM     13  O   UNL d   1      33.233  19.156 -24.286  0.00  0.00    -0.302 OA
BRANCH  13  14
ATOM     14  C   UNL d   1      32.778  18.521 -24.023  0.00  0.00     0.102 A 
ATOM     15  C   UNL d   1      32.022  18.407 -24.326  0.00  0.00     0.049 A 
ATOM     16  C   UNL d   1      31.567  17.772 -24.063  0.00  0.00     0.096 A 
ATOM     17  C   UNL d   1      31.869  17.253 -23.498  0.00  0.00     0.024 A 
ATOM     18  C   UNL d   1      32.636  17.374 -23.195  0.00  0.00     0.004 A 
ATOM     19  C   UNL d   1      33.083  18.007 -23.460  0.00  0.00     0.025 A 
BRANCH  16  20
ATOM     20  O   UNL d   1      30.810  17.658 -24.367  0.00  0.00    -0.328 OA
ATOM     21  C   UNL d   1      30.505  16.895 -24.431  0.00  0.00     0.181 C 
ENDBRANCH  16  20
ENDBRANCH  13  14
ENDBRANCH   4  13
BRANCH   2  22
ATOM     22  C   UNL d   1      33.240  22.000 -21.787  0.00  0.00     0.086 C 
BRANCH  22  23
ATOM     23  N   UNL d   1      32.593  22.294 -21.366  0.00  0.00    -0.299 N 
ATOM     24  C   UNL d   1      32.101  21.775 -20.960  0.00  0.00     0.107 A 
ATOM     25  C   UNL d   1      31.454  22.073 -20.538  0.00  0.00     0.142 A 
ATOM     26  O   UNL d   1      31.305  22.884 -20.526  0.00  0.00    -0.300 OA
ATOM     27  C   UNL d   1      31.803  23.402 -20.936  0.00  0.00     0.142 A 
ATOM     28  C   UNL d   1      32.448  23.106 -21.356  0.00  0.00     0.107 A 
ENDBRANCH  22  23
ENDBRANCH   2  22
TORSDOF 5
ENDMDL
MODEL 3
REMARK VINA RESULT:      -0.6      1.720      4.818
REMARK  5 active torsions:
REMARK  status: ('A' for Active; 'I' for Inactive)
REMARK    1  A    between atoms: C_9  and  C_2 
REMARK    2  A    between atoms: O_8  and  C_4 
REMARK    3  A    between atoms: C_14  and  O_8 
REMARK    4  A    between atoms: N_11  and  C_9 
REMARK    5  A    between atoms: O_20  and  C_18 
ROOT
ATOM      1  C   UNL d   1      32.956  19.357 -22.975  0.00  0.00     0.108 A 
ATOM      2  C   UNL d   1      33.088  20.077 -22.584  0.00  0.00     0.079 A 
ATOM      3  C   UNL d   1      32.844  19.345 -23.800  0.00  0.00     0.064 A 
ATOM      4  C   UNL d   1      32.691  17.916 -23.759  0.00  0.00     0.163 A 
ATOM      5  C   UNL d   1      32.713  18.633 -24.185  0.00  0.00     0.222 A 
ATOM      6  O   UNL d   1      32.937  18.652 -22.537  0.00  0.00    -0.303 OA
ATOM      7  C   UNL d   1      32.804  17.929 -22.929  0.00  0.00     0.150 A 
ATOM      8  C   UNL d   1      32.867  20.062 -24.219  0.00  0.00     0.009 A 
ATOM      9  C   UNL d   1      33.109  20.781 -23.009  0.00  0.00     0.199 A 
ATOM     10  O   UNL d   1      32.602  18.618 -25.002  0.00  0.00    -0.284 OA
ATOM     11  C   UNL d   1      32.999  20.774 -23.826  0.00  0.00     0.042 A 
ATOM     12  O   UNL d   1      33.241  21.494 -22.617  0.00  0.00    -0.286 OA
ENDROOT
BRANCH   4  13
ATOM     13  O   UNL d   1      32.560  17.205 -24.147  0.00  0.00    -0.302 OA
BRANCH  13  14
ATOM     14  C   UNL d   1      32.058  16.641 -23.817  0.00  0.00     0.102 A 
ATOM     15  C   UNL d   1      31.247  16.684 -23.956  0.00  0.00     0.049 A 
ATOM     16  C   UNL d   1      30.745  16.121 -23.626  0.00  0.00     0.096 A 
ATOM     17  C   UNL d   1      31.053  15.515 -23.159  0.00  0.00     0.024 A 
ATOM     18  C   UNL d   1      31.875  15.477 -23.023  0.00  0.00     0.004 A 
ATOM     19  C   UNL d   1      32.369  16.040 -23.353  0.00  0.00     0.025 A 
BRANCH  16  20
ATOM     20  O   UNL d   1      29.935  16.164 -23.765  0.00  0.00    -0.328 OA
ATOM     21  C   UNL d   1      29.468  15.490 -23.680  0.00  0.00     0.181 C 
ENDBRANCH  16  20
ENDBRANCH  13  14
ENDBRANCH   4  13
BRANCH   2  22
ATOM     22  C   UNL d   1      33.198  20.085 -21.774  0.00  0.00     0.086 C 
BRANCH  22  23
ATOM     23  N   UNL d   1      32.800  20.639 -21.309  0.00  0.00    -0.299 N 
ATOM     24  C   UNL d   1      33.219  21.091 -20.765  0.00  0.00     0.107 A 
ATOM     25  C   UNL d   1      32.817  21.646 -20.301  0.00  0.00     0.142 A 
ATOM     26  O   UNL d   1      32.002  21.744 -20.385  0.00  0.00    -0.300 OA
ATOM     27  C   UNL d   1      31.585  21.288 -20.934  0.00  0.00     0.142 A 
ATOM     28  C   UNL d   1      31.985  20.735 -21.396  0.00  0.00     0.107 A 
ENDBRANCH  22  23
ENDBRANCH   2  22
TORSDOF 5
ENDMDL
