MODEL 1
REMARK VINA RESULT:      -3.5      0.000      0.000
REMARK  6 active torsions:
REMARK  status: ('A' for Active; 'I' for Inactive)
REMARK    1  A    between atoms: S_6  and  C_1 
REMARK    2  A    between atoms: C_15  and  S_6 
REMARK    3  A    between atoms: C_8  and  O_11 
REMARK    4  A    between atoms: C_10  and  C_15 
REMARK    5  A    between atoms: C_16  and  C_10 
REMARK    6  A    between atoms: O_11  and  C_16 
ROOT
ATOM      1  C   UNL d   1      32.895  19.615 -22.508  0.00  0.00     0.040 C 
ENDROOT
BRANCH   1   2
ATOM      2  C   UNL d   1      33.051  18.814 -22.623  0.00  0.00     0.034 C 
BRANCH   2   3
ATOM      3  C   UNL d   1      32.626  18.391 -23.195  0.00  0.00     0.123 C 
BRANCH   3   4
ATOM      4  O   UNL d   1      32.718  17.572 -23.234  0.00  0.00    -0.305 OA
BRANCH   4   5
ATOM      5  C   UNL d   1      32.210  17.123 -23.700  0.00  0.00     0.100 A 
ATOM      6  C   UNL d   1      31.760  16.521 -23.359  0.00  0.00     0.025 A 
ATOM      7  C   UNL d   1      31.247  16.069 -23.836  0.00  0.00     0.002 A 
ATOM      8  C   UNL d   1      30.798  15.468 -23.496  0.00  0.00     0.000 C 
ATOM      9  C   UNL d   1      31.191  16.225 -24.645  0.00  0.00     0.000 A 
ATOM     10  C   UNL d   1      31.649  16.834 -24.981  0.00  0.00     0.002 A 
ATOM     11  C   UNL d   1      32.158  17.284 -24.512  0.00  0.00     0.025 A 
ENDBRANCH   4   5
ENDBRANCH   3   4
ENDBRANCH   2   3
ENDBRANCH   1   2
BRANCH   1  12
ATOM     12  S   UNL d   1      33.239  20.009 -21.870  0.00  0.00    -0.048 SA
BRANCH  12  13
ATOM     13  C   UNL d   1      33.017  20.781 -21.688  0.00  0.00     0.194 A 
ATOM     14  N   UNL d   1      33.218  21.467 -22.111  0.00  0.00    -0.220 NA
ATOM     15  C   UNL d   1      32.873  22.117 -21.725  0.00  0.00     0.101 A 
ATOM     16  C   UNL d   1      32.888  22.925 -21.897  0.00  0.00     0.021 A 
ATOM     17  C   UNL d   1      32.455  21.841 -21.060  0.00  0.00     0.101 A 
ATOM     18  C   UNL d   1      32.489  23.457 -21.411  0.00  0.00     0.002 A 
ATOM     19  C   UNL d   1      32.075  23.184 -20.752  0.00  0.00     0.002 A 
ATOM     20  C   UNL d   1      32.060  22.378 -20.580  0.00  0.00     0.021 A 
ATOM     21  N   UNL d   1      32.544  21.009 -21.036  0.00  0.00    -0.220 NA
ENDBRANCH  12  13
ENDBRANCH   1  12
TORSDOF 6
ENDMDL
MODEL 2
REMARK VINA RESULT:      -3.3      1.658      5.822
REMARK  6 active torsions:
REMARK  status: ('A' for Active; 'I' for Inactive)
REMARK    1  A    between atoms: S_6  and  C_1 
REMARK    2  A    between atoms: C_15  and  S_6 
REMARK    3  A    between atoms: C_8  and  O_11 
REMARK    4  A    between atoms: C_10  and  C_15 
REMARK    5  A    between atoms: C_16  and  C_10 
REMARK    6  A    between atoms: O_11  and  C_16 
ROOT
ATOM      1  C   UNL d   1      32.884  19.619 -22.376  0.00  0.00     0.040 C 
ENDROOT
BRANCH   1   2
ATOM      2  C   UNL d   1      33.214  20.039 -21.749  0.00  0.00     0.034 C 
BRANCH   2   3
ATOM      3  C   UNL d   1      32.932  20.797 -21.569  0.00  0.00     0.123 C 
BRANCH   3   4
ATOM      4  O   UNL d   1      32.965  21.059 -20.787  0.00  0.00    -0.305 OA
BRANCH   4   5
ATOM      5  C   UNL d   1      32.784  21.841 -20.607  0.00  0.00     0.100 A 
ATOM      6  C   UNL d   1      33.103  22.194 -19.934  0.00  0.00     0.025 A 
ATOM      7  C   UNL d   1      32.915  22.987 -19.756  0.00  0.00     0.002 A 
ATOM      8  C   UNL d   1      33.234  23.340 -19.083  0.00  0.00     0.000 C 
ATOM      9  C   UNL d   1      32.413  23.414 -20.253  0.00  0.00     0.000 A 
ATOM     10  C   UNL d   1      32.095  23.049 -20.931  0.00  0.00     0.002 A 
ATOM     11  C   UNL d   1      32.278  22.264 -21.110  0.00  0.00     0.025 A 
ENDBRANCH   4   5
ENDBRANCH   3   4
ENDBRANCH   2   3
ENDBRANCH   1   2
BRANCH   1  12
ATOM     12  S   UNL d   1      33.229  18.909 -22.616  0.00  0.00    -0.048 SA
BRANCH  12  13
ATOM     13  C   UNL d   1      32.816  18.388 -23.103  0.00  0.00     0.194 A 
ATOM     14  N   UNL d   1      32.503  18.555 -23.854  0.00  0.00    -0.220 NA
ATOM     15  C   UNL d   1      32.134  17.867 -24.137  0.00  0.00     0.101 A 
ATOM     16  C   UNL d   1      31.736  17.711 -24.844  0.00  0.00     0.021 A 
ATOM     17  C   UNL d   1      32.215  17.267 -23.565  0.00  0.00     0.101 A 
ATOM     18  C   UNL d   1      31.418  16.964 -24.983  0.00  0.00     0.002 A 
ATOM     19  C   UNL d   1      31.497  16.370 -24.416  0.00  0.00     0.002 A 
ATOM     20  C   UNL d   1      31.895  16.524 -23.711  0.00  0.00     0.021 A 
ATOM     21  N   UNL d   1      32.639  17.591 -22.920  0.00  0.00    -0.220 NA
ENDBRANCH  12  13
ENDBRANCH   1  12
TORSDOF 6
ENDMDL
MODEL 3
REMARK VINA RESULT:      -2.1      2.388      5.787
REMARK  6 active torsions:
REMARK  status: ('A' for Active; 'I' for Inactive)
REMARK    1  A    between atoms: S_6  and  C_1 
REMARK    2  A    between atoms: C_15  and  S_6 
REMARK    3  A    between atoms: C_8  and  O_11 
REMARK    4  A    between atoms: C_10  and  C_15 
REMARK    5  A    between atoms: C_16  and  C_10 
REMARK    6  A    between atoms: O_11  and  C_16 
ROOT
ATOM      1  C   UNL d   1      31.891  17.427 -23.696  0.00  0.00     0.040 C 
ENDROOT
BRANCH   1   2
ATOM      2  C   UNL d   1      32.675  17.675 -23.638  0.00  0.00     0.034 C 
BRANCH   2   3
ATOM      3  C   UNL d   1      32.843  18.473 -23.491  0.00  0.00     0.123 C 
BRANCH   3   4
ATOM      4  O   UNL d   1      33.018  18.708 -22.720  0.00  0.00    -0.305 OA
BRANCH   4   5
ATOM      5  C   UNL d   1      33.078  19.507 -22.537  0.00  0.00     0.100 A 
ATOM      6  C   UNL d   1      33.036  19.755 -21.751  0.00  0.00     0.025 A 
ATOM      7  C   UNL d   1      33.098  20.567 -21.571  0.00  0.00     0.002 A 
ATOM      8  C   UNL d   1      33.056  20.815 -20.787  0.00  0.00     0.000 C 
ATOM      9  C   UNL d   1      33.199  21.118 -22.178  0.00  0.00     0.000 A 
ATOM     10  C   UNL d   1      33.240  20.859 -22.968  0.00  0.00     0.002 A 
ATOM     11  C   UNL d   1      33.180  20.056 -23.151  0.00  0.00     0.025 A 
ENDBRANCH   4   5
ENDBRANCH   3   4
ENDBRANCH   2   3
ENDBRANCH   1   2
BRANCH   1  12
ATOM     12  S   UNL d   1      31.716  16.621 -23.660  0.00  0.00    -0.048 SA
BRANCH  12  13
ATOM     13  C   UNL d   1      30.951  16.354 -23.807  0.00  0.00     0.194 A 
ATOM     14  N   UNL d   1      30.603  16.230 -24.550  0.00  0.00    -0.220 NA
ATOM     15  C   UNL d   1      29.826  15.961 -24.429  0.00  0.00     0.101 A 
ATOM     16  C   UNL d   1      29.231  15.751 -24.962  0.00  0.00     0.021 A 
ATOM     17  C   UNL d   1      29.685  15.915 -23.609  0.00  0.00     0.101 A 
ATOM     18  C   UNL d   1      28.498  15.498 -24.683  0.00  0.00     0.002 A 
ATOM     19  C   UNL d   1      28.358  15.453 -23.871  0.00  0.00     0.002 A 
ATOM     20  C   UNL d   1      28.951  15.662 -23.339  0.00  0.00     0.021 A 
ATOM     21  N   UNL d   1      30.385  16.161 -23.221  0.00  0.00    -0.220 NA
ENDBRANCH  12  13
ENDBRANCH   1  12
TORSDOF 6
ENDMDL
