MODEL 1
REMARK VINA RESULT:      -4.4      0.000      0.000
REMARK  2 active torsions:
REMARK  status: ('A' for Active; 'I' for Inactive)
REMARK    1  A    between atoms: C_10  and  N_1 
REMARK    2  A    between atoms: C_11  and  C_10 
ROOT
ATOM      1  N   UNL d   1      57.186  -0.746  31.196  0.00  0.00    -0.187 N 
ATOM      2  N   UNL d   1      57.474  -1.522  30.756  0.00  0.00    -0.162 NA
ATOM      3  C   UNL d   1      58.087  -1.520  30.122  0.00  0.00     0.102 A 
ATOM      4  C   UNL d   1      58.333  -0.743  30.009  0.00  0.00     0.024 A 
ATOM      5  C   UNL d   1      57.537  -0.036  30.962  0.00  0.00     0.281 A 
ATOM      6  C   UNL d   1      58.111  -0.034  30.369  0.00  0.00     0.059 A 
ATOM      7  C   UNL d   1      58.912  -0.742  29.411  0.00  0.00     0.002 A 
ATOM      8  C   UNL d   1      58.510  -1.994  29.598  0.00  0.00     0.019 A 
ATOM      9  C   UNL d   1      59.017  -1.518  29.160  0.00  0.00     0.002 A 
ATOM     10  O   UNL d   1      57.307   0.682  31.332  0.00  0.00    -0.265 OA
ATOM     11  C   UNL d   1      58.462   0.681  30.136  0.00  0.00     0.005 A 
ATOM     12  C   UNL d   1      59.260  -0.032  29.180  0.00  0.00     0.000 A 
ATOM     13  C   UNL d   1      58.498  -2.808  29.462  0.00  0.00     0.002 A 
ATOM     14  C   UNL d   1      59.514  -1.846  28.586  0.00  0.00     0.000 A 
ATOM     15  C   UNL d   1      59.040   0.682  29.538  0.00  0.00     0.000 A 
ATOM     16  C   UNL d   1      59.497  -2.659  28.455  0.00  0.00     0.000 A 
ATOM     17  C   UNL d   1      58.993  -3.144  28.888  0.00  0.00     0.000 A 
ENDROOT
BRANCH   1  18
ATOM     18  C   UNL d   1      56.641  -0.552  31.795  0.00  0.00     0.174 C 
BRANCH  18  19
ATOM     19  C   UNL d   1      56.280  -1.148  32.247  0.00  0.00     0.231 C 
ATOM     20  O   UNL d   1      55.605  -0.979  32.673  0.00  0.00    -0.643 OA
ATOM     21  O   UNL d   1      56.313  -1.921  32.475  0.00  0.00    -0.643 OA
ENDBRANCH  18  19
ENDBRANCH   1  18
TORSDOF 2
ENDMDL
MODEL 2
REMARK VINA RESULT:      -4.2      1.980      3.357
REMARK  2 active torsions:
REMARK  status: ('A' for Active; 'I' for Inactive)
REMARK    1  A    between atoms: C_10  and  N_1 
REMARK    2  A    between atoms: C_11  and  C_10 
ROOT
ATOM      1  N   UNL d   1      58.908  -2.164  29.264  0.00  0.00    -0.187 N 
ATOM      2  N   UNL d   1      58.254  -2.068  29.929  0.00  0.00    -0.162 NA
ATOM      3  C   UNL d   1      58.064  -1.299  30.317  0.00  0.00     0.102 A 
ATOM      4  C   UNL d   1      58.554  -0.724  29.990  0.00  0.00     0.024 A 
ATOM      5  C   UNL d   1      59.316  -1.479  29.047  0.00  0.00     0.281 A 
ATOM      6  C   UNL d   1      59.139  -0.760  29.409  0.00  0.00     0.059 A 
ATOM      7  C   UNL d   1      58.376   0.002  30.356  0.00  0.00     0.002 A 
ATOM      8  C   UNL d   1      57.588  -0.931  30.879  0.00  0.00     0.019 A 
ATOM      9  C   UNL d   1      57.778  -0.132  30.905  0.00  0.00     0.002 A 
ATOM     10  O   UNL d   1      59.910  -1.523  28.455  0.00  0.00    -0.265 OA
ATOM     11  C   UNL d   1      59.551  -0.075  29.188  0.00  0.00     0.005 A 
ATOM     12  C   UNL d   1      58.785   0.682  30.136  0.00  0.00     0.000 A 
ATOM     13  C   UNL d   1      56.999  -1.226  31.376  0.00  0.00     0.002 A 
ATOM     14  C   UNL d   1      57.384   0.378  31.423  0.00  0.00     0.000 A 
ATOM     15  C   UNL d   1      59.373   0.651  29.553  0.00  0.00     0.000 A 
ATOM     16  C   UNL d   1      56.797   0.078  31.917  0.00  0.00     0.000 A 
ATOM     17  C   UNL d   1      56.601  -0.720  31.898  0.00  0.00     0.000 A 
ENDROOT
BRANCH   1  18
ATOM     18  C   UNL d   1      59.219  -2.781  28.799  0.00  0.00     0.174 C 
BRANCH  18  19
ATOM     19  C   UNL d   1      58.828  -3.512  28.751  0.00  0.00     0.231 C 
ATOM     20  O   UNL d   1      59.258  -4.203  28.787  0.00  0.00    -0.643 OA
ATOM     21  O   UNL d   1      58.113  -3.880  28.675  0.00  0.00    -0.643 OA
ENDBRANCH  18  19
ENDBRANCH   1  18
TORSDOF 2
ENDMDL
MODEL 3
REMARK VINA RESULT:      -3.8      9.106      9.482
REMARK  2 active torsions:
REMARK  status: ('A' for Active; 'I' for Inactive)
REMARK    1  A    between atoms: C_10  and  N_1 
REMARK    2  A    between atoms: C_11  and  C_10 
ROOT
ATOM      1  N   UNL d   1      59.696  -9.798  34.278  0.00  0.00    -0.187 N 
ATOM      2  N   UNL d   1      58.882  -9.798  33.812  0.00  0.00    -0.162 NA
ATOM      3  C   UNL d   1      58.828  -9.803  32.932  0.00  0.00     0.102 A 
ATOM      4  C   UNL d   1      59.593  -9.807  32.630  0.00  0.00     0.024 A 
ATOM      5  C   UNL d   1      60.384  -9.803  33.821  0.00  0.00     0.281 A 
ATOM      6  C   UNL d   1      60.333  -9.808  32.997  0.00  0.00     0.059 A 
ATOM      7  C   UNL d   1      59.542  -9.812  31.800  0.00  0.00     0.002 A 
ATOM      8  C   UNL d   1      58.308  -9.805  32.293  0.00  0.00     0.019 A 
ATOM      9  C   UNL d   1      58.745  -9.811  31.596  0.00  0.00     0.002 A 
ATOM     10  O   UNL d   1      61.133  -9.803  34.200  0.00  0.00    -0.265 OA
ATOM     11  C   UNL d   1      61.026  -9.813  32.542  0.00  0.00     0.005 A 
ATOM     12  C   UNL d   1      60.230  -9.817  31.348  0.00  0.00     0.000 A 
ATOM     13  C   UNL d   1      57.484  -9.802  32.256  0.00  0.00     0.002 A 
ATOM     14  C   UNL d   1      58.366  -9.814  30.861  0.00  0.00     0.000 A 
ATOM     15  C   UNL d   1      60.974  -9.818  31.711  0.00  0.00     0.000 A 
ATOM     16  C   UNL d   1      57.543  -9.811  30.831  0.00  0.00     0.000 A 
ATOM     17  C   UNL d   1      57.098  -9.805  31.522  0.00  0.00     0.000 A 
ENDROOT
BRANCH   1  18
ATOM     18  C   UNL d   1      59.943  -9.794  35.074  0.00  0.00     0.174 C 
BRANCH  18  19
ATOM     19  C   UNL d   1      59.407  -9.610  35.681  0.00  0.00     0.231 C 
ATOM     20  O   UNL d   1      59.606  -9.049  36.238  0.00  0.00    -0.643 OA
ATOM     21  O   UNL d   1      58.681  -9.766  35.998  0.00  0.00    -0.643 OA
ENDBRANCH  18  19
ENDBRANCH   1  18
TORSDOF 2
ENDMDL
MODEL 4
REMARK VINA RESULT:      -2.4      2.416      4.055
REMARK  2 active torsions:
REMARK  status: ('A' for Active; 'I' for Inactive)
REMARK    1  A    between atoms: C_10  and  N_1 
REMARK    2  A    between atoms: C_11  and  C_10 
ROOT
ATOM      1  N   UNL d   1      58.187   0.472  30.392  0.00  0.00    -0.187 N 
ATOM      2  N   UNL d   1      57.340   0.378  30.782  0.00  0.00    -0.162 NA
ATOM      3  C   UNL d   1      57.203   0.387  31.653  0.00  0.00     0.102 A 
ATOM      4  C   UNL d   1      57.931   0.489  32.023  0.00  0.00     0.024 A 
ATOM      5  C   UNL d   1      58.824   0.568  30.910  0.00  0.00     0.281 A 
ATOM      6  C   UNL d   1      58.695   0.576  31.725  0.00  0.00     0.059 A 
ATOM      7  C   UNL d   1      57.801   0.498  32.845  0.00  0.00     0.002 A 
ATOM      8  C   UNL d   1      56.629   0.333  32.242  0.00  0.00     0.019 A 
ATOM      9  C   UNL d   1      56.995   0.401  32.975  0.00  0.00     0.002 A 
ATOM     10  O   UNL d   1      59.599   0.655  30.601  0.00  0.00    -0.265 OA
ATOM     11  C   UNL d   1      59.337   0.672  32.242  0.00  0.00     0.005 A 
ATOM     12  C   UNL d   1      58.439   0.593  33.358  0.00  0.00     0.000 A 
ATOM     13  C   UNL d   1      55.812   0.230  32.203  0.00  0.00     0.002 A 
ATOM     14  C   UNL d   1      56.552   0.367  33.672  0.00  0.00     0.000 A 
ATOM     15  C   UNL d   1      59.208   0.681  33.064  0.00  0.00     0.000 A 
ATOM     16  C   UNL d   1      55.736   0.263  33.627  0.00  0.00     0.000 A 
ATOM     17  C   UNL d   1      55.361   0.194  32.898  0.00  0.00     0.000 A 
ENDROOT
BRANCH   1  18
ATOM     18  C   UNL d   1      58.506   0.489  29.623  0.00  0.00     0.174 C 
BRANCH  18  19
ATOM     19  C   UNL d   1      58.018   0.369  28.961  0.00  0.00     0.231 C 
ATOM     20  O   UNL d   1      58.142  -0.277  28.480  0.00  0.00    -0.643 OA
ATOM     21  O   UNL d   1      57.395   0.653  28.534  0.00  0.00    -0.643 OA
ENDBRANCH  18  19
ENDBRANCH   1  18
TORSDOF 2
ENDMDL
MODEL 5
REMARK VINA RESULT:      -2.2      8.792      9.325
REMARK  2 active torsions:
REMARK  status: ('A' for Active; 'I' for Inactive)
REMARK    1  A    between atoms: C_10  and  N_1 
REMARK    2  A    between atoms: C_11  and  C_10 
ROOT
ATOM      1  N   UNL d   1      58.344  -9.804  30.231  0.00  0.00    -0.187 N 
ATOM      2  N   UNL d   1      58.180  -9.802  31.154  0.00  0.00    -0.162 NA
ATOM      3  C   UNL d   1      58.821  -9.805  31.760  0.00  0.00     0.102 A 
ATOM      4  C   UNL d   1      59.543  -9.809  31.365  0.00  0.00     0.024 A 
ATOM      5  C   UNL d   1      59.136  -9.808  29.996  0.00  0.00     0.281 A 
ATOM      6  C   UNL d   1      59.735  -9.811  30.563  0.00  0.00     0.059 A 
ATOM      7  C   UNL d   1      60.147  -9.812  31.937  0.00  0.00     0.002 A 
ATOM      8  C   UNL d   1      58.978  -9.806  32.569  0.00  0.00     0.019 A 
ATOM      9  C   UNL d   1      59.793  -9.810  32.680  0.00  0.00     0.002 A 
ATOM     10  O   UNL d   1      59.325  -9.809  29.178  0.00  0.00    -0.265 OA
ATOM     11  C   UNL d   1      60.529  -9.815  30.323  0.00  0.00     0.005 A 
ATOM     12  C   UNL d   1      60.936  -9.816  31.699  0.00  0.00     0.000 A 
ATOM     13  C   UNL d   1      58.478  -9.803  33.225  0.00  0.00     0.002 A 
ATOM     14  C   UNL d   1      60.114  -9.811  33.442  0.00  0.00     0.000 A 
ATOM     15  C   UNL d   1      61.133  -9.818  30.895  0.00  0.00     0.000 A 
ATOM     16  C   UNL d   1      59.609  -9.808  34.093  0.00  0.00     0.000 A 
ATOM     17  C   UNL d   1      58.794  -9.804  33.991  0.00  0.00     0.000 A 
ENDROOT
BRANCH   1  18
ATOM     18  C   UNL d   1      57.892  -9.802  29.531  0.00  0.00     0.174 C 
BRANCH  18  19
ATOM     19  C   UNL d   1      57.087  -9.596  29.549  0.00  0.00     0.231 C 
ATOM     20  O   UNL d   1      56.833  -8.922  29.167  0.00  0.00    -0.643 OA
ATOM     21  O   UNL d   1      56.354  -9.803  29.816  0.00  0.00    -0.643 OA
ENDBRANCH  18  19
ENDBRANCH   1  18
TORSDOF 2
ENDMDL
MODEL 6
REMARK VINA RESULT:      -2.0      2.025      2.349
REMARK  2 active torsions:
REMARK  status: ('A' for Active; 'I' for Inactive)
REMARK    1  A    between atoms: C_10  and  N_1 
REMARK    2  A    between atoms: C_11  and  C_10 
ROOT
ATOM      1  N   UNL d   1      57.349   0.646  32.193  0.00  0.00    -0.187 N 
ATOM      2  N   UNL d   1      57.267   0.638  31.259  0.00  0.00    -0.162 NA
ATOM      3  C   UNL d   1      57.958   0.644  30.710  0.00  0.00     0.102 A 
ATOM      4  C   UNL d   1      58.643   0.656  31.166  0.00  0.00     0.024 A 
ATOM      5  C   UNL d   1      58.118   0.658  32.495  0.00  0.00     0.281 A 
ATOM      6  C   UNL d   1      58.764   0.664  31.983  0.00  0.00     0.059 A 
ATOM      7  C   UNL d   1      59.294   0.662  30.649  0.00  0.00     0.002 A 
ATOM      8  C   UNL d   1      58.185   0.642  29.919  0.00  0.00     0.019 A 
ATOM      9  C   UNL d   1      59.006   0.652  29.879  0.00  0.00     0.002 A 
ATOM     10  O   UNL d   1      58.235   0.665  33.327  0.00  0.00    -0.265 OA
ATOM     11  C   UNL d   1      59.534   0.676  32.290  0.00  0.00     0.005 A 
ATOM     12  C   UNL d   1      60.059   0.674  30.955  0.00  0.00     0.000 A 
ATOM     13  C   UNL d   1      57.744   0.631  29.222  0.00  0.00     0.002 A 
ATOM     14  C   UNL d   1      59.393   0.653  29.148  0.00  0.00     0.000 A 
ATOM     15  C   UNL d   1      60.186   0.682  31.773  0.00  0.00     0.000 A 
ATOM     16  C   UNL d   1      58.946   0.642  28.455  0.00  0.00     0.000 A 
ATOM     17  C   UNL d   1      58.125   0.631  28.485  0.00  0.00     0.000 A 
ENDROOT
BRANCH   1  18
ATOM     18  C   UNL d   1      56.838   0.643  32.850  0.00  0.00     0.174 C 
BRANCH  18  19
ATOM     19  C   UNL d   1      56.111   0.243  32.817  0.00  0.00     0.231 C 
ATOM     20  O   UNL d   1      55.419   0.668  32.740  0.00  0.00    -0.643 OA
ATOM     21  O   UNL d   1      55.747  -0.478  32.832  0.00  0.00    -0.643 OA
ENDBRANCH  18  19
ENDBRANCH   1  18
TORSDOF 2
ENDMDL
MODEL 7
REMARK VINA RESULT:      -1.6      2.106      2.538
REMARK  2 active torsions:
REMARK  status: ('A' for Active; 'I' for Inactive)
REMARK    1  A    between atoms: C_10  and  N_1 
REMARK    2  A    between atoms: C_11  and  C_10 
ROOT
ATOM      1  N   UNL d   1      57.257   0.664  31.944  0.00  0.00    -0.187 N 
ATOM      2  N   UNL d   1      58.180   0.674  32.115  0.00  0.00    -0.162 NA
ATOM      3  C   UNL d   1      58.791   0.665  31.479  0.00  0.00     0.102 A 
ATOM      4  C   UNL d   1      58.401   0.648  30.754  0.00  0.00     0.024 A 
ATOM      5  C   UNL d   1      57.029   0.647  31.150  0.00  0.00     0.281 A 
ATOM      6  C   UNL d   1      57.600   0.638  30.556  0.00  0.00     0.059 A 
ATOM      7  C   UNL d   1      58.978   0.640  30.154  0.00  0.00     0.002 A 
ATOM      8  C   UNL d   1      59.600   0.667  31.327  0.00  0.00     0.019 A 
ATOM      9  C   UNL d   1      59.718   0.652  30.514  0.00  0.00     0.002 A 
ATOM     10  O   UNL d   1      56.212   0.637  30.955  0.00  0.00    -0.265 OA
ATOM     11  C   UNL d   1      57.367   0.621  29.760  0.00  0.00     0.005 A 
ATOM     12  C   UNL d   1      58.746   0.622  29.364  0.00  0.00     0.000 A 
ATOM     13  C   UNL d   1      60.253   0.682  31.832  0.00  0.00     0.002 A 
ATOM     14  C   UNL d   1      60.482   0.651  30.198  0.00  0.00     0.000 A 
ATOM     15  C   UNL d   1      57.943   0.613  29.160  0.00  0.00     0.000 A 
ATOM     16  C   UNL d   1      61.129   0.665  30.708  0.00  0.00     0.000 A 
ATOM     17  C   UNL d   1      61.021   0.681  31.522  0.00  0.00     0.000 A 
ENDROOT
BRANCH   1  18
ATOM     18  C   UNL d   1      56.555   0.668  32.391  0.00  0.00     0.174 C 
BRANCH  18  19
ATOM     19  C   UNL d   1      56.547   0.377  33.169  0.00  0.00     0.231 C 
ATOM     20  O   UNL d   1      55.841   0.320  33.572  0.00  0.00    -0.643 OA
ATOM     21  O   UNL d   1      56.995   0.089  33.775  0.00  0.00    -0.643 OA
ENDBRANCH  18  19
ENDBRANCH   1  18
TORSDOF 2
ENDMDL
