MODEL 1
REMARK VINA RESULT:      -5.4      0.000      0.000
REMARK  3 active torsions:
REMARK  status: ('A' for Active; 'I' for Inactive)
REMARK    1  A    between atoms: C_4  and  N_1 
REMARK    2  A    between atoms: C_2  and  O_5 
REMARK       I    between atoms: N_3  and  C_2 
REMARK    3  A    between atoms: O_5  and  C_10 
ROOT
ATOM      1  C   UNL d   1      55.596   0.021  33.315  0.00  0.00     0.129 A 
ATOM      2  C   UNL d   1      56.015   0.433  32.740  0.00  0.00     0.048 A 
ATOM      3  C   UNL d   1      56.460   0.019  32.189  0.00  0.00     0.106 A 
ATOM      4  C   UNL d   1      55.624  -0.804  33.336  0.00  0.00     0.024 A 
ATOM      5  C   UNL d   1      56.072  -1.206  32.782  0.00  0.00     0.004 A 
ATOM      6  C   UNL d   1      56.491  -0.794  32.207  0.00  0.00     0.025 A 
ENDROOT
BRANCH   3   7
ATOM      7  O   UNL d   1      56.882   0.433  31.611  0.00  0.00    -0.259 OA
BRANCH   7   8
ATOM      8  C   UNL d   1      57.700   0.500  31.645  0.00  0.00     0.377 C 
ATOM      9  N   UNL d   1      58.159   0.557  30.951  0.00  0.00    -0.252 N 
ATOM     10  C   UNL d   1      58.993   0.625  31.005  0.00  0.00     0.085 A 
ATOM     11  C   UNL d   1      57.803   0.548  30.197  0.00  0.00     0.085 A 
ATOM     12  C   UNL d   1      59.455   0.682  30.307  0.00  0.00     0.019 A 
ATOM     13  C   UNL d   1      59.079   0.671  29.561  0.00  0.00     0.003 A 
ATOM     14  C   UNL d   1      58.258   0.604  29.509  0.00  0.00     0.019 A 
ATOM     15  O   UNL d   1      58.068   0.510  32.402  0.00  0.00    -0.237 OA
ENDBRANCH   7   8
ENDBRANCH   3   7
BRANCH   1  16
ATOM     16  N   UNL d   1      55.144   0.428  33.875  0.00  0.00    -0.114 N 
ATOM     17  O   UNL d   1      54.367   0.653  33.702  0.00  0.00    -0.532 OA
ATOM     18  O   UNL d   1      55.476   0.608  34.611  0.00  0.00    -0.532 OA
ENDBRANCH   1  16
TORSDOF 3
ENDMDL
MODEL 2
REMARK VINA RESULT:      -5.0      1.686      4.421
REMARK  3 active torsions:
REMARK  status: ('A' for Active; 'I' for Inactive)
REMARK    1  A    between atoms: C_4  and  N_1 
REMARK    2  A    between atoms: C_2  and  O_5 
REMARK       I    between atoms: N_3  and  C_2 
REMARK    3  A    between atoms: O_5  and  C_10 
ROOT
ATOM      1  C   UNL d   1      59.312   0.322  29.747  0.00  0.00     0.129 A 
ATOM      2  C   UNL d   1      58.872   0.263  30.438  0.00  0.00     0.048 A 
ATOM      3  C   UNL d   1      58.066   0.416  30.419  0.00  0.00     0.106 A 
ATOM      4  C   UNL d   1      58.945   0.532  29.038  0.00  0.00     0.024 A 
ATOM      5  C   UNL d   1      58.140   0.682  29.031  0.00  0.00     0.004 A 
ATOM      6  C   UNL d   1      57.700   0.624  29.723  0.00  0.00     0.025 A 
ENDROOT
BRANCH   3   7
ATOM      7  O   UNL d   1      57.623   0.357  31.115  0.00  0.00    -0.259 OA
BRANCH   7   8
ATOM      8  C   UNL d   1      57.248  -0.343  31.324  0.00  0.00     0.377 C 
ATOM      9  N   UNL d   1      56.748  -0.384  31.992  0.00  0.00    -0.252 N 
ATOM     10  C   UNL d   1      56.374  -1.108  32.190  0.00  0.00     0.085 A 
ATOM     11  C   UNL d   1      56.612   0.285  32.469  0.00  0.00     0.085 A 
ATOM     12  C   UNL d   1      55.872  -1.149  32.860  0.00  0.00     0.019 A 
ATOM     13  C   UNL d   1      55.748  -0.467  33.327  0.00  0.00     0.003 A 
ATOM     14  C   UNL d   1      56.117   0.244  33.130  0.00  0.00     0.019 A 
ATOM     15  O   UNL d   1      57.380  -1.024  30.847  0.00  0.00    -0.237 OA
ENDBRANCH   7   8
ENDBRANCH   3   7
BRANCH   1  16
ATOM     16  N   UNL d   1      60.126   0.170  29.755  0.00  0.00    -0.114 N 
ATOM     17  O   UNL d   1      60.642   0.682  30.149  0.00  0.00    -0.532 OA
ATOM     18  O   UNL d   1      60.417  -0.499  29.365  0.00  0.00    -0.532 OA
ENDBRANCH   1  16
TORSDOF 3
ENDMDL
MODEL 3
REMARK VINA RESULT:      -4.1      1.368      4.044
REMARK  3 active torsions:
REMARK  status: ('A' for Active; 'I' for Inactive)
REMARK    1  A    between atoms: C_4  and  N_1 
REMARK    2  A    between atoms: C_2  and  O_5 
REMARK       I    between atoms: N_3  and  C_2 
REMARK    3  A    between atoms: O_5  and  C_10 
ROOT
ATOM      1  C   UNL d   1      57.622  -0.089  30.892  0.00  0.00     0.129 A 
ATOM      2  C   UNL d   1      57.196   0.367  31.428  0.00  0.00     0.048 A 
ATOM      3  C   UNL d   1      56.696  -0.001  31.964  0.00  0.00     0.106 A 
ATOM      4  C   UNL d   1      57.546  -0.911  30.895  0.00  0.00     0.024 A 
ATOM      5  C   UNL d   1      57.044  -1.267  31.435  0.00  0.00     0.004 A 
ATOM      6  C   UNL d   1      56.618  -0.812  31.970  0.00  0.00     0.025 A 
ENDROOT
BRANCH   3   7
ATOM      7  O   UNL d   1      56.267   0.457  32.503  0.00  0.00    -0.259 OA
BRANCH   7   8
ATOM      8  C   UNL d   1      56.458   0.466  33.301  0.00  0.00     0.377 C 
ATOM      9  N   UNL d   1      55.868   0.538  33.887  0.00  0.00    -0.252 N 
ATOM     10  C   UNL d   1      56.081   0.545  34.697  0.00  0.00     0.085 A 
ATOM     11  C   UNL d   1      55.063   0.603  33.681  0.00  0.00     0.085 A 
ATOM     12  C   UNL d   1      55.488   0.617  35.286  0.00  0.00     0.019 A 
ATOM     13  C   UNL d   1      54.686   0.682  35.059  0.00  0.00     0.003 A 
ATOM     14  C   UNL d   1      54.478   0.675  34.261  0.00  0.00     0.019 A 
ATOM     15  O   UNL d   1      57.269   0.400  33.519  0.00  0.00    -0.237 OA
ENDBRANCH   7   8
ENDBRANCH   3   7
BRANCH   1  16
ATOM     16  N   UNL d   1      58.130   0.272  30.347  0.00  0.00    -0.114 N 
ATOM     17  O   UNL d   1      57.824   0.651  29.679  0.00  0.00    -0.532 OA
ATOM     18  O   UNL d   1      58.946   0.249  30.477  0.00  0.00    -0.532 OA
ENDBRANCH   1  16
TORSDOF 3
ENDMDL
MODEL 4
REMARK VINA RESULT:      -3.8      9.331     10.002
REMARK  3 active torsions:
REMARK  status: ('A' for Active; 'I' for Inactive)
REMARK    1  A    between atoms: C_4  and  N_1 
REMARK    2  A    between atoms: C_2  and  O_5 
REMARK       I    between atoms: N_3  and  C_2 
REMARK    3  A    between atoms: O_5  and  C_10 
ROOT
ATOM      1  C   UNL d   1      59.944  -7.884  35.798  0.00  0.00     0.129 A 
ATOM      2  C   UNL d   1      59.555  -8.220  35.156  0.00  0.00     0.048 A 
ATOM      3  C   UNL d   1      59.581  -9.033  35.048  0.00  0.00     0.106 A 
ATOM      4  C   UNL d   1      60.357  -8.363  36.329  0.00  0.00     0.024 A 
ATOM      5  C   UNL d   1      60.375  -9.172  36.211  0.00  0.00     0.004 A 
ATOM      6  C   UNL d   1      59.987  -9.508  35.569  0.00  0.00     0.025 A 
ENDROOT
BRANCH   3   7
ATOM      7  O   UNL d   1      59.190  -9.371  34.402  0.00  0.00    -0.259 OA
BRANCH   7   8
ATOM      8  C   UNL d   1      59.582  -9.518  33.695  0.00  0.00     0.377 C 
ATOM      9  N   UNL d   1      59.165  -9.591  32.976  0.00  0.00    -0.252 N 
ATOM     10  C   UNL d   1      59.582  -9.741  32.265  0.00  0.00     0.085 A 
ATOM     11  C   UNL d   1      58.335  -9.518  32.950  0.00  0.00     0.085 A 
ATOM     12  C   UNL d   1      59.163  -9.815  31.542  0.00  0.00     0.019 A 
ATOM     13  C   UNL d   1      58.331  -9.739  31.536  0.00  0.00     0.003 A 
ATOM     14  C   UNL d   1      57.922  -9.591  32.237  0.00  0.00     0.019 A 
ATOM     15  O   UNL d   1      60.420  -9.593  33.712  0.00  0.00    -0.237 OA
ENDBRANCH   7   8
ENDBRANCH   3   7
BRANCH   1  16
ATOM     16  N   UNL d   1      59.925  -7.065  35.917  0.00  0.00    -0.114 N 
ATOM     17  O   UNL d   1      60.575  -6.598  35.711  0.00  0.00    -0.532 OA
ATOM     18  O   UNL d   1      59.248  -6.719  36.243  0.00  0.00    -0.532 OA
ENDBRANCH   1  16
TORSDOF 3
ENDMDL
