MODEL 1
REMARK VINA RESULT:       5.7      0.000      0.000
REMARK  5 active torsions:
REMARK  status: ('A' for Active; 'I' for Inactive)
REMARK       I    between atoms: C_2  and  N_1 
REMARK    1  A    between atoms: C_5  and  N_1 
REMARK    2  A    between atoms: C_6  and  N_1 
REMARK    3  A    between atoms: C_4  and  C_2 
REMARK    4  A    between atoms: N_3  and  C_5 
REMARK    5  A    between atoms: O_16  and  C_11 
ROOT
ATOM      1  N   UNL d   1      58.201  -0.752  30.412  0.00  0.00    -0.256 N 
ATOM      2  C   UNL d   1      58.044  -1.555  30.280  0.00  0.00     0.270 C 
ATOM      3  O   UNL d   1      57.450  -1.915  30.618  0.00  0.00    -0.266 OA
ENDROOT
BRANCH   1   4
ATOM      4  C   UNL d   1      58.841  -0.383  30.043  0.00  0.00     0.172 C 
BRANCH   4   5
ATOM      5  N   UNL d   1      59.506  -0.018  30.365  0.00  0.00    -0.257 N 
ATOM      6  C   UNL d   1      60.078   0.418  29.965  0.00  0.00     0.266 A 
ATOM      7  O   UNL d   1      60.087   0.571  29.149  0.00  0.00    -0.267 OA
ATOM      8  C   UNL d   1      60.646   0.680  30.514  0.00  0.00     0.063 A 
ATOM      9  C   UNL d   1      60.422   0.403  31.259  0.00  0.00     0.024 A 
ATOM     10  C   UNL d   1      59.722  -0.027  31.178  0.00  0.00     0.085 A 
ENDBRANCH   4   5
ENDBRANCH   1   4
BRANCH   1  11
ATOM     11  C   UNL d   1      57.714  -0.314  30.920  0.00  0.00     0.090 A 
ATOM     12  C   UNL d   1      57.196   0.251  30.607  0.00  0.00     0.110 A 
ATOM     13  C   UNL d   1      56.718   0.680  31.113  0.00  0.00     0.026 A 
ATOM     14  C   UNL d   1      56.749   0.555  31.920  0.00  0.00     0.002 A 
ATOM     15  C   UNL d   1      57.258  -0.001  32.226  0.00  0.00     0.002 A 
ATOM     16  C   UNL d   1      57.746  -0.442  31.739  0.00  0.00     0.020 A 
BRANCH  12  17
ATOM     17  O   UNL d   1      57.165   0.376  29.805  0.00  0.00    -0.327 OA
ATOM     18  C   UNL d   1      56.482   0.682  29.466  0.00  0.00     0.181 C 
ENDBRANCH  12  17
ENDBRANCH   1  11
BRANCH   2  19
ATOM     19  C   UNL d   1      58.534  -1.978  29.775  0.00  0.00     0.111 A 
ATOM     20  C   UNL d   1      58.464  -1.875  28.947  0.00  0.00     0.147 A 
ATOM     21  F   UNL d   1      57.910  -1.356  28.643  0.00  0.00    -0.204 F 
ATOM     22  C   UNL d   1      58.964  -2.308  28.456  0.00  0.00     0.030 A 
ATOM     23  C   UNL d   1      59.518  -2.828  28.780  0.00  0.00     0.005 A 
ATOM     24  C   UNL d   1      59.578  -2.922  29.597  0.00  0.00     0.030 A 
ATOM     25  C   UNL d   1      59.088  -2.498  30.089  0.00  0.00     0.147 A 
ATOM     26  F   UNL d   1      59.144  -2.588  30.909  0.00  0.00    -0.204 F 
ENDBRANCH   2  19
TORSDOF 5
ENDMDL
MODEL 2
REMARK VINA RESULT:       6.0      1.239      3.343
REMARK  5 active torsions:
REMARK  status: ('A' for Active; 'I' for Inactive)
REMARK       I    between atoms: C_2  and  N_1 
REMARK    1  A    between atoms: C_5  and  N_1 
REMARK    2  A    between atoms: C_6  and  N_1 
REMARK    3  A    between atoms: C_4  and  C_2 
REMARK    4  A    between atoms: N_3  and  C_5 
REMARK    5  A    between atoms: O_16  and  C_11 
ROOT
ATOM      1  N   UNL d   1      58.816  -0.508  30.197  0.00  0.00    -0.256 N 
ATOM      2  C   UNL d   1      58.232  -0.085  30.604  0.00  0.00     0.270 C 
ATOM      3  O   UNL d   1      58.159   0.681  30.534  0.00  0.00    -0.266 OA
ENDROOT
BRANCH   1   4
ATOM      4  C   UNL d   1      58.880  -1.327  30.284  0.00  0.00     0.172 C 
BRANCH   4   5
ATOM      5  N   UNL d   1      58.895  -1.925  29.716  0.00  0.00    -0.257 N 
ATOM      6  C   UNL d   1      59.261  -2.660  29.777  0.00  0.00     0.266 A 
ATOM      7  O   UNL d   1      59.687  -2.935  30.434  0.00  0.00    -0.267 OA
ATOM      8  C   UNL d   1      59.132  -3.081  29.071  0.00  0.00     0.063 A 
ATOM      9  C   UNL d   1      58.683  -2.601  28.571  0.00  0.00     0.024 A 
ATOM     10  C   UNL d   1      58.532  -1.888  28.958  0.00  0.00     0.085 A 
ENDBRANCH   4   5
ENDBRANCH   1   4
BRANCH   1  11
ATOM     11  C   UNL d   1      59.342  -0.109  29.697  0.00  0.00     0.090 A 
ATOM     12  C   UNL d   1      60.110   0.062  29.957  0.00  0.00     0.110 A 
ATOM     13  C   UNL d   1      60.624   0.456  29.459  0.00  0.00     0.026 A 
ATOM     14  C   UNL d   1      60.386   0.681  28.710  0.00  0.00     0.002 A 
ATOM     15  C   UNL d   1      59.633   0.513  28.455  0.00  0.00     0.002 A 
ATOM     16  C   UNL d   1      59.100   0.120  28.936  0.00  0.00     0.020 A 
BRANCH  12  17
ATOM     17  O   UNL d   1      60.346  -0.162  30.702  0.00  0.00    -0.327 OA
ATOM     18  C   UNL d   1      61.072   0.090  30.991  0.00  0.00     0.181 C 
ENDBRANCH  12  17
ENDBRANCH   1  11
BRANCH   2  19
ATOM     19  C   UNL d   1      57.716  -0.492  31.097  0.00  0.00     0.111 A 
ATOM     20  C   UNL d   1      57.027  -0.842  30.776  0.00  0.00     0.147 A 
ATOM     21  F   UNL d   1      56.867  -0.779  29.977  0.00  0.00    -0.204 F 
ATOM     22  C   UNL d   1      56.521  -1.247  31.285  0.00  0.00     0.030 A 
ATOM     23  C   UNL d   1      56.697  -1.302  32.091  0.00  0.00     0.005 A 
ATOM     24  C   UNL d   1      57.380  -0.952  32.396  0.00  0.00     0.030 A 
ATOM     25  C   UNL d   1      57.884  -0.551  31.900  0.00  0.00     0.147 A 
ATOM     26  F   UNL d   1      58.570  -0.199  32.200  0.00  0.00    -0.204 F 
ENDBRANCH   2  19
TORSDOF 5
ENDMDL
MODEL 3
REMARK VINA RESULT:       6.4      1.322      3.134
REMARK  5 active torsions:
REMARK  status: ('A' for Active; 'I' for Inactive)
REMARK       I    between atoms: C_2  and  N_1 
REMARK    1  A    between atoms: C_5  and  N_1 
REMARK    2  A    between atoms: C_6  and  N_1 
REMARK    3  A    between atoms: C_4  and  C_2 
REMARK    4  A    between atoms: N_3  and  C_5 
REMARK    5  A    between atoms: O_16  and  C_11 
ROOT
ATOM      1  N   UNL d   1      57.969  -0.379  30.641  0.00  0.00    -0.256 N 
ATOM      2  C   UNL d   1      57.258  -0.677  30.945  0.00  0.00     0.270 C 
ATOM      3  O   UNL d   1      56.885  -1.264  30.610  0.00  0.00    -0.266 OA
ENDROOT
BRANCH   1   4
ATOM      4  C   UNL d   1      58.354   0.250  31.011  0.00  0.00     0.172 C 
BRANCH   4   5
ATOM      5  N   UNL d   1      59.158   0.390  31.128  0.00  0.00    -0.257 N 
ATOM      6  C   UNL d   1      59.533   0.587  31.834  0.00  0.00     0.266 A 
ATOM      7  O   UNL d   1      59.159   0.681  32.569  0.00  0.00    -0.267 OA
ATOM      8  C   UNL d   1      60.347   0.676  31.688  0.00  0.00     0.063 A 
ATOM      9  C   UNL d   1      60.476   0.532  30.885  0.00  0.00     0.024 A 
ATOM     10  C   UNL d   1      59.751   0.356  30.531  0.00  0.00     0.085 A 
ENDBRANCH   4   5
ENDBRANCH   1   4
BRANCH   1  11
ATOM     11  C   UNL d   1      58.298  -0.715  29.958  0.00  0.00     0.090 A 
ATOM     12  C   UNL d   1      58.275  -0.300  29.242  0.00  0.00     0.110 A 
ATOM     13  C   UNL d   1      58.601  -0.636  28.572  0.00  0.00     0.026 A 
ATOM     14  C   UNL d   1      58.949  -1.375  28.606  0.00  0.00     0.002 A 
ATOM     15  C   UNL d   1      58.972  -1.782  29.310  0.00  0.00     0.002 A 
ATOM     16  C   UNL d   1      58.651  -1.465  29.993  0.00  0.00     0.020 A 
BRANCH  12  17
ATOM     17  O   UNL d   1      57.929   0.435  29.208  0.00  0.00    -0.327 OA
ATOM     18  C   UNL d   1      57.557   0.679  28.518  0.00  0.00     0.181 C 
ENDBRANCH  12  17
ENDBRANCH   1  11
BRANCH   2  19
ATOM     19  C   UNL d   1      56.942  -0.335  31.621  0.00  0.00     0.111 A 
ATOM     20  C   UNL d   1      57.106  -0.672  32.371  0.00  0.00     0.147 A 
ATOM     21  F   UNL d   1      57.579  -1.336  32.428  0.00  0.00    -0.204 F 
ATOM     22  C   UNL d   1      56.780  -0.316  33.038  0.00  0.00     0.030 A 
ATOM     23  C   UNL d   1      56.304   0.355  32.962  0.00  0.00     0.005 A 
ATOM     24  C   UNL d   1      56.149   0.678  32.219  0.00  0.00     0.030 A 
ATOM     25  C   UNL d   1      56.467   0.333  31.555  0.00  0.00     0.147 A 
ATOM     26  F   UNL d   1      56.314   0.652  30.807  0.00  0.00    -0.204 F 
ENDBRANCH   2  19
TORSDOF 5
ENDMDL
MODEL 4
REMARK VINA RESULT:       6.7      1.352      3.498
REMARK  5 active torsions:
REMARK  status: ('A' for Active; 'I' for Inactive)
REMARK       I    between atoms: C_2  and  N_1 
REMARK    1  A    between atoms: C_5  and  N_1 
REMARK    2  A    between atoms: C_6  and  N_1 
REMARK    3  A    between atoms: C_4  and  C_2 
REMARK    4  A    between atoms: N_3  and  C_5 
REMARK    5  A    between atoms: O_16  and  C_11 
ROOT
ATOM      1  N   UNL d   1      59.258  -1.656  29.495  0.00  0.00    -0.256 N 
ATOM      2  C   UNL d   1      59.933  -1.342  29.131  0.00  0.00     0.270 C 
ATOM      3  O   UNL d   1      60.212  -1.630  28.471  0.00  0.00    -0.266 OA
ENDROOT
BRANCH   1   4
ATOM      4  C   UNL d   1      58.974  -1.336  30.202  0.00  0.00     0.172 C 
BRANCH   4   5
ATOM      5  N   UNL d   1      58.284  -0.913  30.357  0.00  0.00    -0.257 N 
ATOM      6  C   UNL d   1      57.804  -0.970  31.023  0.00  0.00     0.266 A 
ATOM      7  O   UNL d   1      57.933  -1.473  31.671  0.00  0.00    -0.267 OA
ATOM      8  C   UNL d   1      57.169  -0.439  30.940  0.00  0.00     0.063 A 
ATOM      9  C   UNL d   1      57.258  -0.052  30.216  0.00  0.00     0.024 A 
ATOM     10  C   UNL d   1      57.941  -0.336  29.849  0.00  0.00     0.085 A 
ENDBRANCH   4   5
ENDBRANCH   1   4
BRANCH   1  11
ATOM     11  C   UNL d   1      58.863  -2.297  29.150  0.00  0.00     0.090 A 
ATOM     12  C   UNL d   1      59.209  -3.050  29.161  0.00  0.00     0.110 A 
ATOM     13  C   UNL d   1      58.815  -3.678  28.818  0.00  0.00     0.026 A 
ATOM     14  C   UNL d   1      58.085  -3.568  28.466  0.00  0.00     0.002 A 
ATOM     15  C   UNL d   1      57.746  -2.829  28.456  0.00  0.00     0.002 A 
ATOM     16  C   UNL d   1      58.123  -2.185  28.793  0.00  0.00     0.020 A 
BRANCH  12  17
ATOM     17  O   UNL d   1      59.935  -3.159  29.510  0.00  0.00    -0.327 OA
ATOM     18  C   UNL d   1      60.269  -3.909  29.529  0.00  0.00     0.181 C 
ENDBRANCH  12  17
ENDBRANCH   1  11
BRANCH   2  19
ATOM     19  C   UNL d   1      60.316  -0.707  29.484  0.00  0.00     0.111 A 
ATOM     20  C   UNL d   1      60.259   0.054  29.139  0.00  0.00     0.147 A 
ATOM     21  F   UNL d   1      59.825   0.165  28.456  0.00  0.00    -0.204 F 
ATOM     22  C   UNL d   1      60.649   0.680  29.507  0.00  0.00     0.030 A 
ATOM     23  C   UNL d   1      61.084   0.551  30.198  0.00  0.00     0.005 A 
ATOM     24  C   UNL d   1      61.133  -0.204  30.529  0.00  0.00     0.030 A 
ATOM     25  C   UNL d   1      60.750  -0.827  30.172  0.00  0.00     0.147 A 
ATOM     26  F   UNL d   1      60.796  -1.584  30.500  0.00  0.00    -0.204 F 
ENDBRANCH   2  19
TORSDOF 5
ENDMDL
MODEL 5
REMARK VINA RESULT:       8.3      1.945      2.999
REMARK  5 active torsions:
REMARK  status: ('A' for Active; 'I' for Inactive)
REMARK       I    between atoms: C_2  and  N_1 
REMARK    1  A    between atoms: C_5  and  N_1 
REMARK    2  A    between atoms: C_6  and  N_1 
REMARK    3  A    between atoms: C_4  and  C_2 
REMARK    4  A    between atoms: N_3  and  C_5 
REMARK    5  A    between atoms: O_16  and  C_11 
ROOT
ATOM      1  N   UNL d   1      56.906  -0.487  32.043  0.00  0.00    -0.256 N 
ATOM      2  C   UNL d   1      56.931  -0.797  31.275  0.00  0.00     0.270 C 
ATOM      3  O   UNL d   1      56.504  -1.406  31.067  0.00  0.00    -0.266 OA
ENDROOT
BRANCH   1   4
ATOM      4  C   UNL d   1      57.370   0.165  32.248  0.00  0.00     0.172 C 
BRANCH   4   5
ATOM      5  N   UNL d   1      57.735   0.358  32.962  0.00  0.00    -0.257 N 
ATOM      6  C   UNL d   1      58.534   0.509  33.088  0.00  0.00     0.266 A 
ATOM      7  O   UNL d   1      59.127   0.494  32.507  0.00  0.00    -0.267 OA
ATOM      8  C   UNL d   1      58.649   0.679  33.894  0.00  0.00     0.063 A 
ATOM      9  C   UNL d   1      57.914   0.632  34.268  0.00  0.00     0.024 A 
ATOM     10  C   UNL d   1      57.345   0.435  33.704  0.00  0.00     0.085 A 
ENDBRANCH   4   5
ENDBRANCH   1   4
BRANCH   1  11
ATOM     11  C   UNL d   1      56.413  -0.832  32.612  0.00  0.00     0.090 A 
ATOM     12  C   UNL d   1      55.717  -0.445  32.843  0.00  0.00     0.110 A 
ATOM     13  C   UNL d   1      55.234  -0.791  33.405  0.00  0.00     0.026 A 
ATOM     14  C   UNL d   1      55.433  -1.511  33.738  0.00  0.00     0.002 A 
ATOM     15  C   UNL d   1      56.116  -1.889  33.510  0.00  0.00     0.002 A 
ATOM     16  C   UNL d   1      56.615  -1.562  32.949  0.00  0.00     0.020 A 
BRANCH  12  17
ATOM     17  O   UNL d   1      55.520   0.271  32.513  0.00  0.00    -0.327 OA
ATOM     18  C   UNL d   1      54.863   0.679  32.789  0.00  0.00     0.181 C 
ENDBRANCH  12  17
ENDBRANCH   1  11
BRANCH   2  19
ATOM     19  C   UNL d   1      57.424  -0.446  30.720  0.00  0.00     0.111 A 
ATOM     20  C   UNL d   1      58.113  -0.849  30.465  0.00  0.00     0.147 A 
ATOM     21  F   UNL d   1      58.294  -1.587  30.767  0.00  0.00    -0.204 F 
ATOM     22  C   UNL d   1      58.596  -0.482  29.908  0.00  0.00     0.030 A 
ATOM     23  C   UNL d   1      58.399   0.265  29.613  0.00  0.00     0.005 A 
ATOM     24  C   UNL d   1      57.718   0.652  29.872  0.00  0.00     0.030 A 
ATOM     25  C   UNL d   1      57.235   0.296  30.422  0.00  0.00     0.147 A 
ATOM     26  F   UNL d   1      56.552   0.680  30.684  0.00  0.00    -0.204 F 
ENDBRANCH   2  19
TORSDOF 5
ENDMDL
