MODEL 1
REMARK VINA RESULT:      54.7      0.000      0.000
REMARK  4 active torsions:
REMARK  status: ('A' for Active; 'I' for Inactive)
REMARK    1  A    between atoms: C_6  and  N_1 
REMARK    2  A    between atoms: N_8  and  C_4 
REMARK    3  A    between atoms: N_7  and  C_10 
REMARK    4  A    between atoms: C_16  and  N_8 
ROOT
ATOM      1  N   UNL d   1     -51.236  25.334  33.319  0.00  0.00    -0.238 N 
ATOM      2  C   UNL d   1     -50.390  25.312  33.323  0.00  0.00     0.269 A 
ATOM      3  C   UNL d   1     -51.476  26.115  33.312  0.00  0.00     0.285 A 
ATOM      4  C   UNL d   1     -50.783  26.601  33.312  0.00  0.00     0.142 A 
ATOM      5  C   UNL d   1     -50.144  26.086  33.319  0.00  0.00     0.085 A 
ATOM      6  O   UNL d   1     -49.896  24.663  33.330  0.00  0.00    -0.267 OA
ATOM      7  O   UNL d   1     -52.266  26.366  33.306  0.00  0.00    -0.265 OA
ENDROOT
BRANCH   4   8
ATOM      8  N   UNL d   1     -50.743  27.416  33.306  0.00  0.00    -0.241 NA
BRANCH   8   9
ATOM      9  C   UNL d   1     -50.162  27.800  33.735  0.00  0.00     0.082 A 
ATOM     10  C   UNL d   1     -49.829  28.502  33.444  0.00  0.00     0.021 A 
ATOM     11  C   UNL d   1     -49.241  28.904  33.863  0.00  0.00     0.019 A 
ATOM     12  C   UNL d   1     -48.981  28.590  34.598  0.00  0.00     0.064 A 
ATOM     13  C   UNL d   1     -49.308  27.886  34.900  0.00  0.00     0.019 A 
ATOM     14  C   UNL d   1     -49.901  27.495  34.461  0.00  0.00     0.021 A 
BRANCH  12  15
ATOM     15  N   UNL d   1     -48.398  28.974  35.030  0.00  0.00    -0.300 N 
ATOM     16  C   UNL d   1     -48.119  29.698  34.773  0.00  0.00     0.107 A 
ATOM     17  C   UNL d   1     -47.538  30.089  35.197  0.00  0.00     0.142 A 
ATOM     18  O   UNL d   1     -47.237  29.744  35.888  0.00  0.00    -0.300 OA
ATOM     19  C   UNL d   1     -47.516  29.006  36.156  0.00  0.00     0.142 A 
ATOM     20  C   UNL d   1     -48.099  28.629  35.718  0.00  0.00     0.107 A 
ENDBRANCH  12  15
ENDBRANCH   8   9
ENDBRANCH   4   8
BRANCH   1  21
ATOM     21  C   UNL d   1     -51.741  24.695  33.321  0.00  0.00     0.097 A 
ATOM     22  C   UNL d   1     -51.438  23.936  33.314  0.00  0.00     0.156 A 
ATOM     23  F   UNL d   1     -50.627  23.802  33.306  0.00  0.00    -0.203 F 
ATOM     24  C   UNL d   1     -51.950  23.285  33.316  0.00  0.00     0.031 A 
ATOM     25  C   UNL d   1     -52.761  23.405  33.325  0.00  0.00     0.002 A 
ATOM     26  C   UNL d   1     -53.059  24.170  33.331  0.00  0.00     0.002 A 
ATOM     27  C   UNL d   1     -52.546  24.816  33.329  0.00  0.00     0.020 A 
ENDBRANCH   1  21
TORSDOF 4
ENDMDL
