MODEL 1
REMARK VINA RESULT:      37.8      0.000      0.000
REMARK  7 active torsions:
REMARK  status: ('A' for Active; 'I' for Inactive)
REMARK    1  A    between atoms: C_4  and  C_1 
REMARK    2  A    between atoms: C_6  and  C_3 
REMARK       I    between atoms: N_13  and  C_6 
REMARK    3  A    between atoms: O_18  and  C_8 
REMARK    4  A    between atoms: O_19  and  C_10 
REMARK    5  A    between atoms: C_20  and  N_13 
REMARK    6  A    between atoms: C_15  and  C_22 
REMARK    7  A    between atoms: C_22  and  C_20 
ROOT
ATOM      1  C   UNL d   1      14.689  12.376  -1.017  0.00  0.00     0.302 C 
ATOM      2  O   UNL d   1      15.215  11.780  -0.806  0.00  0.00    -0.263 OA
ATOM      3  N   UNL d   1      14.716  13.097  -0.626  0.00  0.00    -0.205 NA
ENDROOT
BRANCH   1   4
ATOM      4  C   UNL d   1      14.139  12.249  -1.618  0.00  0.00     0.158 A 
ATOM      5  O   UNL d   1      14.201  12.506  -2.397  0.00  0.00    -0.302 OA
ATOM      6  C   UNL d   1      13.527  12.254  -2.801  0.00  0.00     0.101 A 
ATOM      7  C   UNL d   1      13.044  11.838  -2.269  0.00  0.00     0.027 A 
ATOM      8  C   UNL d   1      13.427  11.836  -1.533  0.00  0.00     0.032 A 
BRANCH   6   9
ATOM      9  C   UNL d   1      13.363  12.391  -3.591  0.00  0.00     0.033 A 
ATOM     10  C   UNL d   1      13.067  13.128  -3.828  0.00  0.00     0.060 A 
ATOM     11 CL   UNL d   1      12.936  13.724  -3.271  0.00  0.00    -0.082 Cl
ATOM     12  C   UNL d   1      12.903  13.262  -4.625  0.00  0.00     0.011 A 
ATOM     13  C   UNL d   1      13.031  12.671  -5.185  0.00  0.00     0.001 A 
ATOM     14  C   UNL d   1      13.324  11.942  -4.952  0.00  0.00     0.000 A 
ATOM     15  C   UNL d   1      13.492  11.795  -4.155  0.00  0.00     0.003 A 
ENDBRANCH   6   9
ENDBRANCH   1   4
BRANCH   3  16
ATOM     16  C   UNL d   1      15.267  13.227  -0.024  0.00  0.00     0.102 C 
BRANCH  16  17
ATOM     17  C   UNL d   1      15.714  13.906  -0.014  0.00  0.00     0.021 C 
BRANCH  17  18
ATOM     18  C   UNL d   1      15.493  14.548  -0.483  0.00  0.00     0.004 A 
ATOM     19  C   UNL d   1      15.074  15.180  -0.150  0.00  0.00     0.026 A 
ATOM     20  C   UNL d   1      14.854  15.817  -0.612  0.00  0.00     0.116 A 
ATOM     21  C   UNL d   1      15.055  15.828  -1.418  0.00  0.00     0.116 A 
ATOM     22  C   UNL d   1      15.473  15.199  -1.748  0.00  0.00     0.026 A 
ATOM     23  C   UNL d   1      15.692  14.560  -1.281  0.00  0.00     0.002 A 
BRANCH  20  24
ATOM     24  O   UNL d   1      14.437  16.442  -0.275  0.00  0.00    -0.326 OA
ATOM     25  C   UNL d   1      14.772  17.205  -0.271  0.00  0.00     0.181 C 
ENDBRANCH  20  24
BRANCH  21  26
ATOM     26  O   UNL d   1      14.828  16.481  -1.885  0.00  0.00    -0.326 OA
ATOM     27  C   UNL d   1      14.947  16.444  -2.698  0.00  0.00     0.181 C 
ENDBRANCH  21  26
ENDBRANCH  17  18
ENDBRANCH  16  17
ENDBRANCH   3  16
TORSDOF 7
ENDMDL
