MODEL 1
REMARK VINA RESULT:      35.7      0.000      0.000
REMARK  6 active torsions:
REMARK  status: ('A' for Active; 'I' for Inactive)
REMARK    1  A    between atoms: C_2  and  S_1 
REMARK    2  A    between atoms: N_4  and  S_1 
REMARK    3  A    between atoms: C_18  and  N_4 
REMARK    4  A    between atoms: O_20  and  C_6 
REMARK    5  A    between atoms: C_19  and  C_18 
REMARK    6  A    between atoms: C_24  and  O_20 
ROOT
ATOM      1  S   UNL d   1      13.393  12.992  -3.985  0.00  0.00     0.327 S 
ATOM      2  O   UNL d   1      13.814  12.460  -4.468  0.00  0.00    -0.186 OA
ATOM      3  O   UNL d   1      12.975  13.519  -3.505  0.00  0.00    -0.186 OA
ENDROOT
BRANCH   1   4
ATOM      4  C   UNL d   1      13.533  13.596  -4.523  0.00  0.00     0.118 A 
ATOM      5  C   UNL d   1      13.707  14.362  -4.260  0.00  0.00     0.039 A 
ATOM      6  C   UNL d   1      13.848  14.970  -4.798  0.00  0.00     0.101 A 
ATOM      7  C   UNL d   1      13.817  14.814  -5.615  0.00  0.00     0.023 A 
ATOM      8  C   UNL d   1      13.645  14.052  -5.880  0.00  0.00     0.003 A 
ATOM      9  C   UNL d   1      13.956  15.414  -6.156  0.00  0.00     0.002 C 
ATOM     10  C   UNL d   1      13.502  13.439  -5.340  0.00  0.00     0.013 A 
ATOM     11  C   UNL d   1      13.331  12.681  -5.610  0.00  0.00     0.001 C 
BRANCH   6  12
ATOM     12  O   UNL d   1      14.019  15.725  -4.532  0.00  0.00    -0.305 OA
BRANCH  12  13
ATOM     13  C   UNL d   1      14.312  15.827  -3.773  0.00  0.00     0.123 C 
ATOM     14  C   UNL d   1      14.782  16.485  -3.609  0.00  0.00     0.029 C 
ENDBRANCH  12  13
ENDBRANCH   6  12
ENDBRANCH   1   4
BRANCH   1  15
ATOM     15  N   UNL d   1      13.252  12.392  -3.448  0.00  0.00    -0.314 NA
BRANCH  15  16
ATOM     16  C   UNL d   1      13.106  11.785  -2.908  0.00  0.00     0.176 C 
BRANCH  16  17
ATOM     17  C   UNL d   1      13.468  11.789  -2.162  0.00  0.00     0.035 A 
ATOM     18  C   UNL d   1      14.286  11.802  -2.096  0.00  0.00     0.029 A 
ATOM     19  C   UNL d   1      14.644  11.805  -1.352  0.00  0.00     0.119 A 
ATOM     20  O   UNL d   1      15.439  11.817  -1.121  0.00  0.00    -0.300 OA
ATOM     21  C   UNL d   1      14.172  11.796  -0.667  0.00  0.00     0.119 A 
ATOM     22  C   UNL d   1      15.457  11.815  -0.294  0.00  0.00     0.304 A 
ATOM     23  O   UNL d   1      14.678  11.802  -0.016  0.00  0.00    -0.300 OA
ATOM     24  C   UNL d   1      13.349  11.783  -0.736  0.00  0.00     0.026 A 
ATOM     25  C   UNL d   1      12.996  11.779  -1.476  0.00  0.00     0.005 A 
ENDBRANCH  16  17
ENDBRANCH  15  16
ENDBRANCH   1  15
TORSDOF 6
ENDMDL
