MODEL 1
REMARK VINA RESULT:      76.4      0.000      0.000
REMARK  5 active torsions:
REMARK  status: ('A' for Active; 'I' for Inactive)
REMARK    1  A    between atoms: O_4  and  C_1 
REMARK    2  A    between atoms: C_9  and  C_2 
REMARK    3  A    between atoms: C_5  and  O_4 
REMARK    4  A    between atoms: C_12  and  C_5 
REMARK    5  A    between atoms: N_10  and  C_9 
ROOT
ATOM      1  C   UNL d   1     -57.934 -98.973 -44.179  0.00  0.00     0.122 A 
ATOM      2  C   UNL d   1     -57.134 -98.939 -43.978  0.00  0.00     0.043 A 
ATOM      3  C   UNL d   1     -58.508 -98.934 -43.588  0.00  0.00     0.105 A 
ATOM      4  C   UNL d   1     -58.283 -98.862 -42.798  0.00  0.00     0.030 A 
ATOM      5  C   UNL d   1     -57.486 -98.829 -42.608  0.00  0.00     0.059 A 
ATOM      6  C   UNL d   1     -56.909 -98.867 -43.189  0.00  0.00     0.015 A 
ATOM      7  N   UNL d   1     -59.299 -98.968 -43.790  0.00  0.00    -0.242 NA
ATOM      8 CL   UNL d   1     -57.282 -98.756 -41.801  0.00  0.00    -0.082 Cl
ATOM      9  C   UNL d   1     -58.852 -98.824 -42.219  0.00  0.00     0.004 A 
ATOM     10  C   UNL d   1     -59.873 -98.929 -43.199  0.00  0.00     0.099 A 
ATOM     11  C   UNL d   1     -59.648 -98.857 -42.409  0.00  0.00     0.021 A 
ENDROOT
BRANCH   1  12
ATOM     12  O   UNL d   1     -58.148 -99.039 -44.891  0.00  0.00    -0.271 OA
BRANCH  12  13
ATOM     13  C   UNL d   1     -58.559 -99.669 -45.494  0.00  0.00     0.300 C 
ATOM     14  O   UNL d   1     -58.545-100.618 -45.166  0.00  0.00    -0.259 OA
BRANCH  13  15
ATOM     15  C   UNL d   1     -58.886 -99.427 -46.210  0.00  0.00     0.064 A 
ATOM     16  C   UNL d   1     -59.603 -99.005 -46.215  0.00  0.00     0.008 A 
ATOM     17  C   UNL d   1     -59.931 -98.761 -46.942  0.00  0.00     0.030 A 
ATOM     18  C   UNL d   1     -59.546 -98.938 -47.662  0.00  0.00     0.140 A 
ATOM     19  C   UNL d   1     -58.832 -99.360 -47.652  0.00  0.00     0.030 A 
ATOM     20  F   UNL d   1     -59.796 -98.755 -48.183  0.00  0.00    -0.204 F 
ATOM     21  C   UNL d   1     -58.504 -99.603 -46.925  0.00  0.00     0.008 A 
ENDBRANCH  13  15
ENDBRANCH  12  13
ENDBRANCH   1  12
BRANCH   2  22
ATOM     22  C   UNL d   1     -56.374 -98.967 -44.479  0.00  0.00     0.082 C 
BRANCH  22  23
ATOM     23  N   UNL d   1     -55.917 -99.648 -44.482  0.00  0.00    -0.299 N 
ATOM     24  C   UNL d   1     -55.990-100.188 -43.873  0.00  0.00     0.107 A 
ATOM     25  C   UNL d   1     -55.536-100.879 -43.863  0.00  0.00     0.142 A 
ATOM     26  O   UNL d   1     -55.012-101.017 -44.473  0.00  0.00    -0.300 OA
ATOM     27  C   UNL d   1     -54.936-100.471 -45.093  0.00  0.00     0.142 A 
ATOM     28  C   UNL d   1     -55.393 -99.792 -45.087  0.00  0.00     0.107 A 
ENDBRANCH  22  23
ENDBRANCH   2  22
TORSDOF 5
ENDMDL
