MODEL 1
REMARK VINA RESULT:      -3.2      0.000      0.000
REMARK  6 active torsions:
REMARK  status: ('A' for Active; 'I' for Inactive)
REMARK    1  A    between atoms: C_7  and  C_1 
REMARK    2  A    between atoms: C_9  and  N_2 
REMARK    3  A    between atoms: C_15  and  C_7 
REMARK    4  A    between atoms: C_8  and  C_9 
REMARK       I    between atoms: N_14  and  C_8 
REMARK    5  A    between atoms: C_20  and  N_14 
REMARK    6  A    between atoms: C_34  and  C_33 
ROOT
ATOM      1  C   UNL d   1     -45.403  13.014  22.612  0.00  0.00     0.095 A 
ATOM      2  N   UNL d   1     -44.242  12.620  21.868  0.00  0.00    -0.300 N 
ATOM      3  C   UNL d   1     -45.319  12.308  23.084  0.00  0.00     0.202 A 
ATOM      4  C   UNL d   1     -44.869  13.168  22.010  0.00  0.00     0.087 A 
ATOM      5  C   UNL d   1     -44.691  11.781  22.925  0.00  0.00     0.056 A 
ATOM      6  C   UNL d   1     -44.152  11.926  22.326  0.00  0.00     0.067 A 
ATOM      7  C   UNL d   1     -43.539  11.390  22.187  0.00  0.00     0.018 A 
ATOM      8  C   UNL d   1     -44.599  11.083  23.384  0.00  0.00     0.016 A 
ATOM      9  O   UNL d   1     -45.847  12.155  23.679  0.00  0.00    -0.286 OA
ATOM     10  C   UNL d   1     -43.982  10.552  23.238  0.00  0.00     0.058 A 
ATOM     11  C   UNL d   1     -43.451  10.706  22.639  0.00  0.00     0.013 A 
ATOM     12 CL   UNL d   1     -43.899   9.864  23.697  0.00  0.00    -0.082 Cl
ENDROOT
BRANCH   2  13
ATOM     13  C   UNL d   1     -43.712  12.774  21.270  0.00  0.00     0.144 C 
BRANCH  13  14
ATOM     14  C   UNL d   1     -43.158  13.380  21.354  0.00  0.00     0.297 C 
ATOM     15  N   UNL d   1     -42.470  13.371  20.909  0.00  0.00    -0.207 NA
ATOM     16  O   UNL d   1     -43.298  13.989  21.885  0.00  0.00    -0.264 OA
BRANCH  15  17
ATOM     17  C   UNL d   1     -41.916  13.976  20.994  0.00  0.00     0.087 A 
ATOM     18  C   UNL d   1     -41.174  13.802  21.280  0.00  0.00     0.045 A 
ATOM     19  C   UNL d   1     -40.619  14.404  21.365  0.00  0.00     0.121 A 
ATOM     20  O   UNL d   1     -39.830  14.385  21.640  0.00  0.00    -0.299 OA
ATOM     21  C   UNL d   1     -40.819  15.180  21.160  0.00  0.00     0.119 A 
ATOM     22  C   UNL d   1     -39.533  15.165  21.605  0.00  0.00     0.304 A 
ATOM     23  O   UNL d   1     -40.145  15.659  21.308  0.00  0.00    -0.300 OA
ATOM     24  C   UNL d   1     -41.565  15.352  20.873  0.00  0.00     0.028 A 
ATOM     25  C   UNL d   1     -42.119  14.747  20.789  0.00  0.00     0.021 A 
ENDBRANCH  15  17
ENDBRANCH  13  14
ENDBRANCH   2  13
BRANCH   1  26
ATOM     26  C   UNL d   1     -46.017  13.540  22.759  0.00  0.00     0.200 C 
ATOM     27  O   UNL d   1     -45.887  14.197  23.228  0.00  0.00    -0.286 OA
BRANCH  26  28
ATOM     28  C   UNL d   1     -46.763  13.410  22.436  0.00  0.00     0.039 A 
ATOM     29  C   UNL d   1     -46.867  13.351  21.610  0.00  0.00     0.003 A 
ATOM     30  C   UNL d   1     -47.621  13.220  21.277  0.00  0.00     0.000 A 
ATOM     31  C   UNL d   1     -48.271  13.146  21.770  0.00  0.00     0.000 A 
ATOM     32  C   UNL d   1     -48.152  13.208  22.601  0.00  0.00     0.000 A 
ATOM     33  C   UNL d   1     -47.403  13.339  22.936  0.00  0.00     0.003 A 
BRANCH  31  34
ATOM     34  C   UNL d   1     -49.021  13.015  21.441  0.00  0.00     0.000 C 
ATOM     35  C   UNL d   1     -49.351  12.274  21.506  0.00  0.00     0.000 C 
ENDBRANCH  31  34
ENDBRANCH  26  28
ENDBRANCH   1  26
TORSDOF 6
ENDMDL
MODEL 2
REMARK VINA RESULT:      -2.3      2.849      4.838
REMARK  6 active torsions:
REMARK  status: ('A' for Active; 'I' for Inactive)
REMARK    1  A    between atoms: C_7  and  C_1 
REMARK    2  A    between atoms: C_9  and  N_2 
REMARK    3  A    between atoms: C_15  and  C_7 
REMARK    4  A    between atoms: C_8  and  C_9 
REMARK       I    between atoms: N_14  and  C_8 
REMARK    5  A    between atoms: C_20  and  N_14 
REMARK    6  A    between atoms: C_34  and  C_33 
ROOT
ATOM      1  C   UNL d   1     -49.066  13.035  22.329  0.00  0.00     0.095 A 
ATOM      2  N   UNL d   1     -48.312  14.234  22.548  0.00  0.00    -0.300 N 
ATOM      3  C   UNL d   1     -49.775  13.463  22.533  0.00  0.00     0.202 A 
ATOM      4  C   UNL d   1     -48.342  13.417  22.336  0.00  0.00     0.087 A 
ATOM      5  C   UNL d   1     -49.721  14.270  22.739  0.00  0.00     0.056 A 
ATOM      6  C   UNL d   1     -49.002  14.662  22.750  0.00  0.00     0.067 A 
ATOM      7  C   UNL d   1     -48.973  15.461  22.956  0.00  0.00     0.018 A 
ATOM      8  C   UNL d   1     -50.413  14.702  22.942  0.00  0.00     0.016 A 
ATOM      9  O   UNL d   1     -50.492  13.085  22.526  0.00  0.00    -0.286 OA
ATOM     10  C   UNL d   1     -50.374  15.502  23.148  0.00  0.00     0.058 A 
ATOM     11  C   UNL d   1     -49.653  15.882  23.155  0.00  0.00     0.013 A 
ATOM     12 CL   UNL d   1     -51.064  15.921  23.347  0.00  0.00    -0.082 Cl
ENDROOT
BRANCH   2  13
ATOM     13  C   UNL d   1     -47.592  14.613  22.555  0.00  0.00     0.144 C 
BRANCH  13  14
ATOM     14  C   UNL d   1     -46.923  14.235  22.254  0.00  0.00     0.297 C 
ATOM     15  N   UNL d   1     -46.300  14.047  22.752  0.00  0.00    -0.207 NA
ATOM     16  O   UNL d   1     -46.884  14.048  21.456  0.00  0.00    -0.264 OA
BRANCH  15  17
ATOM     17  C   UNL d   1     -45.631  13.669  22.452  0.00  0.00     0.087 A 
ATOM     18  C   UNL d   1     -45.316  13.035  22.853  0.00  0.00     0.045 A 
ATOM     19  C   UNL d   1     -44.648  12.656  22.556  0.00  0.00     0.121 A 
ATOM     20  O   UNL d   1     -44.215  12.003  22.847  0.00  0.00    -0.299 OA
ATOM     21  C   UNL d   1     -44.304  12.921  21.853  0.00  0.00     0.119 A 
ATOM     22  C   UNL d   1     -43.588  11.859  22.315  0.00  0.00     0.304 A 
ATOM     23  O   UNL d   1     -43.641  12.428  21.698  0.00  0.00    -0.300 OA
ATOM     24  C   UNL d   1     -44.622  13.558  21.451  0.00  0.00     0.028 A 
ATOM     25  C   UNL d   1     -45.291  13.936  21.751  0.00  0.00     0.021 A 
ENDBRANCH  15  17
ENDBRANCH  13  14
ENDBRANCH   2  13
BRANCH   1  26
ATOM     26  C   UNL d   1     -49.107  12.239  22.124  0.00  0.00     0.200 C 
ATOM     27  O   UNL d   1     -49.617  11.997  21.532  0.00  0.00    -0.286 OA
BRANCH  26  28
ATOM     28  C   UNL d   1     -48.638  11.685  22.512  0.00  0.00     0.039 A 
ATOM     29  C   UNL d   1     -48.074  11.235  22.094  0.00  0.00     0.003 A 
ATOM     30  C   UNL d   1     -47.596  10.672  22.481  0.00  0.00     0.000 A 
ATOM     31  C   UNL d   1     -47.682  10.559  23.288  0.00  0.00     0.000 A 
ATOM     32  C   UNL d   1     -48.255  11.019  23.697  0.00  0.00     0.000 A 
ATOM     33  C   UNL d   1     -48.733  11.581  23.315  0.00  0.00     0.003 A 
BRANCH  31  34
ATOM     34  C   UNL d   1     -47.208   9.999  23.675  0.00  0.00     0.000 C 
ATOM     35  C   UNL d   1     -46.438   9.902  23.429  0.00  0.00     0.000 C 
ENDBRANCH  31  34
ENDBRANCH  26  28
ENDBRANCH   1  26
TORSDOF 6
ENDMDL
MODEL 3
REMARK VINA RESULT:      -2.1      1.927      2.897
REMARK  6 active torsions:
REMARK  status: ('A' for Active; 'I' for Inactive)
REMARK    1  A    between atoms: C_7  and  C_1 
REMARK    2  A    between atoms: C_9  and  N_2 
REMARK    3  A    between atoms: C_15  and  C_7 
REMARK    4  A    between atoms: C_8  and  C_9 
REMARK       I    between atoms: N_14  and  C_8 
REMARK    5  A    between atoms: C_20  and  N_14 
REMARK    6  A    between atoms: C_34  and  C_33 
ROOT
ATOM      1  C   UNL d   1     -47.875  13.173  22.190  0.00  0.00     0.095 A 
ATOM      2  N   UNL d   1     -46.612  12.949  22.831  0.00  0.00    -0.300 N 
ATOM      3  C   UNL d   1     -48.106  12.381  22.407  0.00  0.00     0.202 A 
ATOM      4  C   UNL d   1     -47.135  13.454  22.400  0.00  0.00     0.087 A 
ATOM      5  C   UNL d   1     -47.573  11.900  22.832  0.00  0.00     0.056 A 
ATOM      6  C   UNL d   1     -46.831  12.171  23.048  0.00  0.00     0.067 A 
ATOM      7  C   UNL d   1     -46.320  11.678  23.469  0.00  0.00     0.018 A 
ATOM      8  C   UNL d   1     -47.791  11.119  23.051  0.00  0.00     0.016 A 
ATOM      9  O   UNL d   1     -48.838  12.103  22.199  0.00  0.00    -0.286 OA
ATOM     10  C   UNL d   1     -47.272  10.631  23.473  0.00  0.00     0.058 A 
ATOM     11  C   UNL d   1     -46.536  10.911  23.682  0.00  0.00     0.013 A 
ATOM     12 CL   UNL d   1     -47.496   9.859  23.686  0.00  0.00    -0.082 Cl
ENDROOT
BRANCH   2  13
ATOM     13  C   UNL d   1     -45.877  13.229  23.040  0.00  0.00     0.144 C 
BRANCH  13  14
ATOM     14  C   UNL d   1     -45.297  13.338  22.462  0.00  0.00     0.297 C 
ATOM     15  N   UNL d   1     -44.617  12.882  22.474  0.00  0.00    -0.207 NA
ATOM     16  O   UNL d   1     -45.405  13.903  21.877  0.00  0.00    -0.264 OA
BRANCH  15  17
ATOM     17  C   UNL d   1     -44.037  12.990  21.897  0.00  0.00     0.087 A 
ATOM     18  C   UNL d   1     -43.440  13.527  22.026  0.00  0.00     0.045 A 
ATOM     19  C   UNL d   1     -42.860  13.638  21.452  0.00  0.00     0.121 A 
ATOM     20  O   UNL d   1     -42.194  14.143  21.437  0.00  0.00    -0.299 OA
ATOM     21  C   UNL d   1     -42.889  13.202  20.750  0.00  0.00     0.119 A 
ATOM     22  C   UNL d   1     -41.801  14.020  20.711  0.00  0.00     0.304 A 
ATOM     23  O   UNL d   1     -42.230  13.436  20.283  0.00  0.00    -0.300 OA
ATOM     24  C   UNL d   1     -43.490  12.663  20.623  0.00  0.00     0.028 A 
ATOM     25  C   UNL d   1     -44.070  12.554  21.199  0.00  0.00     0.021 A 
ENDBRANCH  15  17
ENDBRANCH  13  14
ENDBRANCH   2  13
BRANCH   1  26
ATOM     26  C   UNL d   1     -48.392  13.656  21.770  0.00  0.00     0.200 C 
ATOM     27  O   UNL d   1     -48.450  13.580  20.958  0.00  0.00    -0.286 OA
BRANCH  26  28
ATOM     28  C   UNL d   1     -48.851  14.214  22.163  0.00  0.00     0.039 A 
ATOM     29  C   UNL d   1     -48.606  15.010  22.213  0.00  0.00     0.003 A 
ATOM     30  C   UNL d   1     -49.068  15.581  22.609  0.00  0.00     0.000 A 
ATOM     31  C   UNL d   1     -49.774  15.356  22.957  0.00  0.00     0.000 A 
ATOM     32  C   UNL d   1     -50.009  14.550  22.899  0.00  0.00     0.000 A 
ATOM     33  C   UNL d   1     -49.552  13.979  22.505  0.00  0.00     0.003 A 
BRANCH  31  34
ATOM     34  C   UNL d   1     -50.235  15.922  23.352  0.00  0.00     0.000 C 
ATOM     35  C   UNL d   1     -50.933  15.685  23.696  0.00  0.00     0.000 C 
ENDBRANCH  31  34
ENDBRANCH  26  28
ENDBRANCH   1  26
TORSDOF 6
ENDMDL
MODEL 4
REMARK VINA RESULT:      -0.7      2.736      5.031
REMARK  6 active torsions:
REMARK  status: ('A' for Active; 'I' for Inactive)
REMARK    1  A    between atoms: C_7  and  C_1 
REMARK    2  A    between atoms: C_9  and  N_2 
REMARK    3  A    between atoms: C_15  and  C_7 
REMARK    4  A    between atoms: C_8  and  C_9 
REMARK       I    between atoms: N_14  and  C_8 
REMARK    5  A    between atoms: C_20  and  N_14 
REMARK    6  A    between atoms: C_34  and  C_33 
ROOT
ATOM      1  C   UNL d   1     -47.323  13.440  22.435  0.00  0.00     0.095 A 
ATOM      2  N   UNL d   1     -47.855  12.195  22.907  0.00  0.00    -0.300 N 
ATOM      3  C   UNL d   1     -48.068  13.593  22.049  0.00  0.00     0.202 A 
ATOM      4  C   UNL d   1     -47.217  12.747  22.860  0.00  0.00     0.087 A 
ATOM      5  C   UNL d   1     -48.684  13.032  22.110  0.00  0.00     0.056 A 
ATOM      6  C   UNL d   1     -48.589  12.337  22.532  0.00  0.00     0.067 A 
ATOM      7  C   UNL d   1     -49.212  11.797  22.578  0.00  0.00     0.018 A 
ATOM      8  C   UNL d   1     -49.422  13.173  21.734  0.00  0.00     0.016 A 
ATOM      9  O   UNL d   1     -48.173  14.278  21.629  0.00  0.00    -0.286 OA
ATOM     10  C   UNL d   1     -50.040  12.626  21.785  0.00  0.00     0.058 A 
ATOM     11  C   UNL d   1     -49.935  11.937  22.208  0.00  0.00     0.013 A 
ATOM     12 CL   UNL d   1     -50.768  12.773  21.410  0.00  0.00    -0.082 Cl
ENDROOT
BRANCH   2  13
ATOM     13  C   UNL d   1     -47.750  11.507  23.329  0.00  0.00     0.144 C 
BRANCH  13  14
ATOM     14  C   UNL d   1     -47.085  11.037  23.194  0.00  0.00     0.297 C 
ATOM     15  N   UNL d   1     -46.441  11.082  23.698  0.00  0.00    -0.207 NA
ATOM     16  O   UNL d   1     -47.072  10.525  22.553  0.00  0.00    -0.264 OA
BRANCH  15  17
ATOM     17  C   UNL d   1     -45.777  10.612  23.563  0.00  0.00     0.087 A 
ATOM     18  C   UNL d   1     -45.036  10.919  23.698  0.00  0.00     0.045 A 
ATOM     19  C   UNL d   1     -44.371  10.453  23.564  0.00  0.00     0.121 A 
ATOM     20  O   UNL d   1     -43.557  10.622  23.655  0.00  0.00    -0.299 OA
ATOM     21  C   UNL d   1     -44.460   9.677  23.293  0.00  0.00     0.119 A 
ATOM     22  C   UNL d   1     -43.132   9.937  23.436  0.00  0.00     0.304 A 
ATOM     23  O   UNL d   1     -43.691   9.350  23.212  0.00  0.00    -0.300 OA
ATOM     24  C   UNL d   1     -45.207   9.371  23.158  0.00  0.00     0.028 A 
ATOM     25  C   UNL d   1     -45.871   9.840  23.293  0.00  0.00     0.021 A 
ENDBRANCH  15  17
ENDBRANCH  13  14
ENDBRANCH   2  13
BRANCH   1  26
ATOM     26  C   UNL d   1     -46.709  13.985  22.383  0.00  0.00     0.200 C 
ATOM     27  O   UNL d   1     -46.829  14.756  22.626  0.00  0.00    -0.286 OA
BRANCH  26  28
ATOM     28  C   UNL d   1     -45.976  13.759  22.086  0.00  0.00     0.039 A 
ATOM     29  C   UNL d   1     -45.919  13.252  21.426  0.00  0.00     0.003 A 
ATOM     30  C   UNL d   1     -45.179  13.019  21.121  0.00  0.00     0.000 A 
ATOM     31  C   UNL d   1     -44.494  13.293  21.476  0.00  0.00     0.000 A 
ATOM     32  C   UNL d   1     -44.565  13.803  22.141  0.00  0.00     0.000 A 
ATOM     33  C   UNL d   1     -45.301  14.037  22.448  0.00  0.00     0.003 A 
BRANCH  31  34
ATOM     34  C   UNL d   1     -43.756  13.063  21.175  0.00  0.00     0.000 C 
ATOM     35  C   UNL d   1     -43.082  13.326  21.549  0.00  0.00     0.000 C 
ENDBRANCH  31  34
ENDBRANCH  26  28
ENDBRANCH   1  26
TORSDOF 6
ENDMDL
