MODEL 1
REMARK VINA RESULT:      26.0      0.000      0.000
REMARK  3 active torsions:
REMARK  status: ('A' for Active; 'I' for Inactive)
REMARK    1  A    between atoms: C_2  and  N_1 
REMARK    2  A    between atoms: N_6  and  C_5 
REMARK    3  A    between atoms: C_12  and  N_6 
ROOT
ATOM      1  C   UNL d   1     -50.234  25.917  33.917  0.00  0.00     0.128 A 
ATOM      2  C   UNL d   1     -49.850  25.215  33.716  0.00  0.00     0.046 A 
ATOM      3  C   UNL d   1     -50.290  24.547  33.513  0.00  0.00     0.122 A 
ATOM      4  C   UNL d   1     -51.114  24.582  33.510  0.00  0.00     0.101 A 
ATOM      5  C   UNL d   1     -51.057  25.951  33.914  0.00  0.00     0.025 A 
ATOM      6  C   UNL d   1     -51.493  25.284  33.710  0.00  0.00     0.022 A 
ATOM      7  N   UNL d   1     -49.906  23.846  33.312  0.00  0.00    -0.146 N 
ENDROOT
BRANCH   4   8
ATOM      8  N   UNL d   1     -51.549  23.915  33.306  0.00  0.00    -0.244 NA
BRANCH   8   9
ATOM      9  C   UNL d   1     -52.368  23.913  33.411  0.00  0.00     0.081 A 
ATOM     10  C   UNL d   1     -52.788  24.623  33.389  0.00  0.00     0.019 A 
ATOM     11  C   UNL d   1     -53.606  24.621  33.493  0.00  0.00     0.002 A 
ATOM     12  C   UNL d   1     -54.004  23.909  33.620  0.00  0.00     0.000 A 
ATOM     13  C   UNL d   1     -53.583  23.200  33.642  0.00  0.00     0.002 A 
ATOM     14  C   UNL d   1     -52.766  23.202  33.538  0.00  0.00     0.019 A 
ENDBRANCH   8   9
ENDBRANCH   4   8
BRANCH   1  15
ATOM     15  N   UNL d   1     -49.793  26.584  34.120  0.00  0.00    -0.114 N 
ATOM     16  O   UNL d   1     -49.166  26.825  33.641  0.00  0.00    -0.532 OA
ATOM     17  O   UNL d   1     -49.979  27.009  34.803  0.00  0.00    -0.532 OA
ENDBRANCH   1  15
TORSDOF 3
ENDMDL
