MODEL 1
REMARK VINA RESULT:      -8.6      0.000      0.000
REMARK  2 active torsions:
REMARK  status: ('A' for Active; 'I' for Inactive)
REMARK    1  A    between atoms: C_2  and  C_1 
REMARK       I    between atoms: N_7  and  C_2 
REMARK    2  A    between atoms: C_9  and  N_7 
ROOT
ATOM      1  C   UNL d   1     -48.771  11.605  22.754  0.00  0.00     0.280 C 
ATOM      2  N   UNL d   1     -49.567  11.693  22.948  0.00  0.00    -0.208 NA
ATOM      3  O   UNL d   1     -48.403  10.874  22.870  0.00  0.00    -0.265 OA
ENDROOT
BRANCH   1   4
ATOM      4  C   UNL d   1     -48.347  12.242  22.446  0.00  0.00     0.065 A 
ATOM      5  C   UNL d   1     -47.682  12.590  22.790  0.00  0.00     0.011 A 
ATOM      6  C   UNL d   1     -47.443  13.201  22.297  0.00  0.00     0.030 A 
ATOM      7  C   UNL d   1     -47.269  12.430  23.480  0.00  0.00     0.001 A 
ATOM      8  C   UNL d   1     -46.782  13.660  22.495  0.00  0.00     0.006 A 
ATOM      9  S   UNL d   1     -47.957  13.231  21.652  0.00  0.00    -0.086 SA
ATOM     10  C   UNL d   1     -46.376  13.503  23.172  0.00  0.00     0.001 A 
ATOM     11  C   UNL d   1     -46.611  12.888  23.675  0.00  0.00     0.000 A 
ATOM     12  C   UNL d   1     -48.517  12.631  21.753  0.00  0.00     0.040 A 
ENDBRANCH   1   4
BRANCH   2  13
ATOM     13  C   UNL d   1     -49.941  12.428  22.832  0.00  0.00     0.085 A 
ATOM     14  C   UNL d   1     -50.248  12.620  22.093  0.00  0.00     0.019 A 
ATOM     15  C   UNL d   1     -50.620  13.353  21.979  0.00  0.00     0.002 A 
ATOM     16  C   UNL d   1     -50.684  13.889  22.603  0.00  0.00     0.000 A 
ATOM     17  C   UNL d   1     -50.372  13.687  23.346  0.00  0.00     0.002 A 
ATOM     18  C   UNL d   1     -51.059  14.618  22.475  0.00  0.00     0.000 C 
ATOM     19  C   UNL d   1     -50.002  12.958  23.460  0.00  0.00     0.019 A 
ENDBRANCH   2  13
TORSDOF 2
ENDMDL
MODEL 2
REMARK VINA RESULT:      -8.5      1.582      3.055
REMARK  2 active torsions:
REMARK  status: ('A' for Active; 'I' for Inactive)
REMARK    1  A    between atoms: C_2  and  C_1 
REMARK       I    between atoms: N_7  and  C_2 
REMARK    2  A    between atoms: C_9  and  N_7 
ROOT
ATOM      1  C   UNL d   1     -50.284  13.406  21.603  0.00  0.00     0.280 C 
ATOM      2  N   UNL d   1     -50.172  12.594  21.677  0.00  0.00    -0.208 NA
ATOM      3  O   UNL d   1     -50.872  13.691  21.097  0.00  0.00    -0.265 OA
ENDROOT
BRANCH   1   4
ATOM      4  C   UNL d   1     -49.813  13.930  22.032  0.00  0.00     0.065 A 
ATOM      5  C   UNL d   1     -50.085  14.486  22.579  0.00  0.00     0.011 A 
ATOM      6  C   UNL d   1     -49.428  14.884  22.869  0.00  0.00     0.030 A 
ATOM      7  C   UNL d   1     -50.836  14.677  22.845  0.00  0.00     0.001 A 
ATOM      8  C   UNL d   1     -49.522  15.482  23.435  0.00  0.00     0.006 A 
ATOM      9  S   UNL d   1     -48.755  14.577  22.505  0.00  0.00    -0.086 SA
ATOM     10  C   UNL d   1     -50.260  15.672  23.697  0.00  0.00     0.001 A 
ATOM     11  C   UNL d   1     -50.927  15.274  23.409  0.00  0.00     0.000 A 
ATOM     12  C   UNL d   1     -49.004  13.983  21.985  0.00  0.00     0.040 A 
ENDBRANCH   1   4
BRANCH   2  13
ATOM     13  C   UNL d   1     -49.580  12.303  22.187  0.00  0.00     0.085 A 
ATOM     14  C   UNL d   1     -48.809  12.219  21.914  0.00  0.00     0.019 A 
ATOM     15  C   UNL d   1     -48.220  11.930  22.422  0.00  0.00     0.002 A 
ATOM     16  C   UNL d   1     -48.406  11.727  23.200  0.00  0.00     0.000 A 
ATOM     17  C   UNL d   1     -49.187  11.815  23.468  0.00  0.00     0.002 A 
ATOM     18  C   UNL d   1     -47.808  11.439  23.698  0.00  0.00     0.000 C 
ATOM     19  C   UNL d   1     -49.773  12.103  22.962  0.00  0.00     0.019 A 
ENDBRANCH   2  13
TORSDOF 2
ENDMDL
MODEL 3
REMARK VINA RESULT:      -8.3      0.899      3.047
REMARK  2 active torsions:
REMARK  status: ('A' for Active; 'I' for Inactive)
REMARK    1  A    between atoms: C_2  and  C_1 
REMARK       I    between atoms: N_7  and  C_2 
REMARK    2  A    between atoms: C_9  and  N_7 
ROOT
ATOM      1  C   UNL d   1     -48.704  11.594  23.289  0.00  0.00     0.280 C 
ATOM      2  N   UNL d   1     -48.024  11.817  23.698  0.00  0.00    -0.208 NA
ATOM      3  O   UNL d   1     -49.169  10.975  23.581  0.00  0.00    -0.265 OA
ENDROOT
BRANCH   1   4
ATOM      4  C   UNL d   1     -48.917  11.985  22.595  0.00  0.00     0.065 A 
ATOM      5  C   UNL d   1     -49.625  12.391  22.468  0.00  0.00     0.011 A 
ATOM      6  C   UNL d   1     -49.600  12.691  21.704  0.00  0.00     0.030 A 
ATOM      7  C   UNL d   1     -50.278  12.523  22.943  0.00  0.00     0.001 A 
ATOM      8  C   UNL d   1     -50.238  13.131  21.411  0.00  0.00     0.006 A 
ATOM      9  S   UNL d   1     -48.882  12.473  21.361  0.00  0.00    -0.086 SA
ATOM     10  C   UNL d   1     -50.882  13.261  21.877  0.00  0.00     0.001 A 
ATOM     11  C   UNL d   1     -50.913  12.961  22.648  0.00  0.00     0.000 A 
ATOM     12  C   UNL d   1     -48.463  12.033  21.923  0.00  0.00     0.040 A 
ENDBRANCH   1   4
BRANCH   2  13
ATOM     13  C   UNL d   1     -47.553  12.440  23.407  0.00  0.00     0.085 A 
ATOM     14  C   UNL d   1     -47.706  13.213  23.641  0.00  0.00     0.019 A 
ATOM     15  C   UNL d   1     -47.237  13.832  23.350  0.00  0.00     0.002 A 
ATOM     16  C   UNL d   1     -46.618  13.675  22.828  0.00  0.00     0.000 A 
ATOM     17  C   UNL d   1     -46.471  12.891  22.596  0.00  0.00     0.002 A 
ATOM     18  C   UNL d   1     -46.156  14.304  22.545  0.00  0.00     0.000 C 
ATOM     19  C   UNL d   1     -46.937  12.275  22.885  0.00  0.00     0.019 A 
ENDBRANCH   2  13
TORSDOF 2
ENDMDL
MODEL 4
REMARK VINA RESULT:      -8.1      1.570      3.538
REMARK  2 active torsions:
REMARK  status: ('A' for Active; 'I' for Inactive)
REMARK    1  A    between atoms: C_2  and  C_1 
REMARK       I    between atoms: N_7  and  C_2 
REMARK    2  A    between atoms: C_9  and  N_7 
ROOT
ATOM      1  C   UNL d   1     -48.328  14.566  22.530  0.00  0.00     0.280 C 
ATOM      2  N   UNL d   1     -47.615  14.572  22.943  0.00  0.00    -0.208 NA
ATOM      3  O   UNL d   1     -48.772  15.260  22.477  0.00  0.00    -0.265 OA
ENDROOT
BRANCH   1   4
ATOM      4  C   UNL d   1     -48.594  13.872  22.173  0.00  0.00     0.065 A 
ATOM      5  C   UNL d   1     -49.295  13.474  22.354  0.00  0.00     0.011 A 
ATOM      6  C   UNL d   1     -49.335  12.816  21.866  0.00  0.00     0.030 A 
ATOM      7  C   UNL d   1     -49.893  13.627  22.892  0.00  0.00     0.001 A 
ATOM      8  C   UNL d   1     -49.983  12.301  21.916  0.00  0.00     0.006 A 
ATOM      9  S   UNL d   1     -48.664  12.804  21.387  0.00  0.00    -0.086 SA
ATOM     10  C   UNL d   1     -50.571  12.450  22.445  0.00  0.00     0.001 A 
ATOM     11  C   UNL d   1     -50.537  13.113  22.940  0.00  0.00     0.000 A 
ATOM     12  C   UNL d   1     -48.208  13.466  21.585  0.00  0.00     0.040 A 
ENDBRANCH   1   4
BRANCH   2  13
ATOM     13  C   UNL d   1     -47.165  13.873  22.999  0.00  0.00     0.085 A 
ATOM     14  C   UNL d   1     -47.284  13.356  23.627  0.00  0.00     0.019 A 
ATOM     15  C   UNL d   1     -46.835  12.661  23.681  0.00  0.00     0.002 A 
ATOM     16  C   UNL d   1     -46.269  12.486  23.107  0.00  0.00     0.000 A 
ATOM     17  C   UNL d   1     -46.154  13.013  22.475  0.00  0.00     0.002 A 
ATOM     18  C   UNL d   1     -45.827  11.787  23.173  0.00  0.00     0.000 C 
ATOM     19  C   UNL d   1     -46.601  13.705  22.421  0.00  0.00     0.019 A 
ENDBRANCH   2  13
TORSDOF 2
ENDMDL
MODEL 5
REMARK VINA RESULT:      -8.1      1.573      2.042
REMARK  2 active torsions:
REMARK  status: ('A' for Active; 'I' for Inactive)
REMARK    1  A    between atoms: C_2  and  C_1 
REMARK       I    between atoms: N_7  and  C_2 
REMARK    2  A    between atoms: C_9  and  N_7 
ROOT
ATOM      1  C   UNL d   1     -48.823  14.849  22.245  0.00  0.00     0.280 C 
ATOM      2  N   UNL d   1     -49.584  14.854  22.561  0.00  0.00    -0.208 NA
ATOM      3  O   UNL d   1     -48.456  15.566  22.059  0.00  0.00    -0.265 OA
ENDROOT
BRANCH   1   4
ATOM      4  C   UNL d   1     -48.433  14.134  22.116  0.00  0.00     0.065 A 
ATOM      5  C   UNL d   1     -47.707  13.915  22.444  0.00  0.00     0.011 A 
ATOM      6  C   UNL d   1     -47.531  13.163  22.166  0.00  0.00     0.030 A 
ATOM      7  C   UNL d   1     -47.192  14.299  22.952  0.00  0.00     0.001 A 
ATOM      8  C   UNL d   1     -46.830  12.788  22.400  0.00  0.00     0.006 A 
ATOM      9  S   UNL d   1     -48.143  12.918  21.671  0.00  0.00    -0.086 SA
ATOM     10  C   UNL d   1     -46.323  13.165  22.899  0.00  0.00     0.001 A 
ATOM     11  C   UNL d   1     -46.494  13.924  23.183  0.00  0.00     0.000 A 
ATOM     12  C   UNL d   1     -48.700  13.529  21.645  0.00  0.00     0.040 A 
ENDBRANCH   1   4
BRANCH   2  13
ATOM     13  C   UNL d   1     -49.957  14.133  22.750  0.00  0.00     0.085 A 
ATOM     14  C   UNL d   1     -49.898  13.828  23.511  0.00  0.00     0.019 A 
ATOM     15  C   UNL d   1     -50.270  13.110  23.698  0.00  0.00     0.002 A 
ATOM     16  C   UNL d   1     -50.698  12.702  23.124  0.00  0.00     0.000 A 
ATOM     17  C   UNL d   1     -50.752  13.017  22.357  0.00  0.00     0.002 A 
ATOM     18  C   UNL d   1     -51.064  11.985  23.324  0.00  0.00     0.000 C 
ATOM     19  C   UNL d   1     -50.383  13.731  22.171  0.00  0.00     0.019 A 
ENDBRANCH   2  13
TORSDOF 2
ENDMDL
MODEL 6
REMARK VINA RESULT:      -6.8      1.347      1.779
REMARK  2 active torsions:
REMARK  status: ('A' for Active; 'I' for Inactive)
REMARK    1  A    between atoms: C_2  and  C_1 
REMARK       I    between atoms: N_7  and  C_2 
REMARK    2  A    between atoms: C_9  and  N_7 
ROOT
ATOM      1  C   UNL d   1     -48.758  13.047  21.353  0.00  0.00     0.280 C 
ATOM      2  N   UNL d   1     -49.446  13.500  21.335  0.00  0.00    -0.208 NA
ATOM      3  O   UNL d   1     -48.628  12.484  20.762  0.00  0.00    -0.265 OA
ENDROOT
BRANCH   1   4
ATOM      4  C   UNL d   1     -48.206  13.155  21.956  0.00  0.00     0.065 A 
ATOM      5  C   UNL d   1     -47.962  12.579  22.495  0.00  0.00     0.011 A 
ATOM      6  C   UNL d   1     -47.410  12.929  22.992  0.00  0.00     0.030 A 
ATOM      7  C   UNL d   1     -48.169  11.793  22.595  0.00  0.00     0.001 A 
ATOM      8  C   UNL d   1     -47.059  12.487  23.599  0.00  0.00     0.006 A 
ATOM      9  S   UNL d   1     -47.313  13.715  22.763  0.00  0.00    -0.086 SA
ATOM     10  C   UNL d   1     -47.261  11.713  23.698  0.00  0.00     0.001 A 
ATOM     11  C   UNL d   1     -47.817  11.354  23.200  0.00  0.00     0.000 A 
ATOM     12  C   UNL d   1     -47.813  13.848  22.117  0.00  0.00     0.040 A 
ENDBRANCH   1   4
BRANCH   2  13
ATOM     13  C   UNL d   1     -49.580  14.069  21.930  0.00  0.00     0.085 A 
ATOM     14  C   UNL d   1     -49.232  14.812  21.873  0.00  0.00     0.019 A 
ATOM     15  C   UNL d   1     -49.366  15.377  22.465  0.00  0.00     0.002 A 
ATOM     16  C   UNL d   1     -49.848  15.197  23.110  0.00  0.00     0.000 A 
ATOM     17  C   UNL d   1     -50.196  14.444  23.160  0.00  0.00     0.002 A 
ATOM     18  C   UNL d   1     -49.974  15.772  23.695  0.00  0.00     0.000 C 
ATOM     19  C   UNL d   1     -50.063  13.882  22.571  0.00  0.00     0.019 A 
ENDBRANCH   2  13
TORSDOF 2
ENDMDL
