MODEL 1
REMARK VINA RESULT:      -2.6      0.000      0.000
REMARK  3 active torsions:
REMARK  status: ('A' for Active; 'I' for Inactive)
REMARK    1  A    between atoms: C_5  and  N_1 
REMARK    2  A    between atoms: C_4  and  C_5 
REMARK       I    between atoms: N_8  and  C_4 
REMARK    3  A    between atoms: C_13  and  N_8 
ROOT
ATOM      1  C   UNL d   1      32.283  17.561 -23.864  0.00  0.00     0.297 C 
ATOM      2  N   UNL d   1      32.187  16.750 -23.903  0.00  0.00    -0.207 NA
ATOM      3  O   UNL d   1      31.642  18.070 -23.983  0.00  0.00    -0.264 OA
ENDROOT
BRANCH   1   4
ATOM      4  C   UNL d   1      33.028  17.877 -23.705  0.00  0.00     0.148 C 
BRANCH   4   5
ATOM      5  N   UNL d   1      33.099  18.671 -23.486  0.00  0.00    -0.235 N 
ATOM      6  C   UNL d   1      33.100  18.879 -22.682  0.00  0.00     0.274 A 
ATOM      7  O   UNL d   1      33.029  18.291 -22.102  0.00  0.00    -0.266 OA
ATOM      8  C   UNL d   1      33.170  19.665 -22.466  0.00  0.00     0.097 A 
ATOM      9  S   UNL d   1      33.241  20.255 -23.033  0.00  0.00    -0.076 SA
ATOM     10  C   UNL d   1      33.241  20.053 -23.830  0.00  0.00     0.097 A 
ATOM     11  C   UNL d   1      33.171  19.264 -24.065  0.00  0.00     0.274 A 
ATOM     12  O   UNL d   1      33.170  19.058 -24.863  0.00  0.00    -0.266 OA
ENDBRANCH   4   5
ENDBRANCH   1   4
BRANCH   2  13
ATOM     13  C   UNL d   1      31.442  16.434 -24.063  0.00  0.00     0.087 A 
ATOM     14  C   UNL d   1      30.923  16.270 -23.443  0.00  0.00     0.045 A 
ATOM     15  C   UNL d   1      30.181  15.957 -23.591  0.00  0.00     0.121 A 
ATOM     16  O   UNL d   1      29.554  15.740 -23.092  0.00  0.00    -0.299 OA
ATOM     17  C   UNL d   1      29.948  15.803 -24.368  0.00  0.00     0.119 A 
ATOM     18  C   UNL d   1      28.938  15.453 -23.569  0.00  0.00     0.304 A 
ATOM     19  O   UNL d   1      29.189  15.495 -24.350  0.00  0.00    -0.300 OA
ATOM     20  C   UNL d   1      30.475  15.969 -24.988  0.00  0.00     0.028 A 
ATOM     21  C   UNL d   1      31.218  16.284 -24.835  0.00  0.00     0.021 A 
ENDBRANCH   2  13
TORSDOF 3
ENDMDL
MODEL 2
REMARK VINA RESULT:      -2.5      2.342      4.921
REMARK  3 active torsions:
REMARK  status: ('A' for Active; 'I' for Inactive)
REMARK    1  A    between atoms: C_5  and  N_1 
REMARK    2  A    between atoms: C_4  and  C_5 
REMARK       I    between atoms: N_8  and  C_4 
REMARK    3  A    between atoms: C_13  and  N_8 
ROOT
ATOM      1  C   UNL d   1      32.855  19.717 -22.816  0.00  0.00     0.297 C 
ATOM      2  N   UNL d   1      33.241  20.106 -22.209  0.00  0.00    -0.207 NA
ATOM      3  O   UNL d   1      32.094  19.942 -23.049  0.00  0.00    -0.264 OA
ENDROOT
BRANCH   1   4
ATOM      4  C   UNL d   1      33.229  19.091 -23.202  0.00  0.00     0.148 C 
BRANCH   4   5
ATOM      5  N   UNL d   1      32.804  18.625 -23.737  0.00  0.00    -0.235 N 
ATOM      6  C   UNL d   1      32.439  17.926 -23.475  0.00  0.00     0.274 A 
ATOM      7  O   UNL d   1      32.503  17.699 -22.680  0.00  0.00    -0.266 OA
ATOM      8  C   UNL d   1      32.018  17.465 -24.003  0.00  0.00     0.097 A 
ATOM      9  S   UNL d   1      31.950  17.682 -24.792  0.00  0.00    -0.076 SA
ATOM     10  C   UNL d   1      32.309  18.373 -25.056  0.00  0.00     0.097 A 
ATOM     11  C   UNL d   1      32.738  18.850 -24.534  0.00  0.00     0.274 A 
ATOM     12  O   UNL d   1      33.099  19.543 -24.795  0.00  0.00    -0.266 OA
ENDBRANCH   4   5
ENDBRANCH   1   4
BRANCH   2  13
ATOM     13  C   UNL d   1      32.866  20.731 -21.823  0.00  0.00     0.087 A 
ATOM     14  C   UNL d   1      32.946  21.500 -22.112  0.00  0.00     0.045 A 
ATOM     15  C   UNL d   1      32.578  22.127 -21.736  0.00  0.00     0.121 A 
ATOM     16  O   UNL d   1      32.558  22.942 -21.894  0.00  0.00    -0.299 OA
ATOM     17  C   UNL d   1      32.123  21.992 -21.060  0.00  0.00     0.119 A 
ATOM     18  C   UNL d   1      32.088  23.302 -21.312  0.00  0.00     0.304 A 
ATOM     19  O   UNL d   1      31.826  22.712 -20.805  0.00  0.00    -0.300 OA
ATOM     20  C   UNL d   1      32.046  21.217 -20.774  0.00  0.00     0.028 A 
ATOM     21  C   UNL d   1      32.417  20.590 -21.154  0.00  0.00     0.021 A 
ENDBRANCH   2  13
TORSDOF 3
ENDMDL
MODEL 3
REMARK VINA RESULT:      -2.5      1.752      4.485
REMARK  3 active torsions:
REMARK  status: ('A' for Active; 'I' for Inactive)
REMARK    1  A    between atoms: C_5  and  N_1 
REMARK    2  A    between atoms: C_4  and  C_5 
REMARK       I    between atoms: N_8  and  C_4 
REMARK    3  A    between atoms: C_13  and  N_8 
ROOT
ATOM      1  C   UNL d   1      32.532  18.260 -23.585  0.00  0.00     0.297 C 
ATOM      2  N   UNL d   1      33.241  18.605 -23.368  0.00  0.00    -0.207 NA
ATOM      3  O   UNL d   1      31.810  18.585 -23.347  0.00  0.00    -0.264 OA
ENDROOT
BRANCH   1   4
ATOM      4  C   UNL d   1      32.536  17.577 -24.049  0.00  0.00     0.148 C 
BRANCH   4   5
ATOM      5  N   UNL d   1      31.943  17.009 -23.949  0.00  0.00    -0.235 N 
ATOM      6  C   UNL d   1      31.201  17.120 -24.305  0.00  0.00     0.274 A 
ATOM      7  O   UNL d   1      31.058  17.799 -24.760  0.00  0.00    -0.266 OA
ATOM      8  C   UNL d   1      30.615  16.559 -24.207  0.00  0.00     0.097 A 
ATOM      9  S   UNL d   1      30.748  15.883 -23.759  0.00  0.00    -0.076 SA
ATOM     10  C   UNL d   1      31.481  15.770 -23.404  0.00  0.00     0.097 A 
ATOM     11  C   UNL d   1      32.084  16.327 -23.494  0.00  0.00     0.274 A 
ATOM     12  O   UNL d   1      32.819  16.216 -23.140  0.00  0.00    -0.266 OA
ENDBRANCH   4   5
ENDBRANCH   1   4
BRANCH   2  13
ATOM     13  C   UNL d   1      33.236  19.288 -22.905  0.00  0.00     0.087 A 
ATOM     14  C   UNL d   1      33.228  19.227 -22.083  0.00  0.00     0.045 A 
ATOM     15  C   UNL d   1      33.223  19.898 -21.614  0.00  0.00     0.121 A 
ATOM     16  O   UNL d   1      33.215  20.008 -20.791  0.00  0.00    -0.299 OA
ATOM     17  C   UNL d   1      33.227  20.646 -21.966  0.00  0.00     0.119 A 
ATOM     18  C   UNL d   1      33.214  20.826 -20.644  0.00  0.00     0.304 A 
ATOM     19  O   UNL d   1      33.222  21.208 -21.371  0.00  0.00    -0.300 OA
ATOM     20  C   UNL d   1      33.236  20.701 -22.795  0.00  0.00     0.028 A 
ATOM     21  C   UNL d   1      33.240  20.024 -23.261  0.00  0.00     0.021 A 
ENDBRANCH   2  13
TORSDOF 3
ENDMDL
MODEL 4
REMARK VINA RESULT:      -2.4      1.794      4.286
REMARK  3 active torsions:
REMARK  status: ('A' for Active; 'I' for Inactive)
REMARK    1  A    between atoms: C_5  and  N_1 
REMARK    2  A    between atoms: C_4  and  C_5 
REMARK       I    between atoms: N_8  and  C_4 
REMARK    3  A    between atoms: C_13  and  N_8 
ROOT
ATOM      1  C   UNL d   1      30.826  17.144 -24.422  0.00  0.00     0.297 C 
ATOM      2  N   UNL d   1      31.644  17.138 -24.422  0.00  0.00    -0.207 NA
ATOM      3  O   UNL d   1      30.406  17.844 -24.290  0.00  0.00    -0.264 OA
ENDROOT
BRANCH   1   4
ATOM      4  C   UNL d   1      30.413  16.442 -24.556  0.00  0.00     0.148 C 
BRANCH   4   5
ATOM      5  N   UNL d   1      29.742  16.268 -24.105  0.00  0.00    -0.235 N 
ATOM      6  C   UNL d   1      29.807  15.772 -23.443  0.00  0.00     0.274 A 
ATOM      7  O   UNL d   1      30.544  15.453 -23.235  0.00  0.00    -0.266 OA
ATOM      8  C   UNL d   1      29.143  15.600 -22.997  0.00  0.00     0.097 A 
ATOM      9  S   UNL d   1      28.409  15.911 -23.195  0.00  0.00    -0.076 SA
ATOM     10  C   UNL d   1      28.340  16.403 -23.850  0.00  0.00     0.097 A 
ATOM     11  C   UNL d   1      29.002  16.586 -24.311  0.00  0.00     0.274 A 
ATOM     12  O   UNL d   1      28.936  17.079 -24.968  0.00  0.00    -0.266 OA
ENDBRANCH   4   5
ENDBRANCH   1   4
BRANCH   2  13
ATOM     13  C   UNL d   1      32.056  17.840 -24.289  0.00  0.00     0.087 A 
ATOM     14  C   UNL d   1      32.113  18.144 -23.524  0.00  0.00     0.045 A 
ATOM     15  C   UNL d   1      32.521  18.840 -23.382  0.00  0.00     0.121 A 
ATOM     16  O   UNL d   1      32.669  19.271 -22.688  0.00  0.00    -0.299 OA
ATOM     17  C   UNL d   1      32.878  19.244 -24.008  0.00  0.00     0.119 A 
ATOM     18  C   UNL d   1      33.118  19.939 -22.894  0.00  0.00     0.304 A 
ATOM     19  O   UNL d   1      33.241  19.913 -23.705  0.00  0.00    -0.300 OA
ATOM     20  C   UNL d   1      32.816  18.932 -24.775  0.00  0.00     0.028 A 
ATOM     21  C   UNL d   1      32.407  18.234 -24.914  0.00  0.00     0.021 A 
ENDBRANCH   2  13
TORSDOF 3
ENDMDL
MODEL 5
REMARK VINA RESULT:      -2.1      1.977      3.137
REMARK  3 active torsions:
REMARK  status: ('A' for Active; 'I' for Inactive)
REMARK    1  A    between atoms: C_5  and  N_1 
REMARK    2  A    between atoms: C_4  and  C_5 
REMARK       I    between atoms: N_8  and  C_4 
REMARK    3  A    between atoms: C_13  and  N_8 
ROOT
ATOM      1  C   UNL d   1      32.811  20.026 -22.523  0.00  0.00     0.297 C 
ATOM      2  N   UNL d   1      33.198  19.416 -22.906  0.00  0.00    -0.207 NA
ATOM      3  O   UNL d   1      31.994  20.127 -22.603  0.00  0.00    -0.264 OA
ENDROOT
BRANCH   1   4
ATOM      4  C   UNL d   1      33.241  20.549 -22.051  0.00  0.00     0.148 C 
BRANCH   4   5
ATOM      5  N   UNL d   1      32.863  21.201 -21.711  0.00  0.00    -0.235 N 
ATOM      6  C   UNL d   1      32.862  21.931 -22.107  0.00  0.00     0.274 A 
ATOM      7  O   UNL d   1      33.241  22.003 -22.841  0.00  0.00    -0.266 OA
ATOM      8  C   UNL d   1      32.488  22.575 -21.770  0.00  0.00     0.097 A 
ATOM      9  S   UNL d   1      32.111  22.513 -21.043  0.00  0.00    -0.076 SA
ATOM     10  C   UNL d   1      32.109  21.792 -20.648  0.00  0.00     0.097 A 
ATOM     11  C   UNL d   1      32.482  21.131 -20.975  0.00  0.00     0.274 A 
ATOM     12  O   UNL d   1      32.482  20.407 -20.581  0.00  0.00    -0.266 OA
ENDBRANCH   4   5
ENDBRANCH   1   4
BRANCH   2  13
ATOM     13  C   UNL d   1      32.768  18.893 -23.378  0.00  0.00     0.087 A 
ATOM     14  C   UNL d   1      32.509  18.175 -23.066  0.00  0.00     0.045 A 
ATOM     15  C   UNL d   1      32.082  17.650 -23.526  0.00  0.00     0.121 A 
ATOM     16  O   UNL d   1      31.755  16.903 -23.368  0.00  0.00    -0.299 OA
ATOM     17  C   UNL d   1      31.907  17.838 -24.311  0.00  0.00     0.119 A 
ATOM     18  C   UNL d   1      31.381  16.638 -24.061  0.00  0.00     0.304 A 
ATOM     19  O   UNL d   1      31.479  17.218 -24.633  0.00  0.00    -0.300 OA
ATOM     20  C   UNL d   1      32.171  18.563 -24.620  0.00  0.00     0.028 A 
ATOM     21  C   UNL d   1      32.599  19.087 -24.154  0.00  0.00     0.021 A 
ENDBRANCH   2  13
TORSDOF 3
ENDMDL
