MODEL 1
REMARK VINA RESULT:      45.4      0.000      0.000
REMARK  4 active torsions:
REMARK  status: ('A' for Active; 'I' for Inactive)
REMARK    1  A    between atoms: N_4  and  C_8 
REMARK    2  A    between atoms: C_15  and  C_5 
REMARK    3  A    between atoms: O_17  and  C_15 
REMARK    4  A    between atoms: C_16  and  O_17 
ROOT
ATOM      1  C   UNL d   1     -49.611  27.133  33.306  0.00  0.00     0.144 C 
ENDROOT
BRANCH   1   2
ATOM      2  C   UNL d   1     -50.106  26.479  33.310  0.00  0.00     0.142 A 
ATOM      3  N   UNL d   1     -49.867  25.692  33.307  0.00  0.00    -0.057 NA
ATOM      4  C   UNL d   1     -50.538  25.230  33.313  0.00  0.00     0.735 A 
ATOM      5  N   UNL d   1     -51.196  25.726  33.320  0.00  0.00    -0.136 N 
ATOM      6  N   UNL d   1     -50.648  24.413  33.313  0.00  0.00    -0.059 NA
ATOM      7  C   UNL d   1     -50.917  26.491  33.318  0.00  0.00     0.120 A 
ATOM      8  C   UNL d   1     -51.970  25.427  33.327  0.00  0.00     0.100 A 
ATOM      9  C   UNL d   1     -52.075  24.587  33.327  0.00  0.00     0.041 A 
ATOM     10  C   UNL d   1     -51.404  24.090  33.320  0.00  0.00     0.119 A 
ENDBRANCH   1   2
BRANCH   1  11
ATOM     11  O   UNL d   1     -49.365  27.482  34.026  0.00  0.00    -0.303 OA
BRANCH  11  12
ATOM     12  C   UNL d   1     -49.119  27.824  34.740  0.00  0.00     0.102 A 
ATOM     13  C   UNL d   1     -48.569  28.447  34.741  0.00  0.00     0.048 A 
ATOM     14  C   UNL d   1     -48.321  28.790  35.445  0.00  0.00     0.129 A 
ATOM     15  C   UNL d   1     -48.623  28.510  36.171  0.00  0.00     0.024 A 
ATOM     16  C   UNL d   1     -49.171  27.890  36.172  0.00  0.00     0.004 A 
ATOM     17  C   UNL d   1     -49.413  27.553  35.462  0.00  0.00     0.025 A 
BRANCH  14  18
ATOM     18  N   UNL d   1     -47.774  29.408  35.429  0.00  0.00    -0.114 N 
ATOM     19  O   UNL d   1     -47.032  29.306  35.782  0.00  0.00    -0.532 OA
ATOM     20  O   UNL d   1     -47.956  30.119  35.070  0.00  0.00    -0.532 OA
ENDBRANCH  14  18
ENDBRANCH  11  12
ENDBRANCH   1  11
TORSDOF 4
ENDMDL
MODEL 2
REMARK VINA RESULT:      45.6      1.273      1.940
REMARK  4 active torsions:
REMARK  status: ('A' for Active; 'I' for Inactive)
REMARK    1  A    between atoms: N_4  and  C_8 
REMARK    2  A    between atoms: C_15  and  C_5 
REMARK    3  A    between atoms: O_17  and  C_15 
REMARK    4  A    between atoms: C_16  and  O_17 
ROOT
ATOM      1  C   UNL d   1     -50.105  25.121  33.593  0.00  0.00     0.144 C 
ENDROOT
BRANCH   1   2
ATOM      2  C   UNL d   1     -50.867  24.820  33.537  0.00  0.00     0.142 A 
ATOM      3  N   UNL d   1     -51.067  24.030  33.428  0.00  0.00    -0.057 NA
ATOM      4  C   UNL d   1     -51.879  23.983  33.405  0.00  0.00     0.735 A 
ATOM      5  N   UNL d   1     -52.188  24.742  33.500  0.00  0.00    -0.136 N 
ATOM      6  N   UNL d   1     -52.395  23.346  33.309  0.00  0.00    -0.059 NA
ATOM      7  C   UNL d   1     -51.554  25.246  33.580  0.00  0.00     0.120 A 
ATOM      8  C   UNL d   1     -53.005  24.885  33.502  0.00  0.00     0.100 A 
ATOM      9  C   UNL d   1     -53.528  24.226  33.404  0.00  0.00     0.041 A 
ATOM     10  C   UNL d   1     -53.210  23.460  33.308  0.00  0.00     0.119 A 
ENDBRANCH   1   2
BRANCH   1  11
ATOM     11  O   UNL d   1     -49.982  25.936  33.740  0.00  0.00    -0.303 OA
BRANCH  11  12
ATOM     12  C   UNL d   1     -49.856  26.742  33.888  0.00  0.00     0.102 A 
ATOM     13  C   UNL d   1     -49.566  26.994  34.625  0.00  0.00     0.048 A 
ATOM     14  C   UNL d   1     -49.439  27.792  34.777  0.00  0.00     0.129 A 
ATOM     15  C   UNL d   1     -49.602  28.358  34.186  0.00  0.00     0.024 A 
ATOM     16  C   UNL d   1     -49.891  28.108  33.451  0.00  0.00     0.004 A 
ATOM     17  C   UNL d   1     -50.015  27.308  33.309  0.00  0.00     0.025 A 
BRANCH  14  18
ATOM     18  N   UNL d   1     -49.151  28.027  35.515  0.00  0.00    -0.114 N 
ATOM     19  O   UNL d   1     -48.408  28.390  35.566  0.00  0.00    -0.532 OA
ATOM     20  O   UNL d   1     -49.589  27.907  36.194  0.00  0.00    -0.532 OA
ENDBRANCH  14  18
ENDBRANCH  11  12
ENDBRANCH   1  11
TORSDOF 4
ENDMDL
