MODEL 1
REMARK VINA RESULT:      48.6      0.000      0.000
REMARK  4 active torsions:
REMARK  status: ('A' for Active; 'I' for Inactive)
REMARK    1  A    between atoms: C_2  and  C_1 
REMARK       I    between atoms: N_4  and  C_2 
REMARK    2  A    between atoms: C_5  and  N_4 
REMARK    3  A    between atoms: O_17  and  C_9 
REMARK    4  A    between atoms: O_18  and  C_12 
ROOT
ATOM      1  C   UNL d   1     -55.983 -99.332 -44.599  0.00  0.00     0.353 C 
ATOM      2  N   UNL d   1     -55.717-100.013 -44.206  0.00  0.00    -0.361 NA
ATOM      3  O   UNL d   1     -55.444 -98.800 -44.895  0.00  0.00    -0.249 OA
ENDROOT
BRANCH   1   4
ATOM      4  C   UNL d   1     -56.799 -99.187 -44.694  0.00  0.00     0.195 A 
ATOM      5  O   UNL d   1     -57.296 -99.247 -44.042  0.00  0.00    -0.297 OA
ATOM      6  C   UNL d   1     -58.093 -99.100 -44.158  0.00  0.00     0.123 A 
ATOM      7  C   UNL d   1     -58.618 -99.158 -43.495  0.00  0.00     0.027 A 
ATOM      8  C   UNL d   1     -58.406 -98.900 -44.891  0.00  0.00     0.123 A 
ATOM      9  C   UNL d   1     -59.404 -99.013 -43.616  0.00  0.00     0.002 A 
ATOM     10  C   UNL d   1     -59.699 -98.813 -44.360  0.00  0.00     0.002 A 
ATOM     11  C   UNL d   1     -59.212 -98.755 -44.995  0.00  0.00     0.027 A 
ATOM     12  O   UNL d   1     -57.890 -98.844 -45.542  0.00  0.00    -0.301 OA
ATOM     13  C   UNL d   1     -57.093 -98.987 -45.438  0.00  0.00     0.153 A 
ENDBRANCH   1   4
BRANCH   2  14
ATOM     14  C   UNL d   1     -55.469-100.690 -43.814  0.00  0.00     0.159 A 
ATOM     15  C   UNL d   1     -55.376-100.695 -43.003  0.00  0.00     0.059 A 
ATOM     16  C   UNL d   1     -55.125-101.381 -42.600  0.00  0.00     0.107 A 
ATOM     17  C   UNL d   1     -54.966-102.080 -43.058  0.00  0.00     0.082 A 
ATOM     18  C   UNL d   1     -55.059-102.075 -43.870  0.00  0.00     0.040 A 
ATOM     19 CL   UNL d   1     -54.718-102.754 -42.655  0.00  0.00    -0.080 Cl
ATOM     20  C   UNL d   1     -55.312-101.382 -44.260  0.00  0.00     0.125 A 
BRANCH  16  21
ATOM     21  O   UNL d   1     -55.033-101.386 -41.801  0.00  0.00    -0.327 OA
ATOM     22  C   UNL d   1     -54.801-102.076 -41.416  0.00  0.00     0.181 C 
ENDBRANCH  16  21
BRANCH  20  23
ATOM     23  O   UNL d   1     -55.405-101.377 -45.080  0.00  0.00    -0.326 OA
ATOM     24  C   UNL d   1     -55.114-102.011 -45.507  0.00  0.00     0.181 C 
ENDBRANCH  20  23
ENDBRANCH   2  14
TORSDOF 4
ENDMDL
