MODEL 1
REMARK VINA RESULT:      27.9      0.000      0.000
REMARK  4 active torsions:
REMARK  status: ('A' for Active; 'I' for Inactive)
REMARK    1  A    between atoms: C_6  and  C_1 
REMARK    2  A    between atoms: C_7  and  N_2 
REMARK    3  A    between atoms: C_10  and  C_7 
REMARK    4  A    between atoms: C_11  and  C_10 
ROOT
ATOM      1  C   UNL d   1      13.758  14.179  -3.650  0.00  0.00     0.148 A 
ATOM      2  N   UNL d   1      13.618  13.428  -3.314  0.00  0.00    -0.289 N 
ATOM      3  N   UNL d   1      13.546  14.139  -4.464  0.00  0.00    -0.227 NA
ATOM      4  C   UNL d   1      13.322  12.928  -3.910  0.00  0.00     0.083 A 
ATOM      5  C   UNL d   1      13.278  13.361  -4.613  0.00  0.00     0.099 A 
ATOM      6  C   UNL d   1      13.085  12.130  -3.911  0.00  0.00     0.019 A 
ATOM      7  C   UNL d   1      13.003  13.018  -5.318  0.00  0.00     0.021 A 
ATOM      8  C   UNL d   1      12.810  11.779  -4.605  0.00  0.00     0.002 A 
ATOM      9  C   UNL d   1      12.769  12.220  -5.303  0.00  0.00     0.002 A 
ENDROOT
BRANCH   2  10
ATOM     10  C   UNL d   1      13.751  13.218  -2.521  0.00  0.00     0.082 C 
BRANCH  10  11
ATOM     11  C   UNL d   1      14.067  12.478  -2.343  0.00  0.00     0.019 C 
BRANCH  11  12
ATOM     12  C   UNL d   1      14.265  12.301  -1.567  0.00  0.00     0.002 A 
ATOM     13  C   UNL d   1      13.713  11.958  -1.072  0.00  0.00     0.000 A 
ATOM     14  C   UNL d   1      13.912  11.782  -0.296  0.00  0.00     0.000 A 
ATOM     15  C   UNL d   1      14.662  11.948  -0.016  0.00  0.00     0.000 A 
ATOM     16  C   UNL d   1      15.222  12.294  -0.513  0.00  0.00     0.000 A 
ATOM     17  C   UNL d   1      15.016  12.468  -1.290  0.00  0.00     0.000 A 
ENDBRANCH  11  12
ENDBRANCH  10  11
ENDBRANCH   2  10
BRANCH   1  18
ATOM     18  C   UNL d   1      14.052  14.846  -3.261  0.00  0.00     0.035 A 
ATOM     19  C   UNL d   1      14.465  15.561  -3.269  0.00  0.00     0.003 A 
ATOM     20  C   UNL d   1      14.140  15.277  -2.563  0.00  0.00     0.003 A 
ENDBRANCH   1  18
TORSDOF 4
ENDMDL
MODEL 2
REMARK VINA RESULT:      28.1      1.524      4.019
REMARK  4 active torsions:
REMARK  status: ('A' for Active; 'I' for Inactive)
REMARK    1  A    between atoms: C_6  and  C_1 
REMARK    2  A    between atoms: C_7  and  N_2 
REMARK    3  A    between atoms: C_10  and  C_7 
REMARK    4  A    between atoms: C_11  and  C_10 
ROOT
ATOM      1  C   UNL d   1      14.761  13.289  -0.473  0.00  0.00     0.148 A 
ATOM      2  N   UNL d   1      14.449  13.656  -1.155  0.00  0.00    -0.289 N 
ATOM      3  N   UNL d   1      15.209  13.865  -0.056  0.00  0.00    -0.227 NA
ATOM      4  C   UNL d   1      14.699  14.449  -1.161  0.00  0.00     0.083 A 
ATOM      5  C   UNL d   1      15.164  14.578  -0.490  0.00  0.00     0.099 A 
ATOM      6  C   UNL d   1      14.568  15.078  -1.690  0.00  0.00     0.019 A 
ATOM      7  C   UNL d   1      15.502  15.321  -0.333  0.00  0.00     0.021 A 
ATOM      8  C   UNL d   1      14.898  15.820  -1.544  0.00  0.00     0.002 A 
ATOM      9  C   UNL d   1      15.362  15.940  -0.870  0.00  0.00     0.002 A 
ENDROOT
BRANCH   2  10
ATOM     10  C   UNL d   1      13.970  13.289  -1.728  0.00  0.00     0.082 C 
BRANCH  10  11
ATOM     11  C   UNL d   1      14.317  12.964  -2.401  0.00  0.00     0.019 C 
BRANCH  11  12
ATOM     12  C   UNL d   1      13.843  12.760  -3.039  0.00  0.00     0.002 A 
ATOM     13  C   UNL d   1      13.565  11.995  -3.113  0.00  0.00     0.000 A 
ATOM     14  C   UNL d   1      13.092  11.791  -3.750  0.00  0.00     0.000 A 
ATOM     15  C   UNL d   1      12.896  12.351  -4.314  0.00  0.00     0.000 A 
ATOM     16  C   UNL d   1      13.175  13.125  -4.242  0.00  0.00     0.000 A 
ATOM     17  C   UNL d   1      13.650  13.322  -3.600  0.00  0.00     0.000 A 
ENDBRANCH  11  12
ENDBRANCH  10  11
ENDBRANCH   2  10
BRANCH   1  18
ATOM     18  C   UNL d   1      14.653  12.502  -0.244  0.00  0.00     0.035 A 
ATOM     19  C   UNL d   1      14.160  11.863  -0.073  0.00  0.00     0.003 A 
ATOM     20  C   UNL d   1      14.981  11.780  -0.016  0.00  0.00     0.003 A 
ENDBRANCH   1  18
TORSDOF 4
ENDMDL
MODEL 3
REMARK VINA RESULT:      29.5      1.430      2.993
REMARK  4 active torsions:
REMARK  status: ('A' for Active; 'I' for Inactive)
REMARK    1  A    between atoms: C_6  and  C_1 
REMARK    2  A    between atoms: C_7  and  N_2 
REMARK    3  A    between atoms: C_10  and  C_7 
REMARK    4  A    between atoms: C_11  and  C_10 
ROOT
ATOM      1  C   UNL d   1      14.166  12.248  -1.688  0.00  0.00     0.148 A 
ATOM      2  N   UNL d   1      14.287  12.992  -2.046  0.00  0.00    -0.289 N 
ATOM      3  N   UNL d   1      13.712  11.779  -2.219  0.00  0.00    -0.227 NA
ATOM      4  C   UNL d   1      13.913  12.986  -2.789  0.00  0.00     0.083 A 
ATOM      5  C   UNL d   1      13.561  12.245  -2.896  0.00  0.00     0.099 A 
ATOM      6  C   UNL d   1      13.844  13.558  -3.390  0.00  0.00     0.019 A 
ATOM      7  C   UNL d   1      13.141  12.061  -3.589  0.00  0.00     0.021 A 
ATOM      8  C   UNL d   1      13.428  13.385  -4.082  0.00  0.00     0.002 A 
ATOM      9  C   UNL d   1      13.080  12.642  -4.180  0.00  0.00     0.002 A 
ENDROOT
BRANCH   2  10
ATOM     10  C   UNL d   1      14.708  13.628  -1.715  0.00  0.00     0.082 C 
BRANCH  10  11
ATOM     11  C   UNL d   1      14.323  14.343  -1.576  0.00  0.00     0.019 C 
BRANCH  11  12
ATOM     12  C   UNL d   1      14.728  14.952  -1.203  0.00  0.00     0.002 A 
ATOM     13  C   UNL d   1      14.939  15.619  -1.624  0.00  0.00     0.000 A 
ATOM     14  C   UNL d   1      15.344  16.227  -1.252  0.00  0.00     0.000 A 
ATOM     15  C   UNL d   1      15.537  16.168  -0.459  0.00  0.00     0.000 A 
ATOM     16  C   UNL d   1      15.325  15.495  -0.031  0.00  0.00     0.000 A 
ATOM     17  C   UNL d   1      14.919  14.889  -0.411  0.00  0.00     0.000 A 
ENDBRANCH  11  12
ENDBRANCH  10  11
ENDBRANCH   2  10
BRANCH   1  18
ATOM     18  C   UNL d   1      14.440  12.007  -0.945  0.00  0.00     0.035 A 
ATOM     19  C   UNL d   1      15.055  11.780  -0.444  0.00  0.00     0.003 A 
ATOM     20  C   UNL d   1      14.280  11.821  -0.158  0.00  0.00     0.003 A 
ENDBRANCH   1  18
TORSDOF 4
ENDMDL
MODEL 4
REMARK VINA RESULT:      30.3      1.014      3.505
REMARK  4 active torsions:
REMARK  status: ('A' for Active; 'I' for Inactive)
REMARK    1  A    between atoms: C_6  and  C_1 
REMARK    2  A    between atoms: C_7  and  N_2 
REMARK    3  A    between atoms: C_10  and  C_7 
REMARK    4  A    between atoms: C_11  and  C_10 
ROOT
ATOM      1  C   UNL d   1      14.774  14.364  -1.630  0.00  0.00     0.148 A 
ATOM      2  N   UNL d   1      14.435  13.650  -1.897  0.00  0.00    -0.289 N 
ATOM      3  N   UNL d   1      15.135  14.213  -0.886  0.00  0.00    -0.227 NA
ATOM      4  C   UNL d   1      14.583  13.063  -1.327  0.00  0.00     0.083 A 
ATOM      5  C   UNL d   1      15.011  13.406  -0.708  0.00  0.00     0.099 A 
ATOM      6  C   UNL d   1      14.386  12.255  -1.283  0.00  0.00     0.019 A 
ATOM      7  C   UNL d   1      15.247  12.963  -0.045  0.00  0.00     0.021 A 
ATOM      8  C   UNL d   1      14.615  11.806  -0.631  0.00  0.00     0.002 A 
ATOM      9  C   UNL d   1      15.043  12.157  -0.016  0.00  0.00     0.002 A 
ENDROOT
BRANCH   2  10
ATOM     10  C   UNL d   1      14.021  13.544  -2.611  0.00  0.00     0.082 C 
BRANCH  10  11
ATOM     11  C   UNL d   1      13.704  12.806  -2.793  0.00  0.00     0.019 C 
BRANCH  11  12
ATOM     12  C   UNL d   1      13.402  12.672  -3.543  0.00  0.00     0.002 A 
ATOM     13  C   UNL d   1      13.073  13.287  -3.967  0.00  0.00     0.000 A 
ATOM     14  C   UNL d   1      12.771  13.153  -4.717  0.00  0.00     0.000 A 
ATOM     15  C   UNL d   1      12.799  12.403  -5.044  0.00  0.00     0.000 A 
ATOM     16  C   UNL d   1      13.131  11.779  -4.618  0.00  0.00     0.000 A 
ATOM     17  C   UNL d   1      13.431  11.921  -3.867  0.00  0.00     0.000 A 
ENDBRANCH  11  12
ENDBRANCH  10  11
ENDBRANCH   2  10
BRANCH   1  18
ATOM     18  C   UNL d   1      14.762  15.092  -2.022  0.00  0.00     0.035 A 
ATOM     19  C   UNL d   1      14.619  15.544  -2.698  0.00  0.00     0.003 A 
ATOM     20  C   UNL d   1      14.889  15.907  -2.006  0.00  0.00     0.003 A 
ENDBRANCH   1  18
TORSDOF 4
ENDMDL
