MODEL 1
REMARK VINA RESULT:      -3.1      0.000      0.000
REMARK  5 active torsions:
REMARK  status: ('A' for Active; 'I' for Inactive)
REMARK    1  A    between atoms: C_6  and  C_1 
REMARK    2  A    between atoms: C_7  and  C_6 
REMARK    3  A    between atoms: C_11  and  C_19 
REMARK    4  A    between atoms: O_18  and  C_17 
REMARK    5  A    between atoms: C_19  and  O_18 
ROOT
ATOM      1  C   UNL d   1      32.780  17.731 -23.777  0.00  0.00     0.139 A 
ATOM      2  C   UNL d   1      33.040  19.034 -23.592  0.00  0.00     0.064 A 
ATOM      3  C   UNL d   1      32.978  18.441 -24.158  0.00  0.00     0.220 A 
ATOM      4  C   UNL d   1      32.881  18.698 -22.855  0.00  0.00     0.105 A 
ATOM      5  O   UNL d   1      32.719  17.889 -22.971  0.00  0.00    -0.304 OA
ATOM      6  C   UNL d   1      32.901  19.161 -22.174  0.00  0.00     0.049 A 
ATOM      7  C   UNL d   1      33.219  19.833 -23.650  0.00  0.00     0.007 A 
ATOM      8  O   UNL d   1      33.093  18.531 -24.969  0.00  0.00    -0.284 OA
ATOM      9  C   UNL d   1      33.082  19.964 -22.240  0.00  0.00     0.097 A 
ATOM     10  C   UNL d   1      33.241  20.298 -22.974  0.00  0.00     0.025 A 
ENDROOT
BRANCH   1  11
ATOM     11  C   UNL d   1      32.663  16.996 -24.137  0.00  0.00     0.034 C 
BRANCH  11  12
ATOM     12  C   UNL d   1      31.975  16.567 -23.992  0.00  0.00     0.032 A 
ATOM     13  S   UNL d   1      31.907  15.905 -23.510  0.00  0.00    -0.086 SA
ATOM     14  C   UNL d   1      31.116  15.654 -23.526  0.00  0.00     0.035 A 
ATOM     15  C   UNL d   1      30.698  16.166 -24.019  0.00  0.00     0.007 A 
ATOM     16  C   UNL d   1      31.225  16.735 -24.312  0.00  0.00     0.007 A 
ENDBRANCH  11  12
ENDBRANCH   1  11
BRANCH   9  17
ATOM     17  O   UNL d   1      33.102  20.425 -21.555  0.00  0.00    -0.319 OA
BRANCH  17  18
ATOM     18  C   UNL d   1      32.505  20.984 -21.427  0.00  0.00     0.246 C 
BRANCH  18  19
ATOM     19  C   UNL d   1      32.534  21.459 -20.756  0.00  0.00     0.217 C 
ATOM     20  O   UNL d   1      33.227  21.511 -20.309  0.00  0.00    -0.645 OA
ATOM     21  O   UNL d   1      31.823  21.916 -20.511  0.00  0.00    -0.645 OA
ENDBRANCH  18  19
ENDBRANCH  17  18
ENDBRANCH   9  17
TORSDOF 5
ENDMDL
MODEL 2
REMARK VINA RESULT:      -2.8      1.618      2.728
REMARK  5 active torsions:
REMARK  status: ('A' for Active; 'I' for Inactive)
REMARK    1  A    between atoms: C_6  and  C_1 
REMARK    2  A    between atoms: C_7  and  C_6 
REMARK    3  A    between atoms: C_11  and  C_19 
REMARK    4  A    between atoms: O_18  and  C_17 
REMARK    5  A    between atoms: C_19  and  O_18 
ROOT
ATOM      1  C   UNL d   1      30.597  16.412 -24.553  0.00  0.00     0.139 A 
ATOM      2  C   UNL d   1      31.870  16.823 -24.448  0.00  0.00     0.064 A 
ATOM      3  C   UNL d   1      31.386  16.214 -24.716  0.00  0.00     0.220 A 
ATOM      4  C   UNL d   1      31.386  17.404 -24.116  0.00  0.00     0.105 A 
ATOM      5  O   UNL d   1      30.596  17.147 -24.183  0.00  0.00    -0.304 OA
ATOM      6  C   UNL d   1      31.715  18.088 -23.798  0.00  0.00     0.049 A 
ATOM      7  C   UNL d   1      32.684  16.925 -24.461  0.00  0.00     0.007 A 
ATOM      8  O   UNL d   1      31.639  15.522 -25.084  0.00  0.00    -0.284 OA
ATOM      9  C   UNL d   1      32.535  18.184 -23.814  0.00  0.00     0.097 A 
ATOM     10  C   UNL d   1      33.017  17.606 -24.144  0.00  0.00     0.025 A 
ENDROOT
BRANCH   1  11
ATOM     11  C   UNL d   1      29.930  15.957 -24.730  0.00  0.00     0.034 C 
BRANCH  11  12
ATOM     12  C   UNL d   1      29.307  15.909 -24.194  0.00  0.00     0.032 A 
ATOM     13  S   UNL d   1      28.586  16.299 -24.251  0.00  0.00    -0.086 SA
ATOM     14  C   UNL d   1      28.126  16.090 -23.592  0.00  0.00     0.035 A 
ATOM     15  C   UNL d   1      28.569  15.569 -23.130  0.00  0.00     0.007 A 
ATOM     16  C   UNL d   1      29.302  15.453 -23.498  0.00  0.00     0.007 A 
ENDBRANCH  11  12
ENDBRANCH   1  11
BRANCH   9  17
ATOM     17  O   UNL d   1      32.862  18.871 -23.494  0.00  0.00    -0.319 OA
BRANCH  17  18
ATOM     18  C   UNL d   1      32.958  18.929 -22.675  0.00  0.00     0.246 C 
BRANCH  18  19
ATOM     19  C   UNL d   1      33.143  19.658 -22.339  0.00  0.00     0.217 C 
ATOM     20  O   UNL d   1      33.241  19.729 -21.521  0.00  0.00    -0.645 OA
ATOM     21  O   UNL d   1      33.238  20.366 -22.852  0.00  0.00    -0.645 OA
ENDBRANCH  18  19
ENDBRANCH  17  18
ENDBRANCH   9  17
TORSDOF 5
ENDMDL
MODEL 3
REMARK VINA RESULT:      -2.4      2.064      5.007
REMARK  5 active torsions:
REMARK  status: ('A' for Active; 'I' for Inactive)
REMARK    1  A    between atoms: C_6  and  C_1 
REMARK    2  A    between atoms: C_7  and  C_6 
REMARK    3  A    between atoms: C_11  and  C_19 
REMARK    4  A    between atoms: O_18  and  C_17 
REMARK    5  A    between atoms: C_19  and  O_18 
ROOT
ATOM      1  C   UNL d   1      33.217  21.344 -21.439  0.00  0.00     0.139 A 
ATOM      2  C   UNL d   1      33.229  20.007 -21.544  0.00  0.00     0.064 A 
ATOM      3  C   UNL d   1      33.223  20.634 -21.011  0.00  0.00     0.220 A 
ATOM      4  C   UNL d   1      33.225  20.323 -22.307  0.00  0.00     0.105 A 
ATOM      5  O   UNL d   1      33.218  21.153 -22.240  0.00  0.00    -0.304 OA
ATOM      6  C   UNL d   1      33.229  19.826 -22.963  0.00  0.00     0.049 A 
ATOM      7  C   UNL d   1      33.236  19.194 -21.435  0.00  0.00     0.007 A 
ATOM      8  O   UNL d   1      33.224  20.571 -20.190  0.00  0.00    -0.284 OA
ATOM      9  C   UNL d   1      33.237  19.008 -22.847  0.00  0.00     0.097 A 
ATOM     10  C   UNL d   1      33.240  18.694 -22.087  0.00  0.00     0.025 A 
ENDROOT
BRANCH   1  11
ATOM     11  C   UNL d   1      33.210  22.108 -21.123  0.00  0.00     0.034 C 
BRANCH  11  12
ATOM     12  C   UNL d   1      32.804  22.713 -21.507  0.00  0.00     0.032 A 
ATOM     13  S   UNL d   1      33.077  23.157 -22.141  0.00  0.00    -0.086 SA
ATOM     14  C   UNL d   1      32.487  23.702 -22.350  0.00  0.00     0.035 A 
ATOM     15  C   UNL d   1      31.849  23.591 -21.839  0.00  0.00     0.007 A 
ATOM     16  C   UNL d   1      32.038  22.979 -21.313  0.00  0.00     0.007 A 
ENDBRANCH  11  12
ENDBRANCH   1  11
BRANCH   9  17
ATOM     17  O   UNL d   1      33.241  18.512 -23.507  0.00  0.00    -0.319 OA
BRANCH  17  18
ATOM     18  C   UNL d   1      32.587  18.509 -24.014  0.00  0.00     0.246 C 
BRANCH  18  19
ATOM     19  C   UNL d   1      32.518  17.916 -24.581  0.00  0.00     0.217 C 
ATOM     20  O   UNL d   1      33.193  17.593 -24.933  0.00  0.00    -0.645 OA
ATOM     21  O   UNL d   1      31.723  17.623 -24.815  0.00  0.00    -0.645 OA
ENDBRANCH  18  19
ENDBRANCH  17  18
ENDBRANCH   9  17
TORSDOF 5
ENDMDL
MODEL 4
REMARK VINA RESULT:      -2.4      1.874      4.598
REMARK  5 active torsions:
REMARK  status: ('A' for Active; 'I' for Inactive)
REMARK    1  A    between atoms: C_6  and  C_1 
REMARK    2  A    between atoms: C_7  and  C_6 
REMARK    3  A    between atoms: C_11  and  C_19 
REMARK    4  A    between atoms: O_18  and  C_17 
REMARK    5  A    between atoms: C_19  and  O_18 
ROOT
ATOM      1  C   UNL d   1      33.216  20.940 -22.520  0.00  0.00     0.139 A 
ATOM      2  C   UNL d   1      33.187  19.904 -23.372  0.00  0.00     0.064 A 
ATOM      3  C   UNL d   1      33.216  20.725 -23.321  0.00  0.00     0.220 A 
ATOM      4  C   UNL d   1      33.168  19.603 -22.603  0.00  0.00     0.105 A 
ATOM      5  O   UNL d   1      33.187  20.247 -22.075  0.00  0.00    -0.304 OA
ATOM      6  C   UNL d   1      33.138  18.790 -22.476  0.00  0.00     0.049 A 
ATOM      7  C   UNL d   1      33.174  19.394 -24.014  0.00  0.00     0.007 A 
ATOM      8  O   UNL d   1      33.241  21.249 -23.956  0.00  0.00    -0.284 OA
ATOM      9  C   UNL d   1      33.126  18.282 -23.127  0.00  0.00     0.097 A 
ATOM     10  C   UNL d   1      33.144  18.582 -23.892  0.00  0.00     0.025 A 
ENDROOT
BRANCH   1  11
ATOM     11  C   UNL d   1      33.241  21.709 -22.217  0.00  0.00     0.034 C 
BRANCH  11  12
ATOM     12  C   UNL d   1      32.921  21.875 -21.477  0.00  0.00     0.032 A 
ATOM     13  S   UNL d   1      33.231  21.647 -20.751  0.00  0.00    -0.086 SA
ATOM     14  C   UNL d   1      32.729  21.933 -20.154  0.00  0.00     0.035 A 
ATOM     15  C   UNL d   1      32.110  22.338 -20.518  0.00  0.00     0.007 A 
ATOM     16  C   UNL d   1      32.222  22.306 -21.339  0.00  0.00     0.007 A 
ENDBRANCH  11  12
ENDBRANCH   1  11
BRANCH   9  17
ATOM     17  O   UNL d   1      33.095  17.467 -22.996  0.00  0.00    -0.319 OA
BRANCH  17  18
ATOM     18  C   UNL d   1      32.583  17.004 -23.451  0.00  0.00     0.246 C 
BRANCH  18  19
ATOM     19  C   UNL d   1      32.501  16.204 -23.279  0.00  0.00     0.217 C 
ATOM     20  O   UNL d   1      33.169  15.722 -23.204  0.00  0.00    -0.645 OA
ATOM     21  O   UNL d   1      31.700  15.857 -23.174  0.00  0.00    -0.645 OA
ENDBRANCH  18  19
ENDBRANCH  17  18
ENDBRANCH   9  17
TORSDOF 5
ENDMDL
MODEL 5
REMARK VINA RESULT:      -2.2      2.672      5.806
REMARK  5 active torsions:
REMARK  status: ('A' for Active; 'I' for Inactive)
REMARK    1  A    between atoms: C_6  and  C_1 
REMARK    2  A    between atoms: C_7  and  C_6 
REMARK    3  A    between atoms: C_11  and  C_19 
REMARK    4  A    between atoms: O_18  and  C_17 
REMARK    5  A    between atoms: C_19  and  O_18 
ROOT
ATOM      1  C   UNL d   1      32.625  22.974 -20.433  0.00  0.00     0.139 A 
ATOM      2  C   UNL d   1      32.833  22.251 -21.544  0.00  0.00     0.064 A 
ATOM      3  C   UNL d   1      32.690  23.009 -21.259  0.00  0.00     0.220 A 
ATOM      4  C   UNL d   1      32.858  21.738 -20.897  0.00  0.00     0.105 A 
ATOM      5  O   UNL d   1      32.729  22.188 -20.208  0.00  0.00    -0.304 OA
ATOM      6  C   UNL d   1      32.994  20.934 -21.009  0.00  0.00     0.049 A 
ATOM      7  C   UNL d   1      32.944  21.961 -22.304  0.00  0.00     0.007 A 
ATOM      8  O   UNL d   1      32.621  23.692 -21.715  0.00  0.00    -0.284 OA
ATOM      9  C   UNL d   1      33.105  20.649 -21.776  0.00  0.00     0.097 A 
ATOM     10  C   UNL d   1      33.079  21.159 -22.420  0.00  0.00     0.025 A 
ENDROOT
BRANCH   1  11
ATOM     11  C   UNL d   1      32.481  23.609 -19.924  0.00  0.00     0.034 C 
BRANCH  11  12
ATOM     12  C   UNL d   1      32.571  23.518 -19.111  0.00  0.00     0.032 A 
ATOM     13  S   UNL d   1      33.241  23.698 -18.671  0.00  0.00    -0.086 SA
ATOM     14  C   UNL d   1      33.085  23.519 -17.876  0.00  0.00     0.035 A 
ATOM     15  C   UNL d   1      32.315  23.226 -17.829  0.00  0.00     0.007 A 
ATOM     16  C   UNL d   1      31.990  23.223 -18.591  0.00  0.00     0.007 A 
ENDBRANCH  11  12
ENDBRANCH   1  11
BRANCH   9  17
ATOM     17  O   UNL d   1      33.241  19.842 -21.885  0.00  0.00    -0.319 OA
BRANCH  17  18
ATOM     18  C   UNL d   1      33.172  19.519 -22.644  0.00  0.00     0.246 C 
BRANCH  18  19
ATOM     19  C   UNL d   1      33.012  18.717 -22.729  0.00  0.00     0.217 C 
ATOM     20  O   UNL d   1      33.223  18.182 -22.134  0.00  0.00    -0.645 OA
ATOM     21  O   UNL d   1      32.614  18.423 -23.456  0.00  0.00    -0.645 OA
ENDBRANCH  18  19
ENDBRANCH  17  18
ENDBRANCH   9  17
TORSDOF 5
ENDMDL
