MODEL 1
REMARK VINA RESULT:     -10.6      0.000      0.000
REMARK  5 active torsions:
REMARK  status: ('A' for Active; 'I' for Inactive)
REMARK    1  A    between atoms: N_2  and  S_1 
REMARK    2  A    between atoms: C_6  and  S_1 
REMARK       I    between atoms: C_3  and  N_4 
REMARK    3  A    between atoms: C_5  and  C_3 
REMARK    4  A    between atoms: C_11  and  O_13 
REMARK    5  A    between atoms: O_13  and  C_23 
ROOT
ATOM      1  S   UNL d   1      49.969  34.506  52.529  0.00  0.00     0.271 S 
ATOM      2  O   UNL d   1      49.562  34.878  53.150  0.00  0.00    -0.200 OA
ATOM      3  O   UNL d   1      49.648  34.505  51.770  0.00  0.00    -0.200 OA
ENDROOT
BRANCH   1   4
ATOM      4  N   UNL d   1      49.251  34.919  52.593  0.00  0.00    -0.226 N 
ATOM      5  C   UNL d   1      48.643  34.779  52.053  0.00  0.00     0.111 A 
ATOM      6  C   UNL d   1      47.932  35.193  52.121  0.00  0.00     0.103 A 
ATOM      7  N   UNL d   1      47.831  35.738  52.721  0.00  0.00    -0.267 N 
ATOM      8  C   UNL d   1      47.117  36.151  52.788  0.00  0.00     0.288 C 
ATOM      9  C   UNL d   1      48.436  35.884  53.267  0.00  0.00     0.103 A 
ATOM     10  O   UNL d   1      47.010  36.708  53.398  0.00  0.00    -0.264 OA
ATOM     11  C   UNL d   1      49.151  35.470  53.200  0.00  0.00     0.111 A 
BRANCH   8  12
ATOM     12  C   UNL d   1      46.503  36.014  52.247  0.00  0.00     0.156 A 
ATOM     13  O   UNL d   1      46.462  36.299  51.466  0.00  0.00    -0.300 OA
ATOM     14  C   UNL d   1      45.755  36.026  51.132  0.00  0.00     0.123 A 
ATOM     15  C   UNL d   1      45.354  35.570  51.702  0.00  0.00     0.029 A 
ATOM     16  C   UNL d   1      45.824  35.567  52.393  0.00  0.00     0.032 A 
ENDBRANCH   8  12
ENDBRANCH   1   4
BRANCH   1  17
ATOM     17  C   UNL d   1      50.695  34.138  52.677  0.00  0.00     0.104 A 
ATOM     18  C   UNL d   1      50.736  33.496  53.185  0.00  0.00     0.015 A 
ATOM     19  C   UNL d   1      51.460  33.130  53.330  0.00  0.00     0.025 A 
ATOM     20  C   UNL d   1      52.141  33.410  52.965  0.00  0.00     0.100 A 
ATOM     21  C   UNL d   1      52.099  34.056  52.454  0.00  0.00     0.025 A 
ATOM     22  C   UNL d   1      51.377  34.418  52.311  0.00  0.00     0.015 A 
BRANCH  20  23
ATOM     23  O   UNL d   1      52.878  33.047  53.107  0.00  0.00    -0.307 OA
BRANCH  23  24
ATOM     24  C   UNL d   1      53.303  33.239  53.787  0.00  0.00     0.100 A 
ATOM     25  C   UNL d   1      53.812  32.690  54.122  0.00  0.00     0.023 A 
ATOM     26  C   UNL d   1      53.897  31.949  53.777  0.00  0.00     0.002 C 
ATOM     27  C   UNL d   1      54.242  32.877  54.806  0.00  0.00     0.002 A 
ATOM     28  C   UNL d   1      54.159  33.621  55.155  0.00  0.00     0.000 A 
ATOM     29  C   UNL d   1      53.644  34.172  54.814  0.00  0.00     0.002 A 
ATOM     30  C   UNL d   1      53.220  33.979  54.134  0.00  0.00     0.025 A 
ENDBRANCH  23  24
ENDBRANCH  20  23
ENDBRANCH   1  17
TORSDOF 5
ENDMDL
MODEL 2
REMARK VINA RESULT:      -9.3      1.471      6.292
REMARK  5 active torsions:
REMARK  status: ('A' for Active; 'I' for Inactive)
REMARK    1  A    between atoms: N_2  and  S_1 
REMARK    2  A    between atoms: C_6  and  S_1 
REMARK       I    between atoms: C_3  and  N_4 
REMARK    3  A    between atoms: C_5  and  C_3 
REMARK    4  A    between atoms: C_11  and  O_13 
REMARK    5  A    between atoms: O_13  and  C_23 
ROOT
ATOM      1  S   UNL d   1      51.115  34.028  52.486  0.00  0.00     0.271 S 
ATOM      2  O   UNL d   1      51.206  33.517  53.133  0.00  0.00    -0.200 OA
ATOM      3  O   UNL d   1      51.776  34.261  52.050  0.00  0.00    -0.200 OA
ENDROOT
BRANCH   1   4
ATOM      4  N   UNL d   1      51.761  33.651  52.847  0.00  0.00    -0.226 N 
ATOM      5  C   UNL d   1      52.247  34.069  53.368  0.00  0.00     0.111 A 
ATOM      6  C   UNL d   1      52.888  33.688  53.723  0.00  0.00     0.103 A 
ATOM      7  N   UNL d   1      53.040  32.902  53.561  0.00  0.00    -0.267 N 
ATOM      8  C   UNL d   1      53.682  32.523  53.919  0.00  0.00     0.288 C 
ATOM      9  C   UNL d   1      52.557  32.476  53.040  0.00  0.00     0.103 A 
ATOM     10  O   UNL d   1      53.841  31.721  53.756  0.00  0.00    -0.264 OA
ATOM     11  C   UNL d   1      51.914  32.856  52.682  0.00  0.00     0.111 A 
BRANCH   8  12
ATOM     12  C   UNL d   1      54.173  32.939  54.442  0.00  0.00     0.156 A 
ATOM     13  O   UNL d   1      54.834  33.400  54.236  0.00  0.00    -0.300 OA
ATOM     14  C   UNL d   1      55.156  33.711  54.932  0.00  0.00     0.123 A 
ATOM     15  C   UNL d   1      54.698  33.445  55.575  0.00  0.00     0.029 A 
ATOM     16  C   UNL d   1      54.089  32.965  55.264  0.00  0.00     0.032 A 
ENDBRANCH   8  12
ENDBRANCH   1   4
BRANCH   1  17
ATOM     17  C   UNL d   1      50.362  34.303  52.281  0.00  0.00     0.104 A 
ATOM     18  C   UNL d   1      49.806  34.453  52.865  0.00  0.00     0.015 A 
ATOM     19  C   UNL d   1      49.056  34.726  52.660  0.00  0.00     0.025 A 
ATOM     20  C   UNL d   1      48.867  34.848  51.869  0.00  0.00     0.100 A 
ATOM     21  C   UNL d   1      49.426  34.696  51.283  0.00  0.00     0.025 A 
ATOM     22  C   UNL d   1      50.173  34.424  51.491  0.00  0.00     0.015 A 
BRANCH  20  23
ATOM     23  O   UNL d   1      48.110  35.124  51.652  0.00  0.00    -0.307 OA
BRANCH  23  24
ATOM     24  C   UNL d   1      47.712  35.650  52.146  0.00  0.00     0.100 A 
ATOM     25  C   UNL d   1      46.935  35.857  51.985  0.00  0.00     0.023 A 
ATOM     26  C   UNL d   1      46.555  35.536  51.330  0.00  0.00     0.002 C 
ATOM     27  C   UNL d   1      46.529  36.385  52.478  0.00  0.00     0.002 A 
ATOM     28  C   UNL d   1      46.908  36.709  53.137  0.00  0.00     0.000 A 
ATOM     29  C   UNL d   1      47.692  36.498  53.296  0.00  0.00     0.002 A 
ATOM     30  C   UNL d   1      48.089  35.972  52.802  0.00  0.00     0.025 A 
ENDBRANCH  23  24
ENDBRANCH  20  23
ENDBRANCH   1  17
TORSDOF 5
ENDMDL
