MODEL 1
REMARK VINA RESULT:      -5.0      0.000      0.000
REMARK  2 active torsions:
REMARK  status: ('A' for Active; 'I' for Inactive)
REMARK       I    between atoms: N_3  and  C_1 
REMARK    1  A    between atoms: O_4  and  C_1 
REMARK    2  A    between atoms: C_6  and  O_4 
ROOT
ATOM      1  C   UNL d   1      58.261  -0.971  29.873  0.00  0.00     0.105 A 
ATOM      2  C   UNL d   1      58.754  -0.711  29.268  0.00  0.00     0.030 A 
ATOM      3  C   UNL d   1      57.883  -0.416  30.374  0.00  0.00     0.122 A 
ATOM      4  N   UNL d   1      58.136  -1.784  29.991  0.00  0.00    -0.242 NA
ATOM      5  C   UNL d   1      58.877   0.098  29.153  0.00  0.00     0.059 A 
ATOM      6  C   UNL d   1      58.006   0.387  30.259  0.00  0.00     0.027 A 
ATOM      7  C   UNL d   1      58.499   0.654  29.654  0.00  0.00     0.013 A 
ATOM      8 CL   UNL d   1      59.374   0.365  28.544  0.00  0.00    -0.082 Cl
ATOM      9  C   UNL d   1      59.126  -1.258  28.775  0.00  0.00     0.004 A 
ATOM     10  C   UNL d   1      58.508  -2.330  29.497  0.00  0.00     0.099 A 
ATOM     11  C   UNL d   1      59.006  -2.064  28.887  0.00  0.00     0.021 A 
ENDROOT
BRANCH   3  12
ATOM     12  O   UNL d   1      57.382  -0.677  30.989  0.00  0.00    -0.257 OA
BRANCH  12  13
ATOM     13  C   UNL d   1      57.054  -0.132  31.530  0.00  0.00     0.378 C 
ATOM     14  N   UNL d   1      56.564  -0.384  32.133  0.00  0.00    -0.247 N 
ATOM     15  C   UNL d   1      56.388  -1.187  32.213  0.00  0.00     0.112 A 
ATOM     16  C   UNL d   1      56.242   0.159  32.665  0.00  0.00     0.112 A 
ATOM     17  C   UNL d   1      55.894  -1.434  32.823  0.00  0.00     0.142 A 
ATOM     18  O   UNL d   1      55.574  -0.896  33.352  0.00  0.00    -0.300 OA
ATOM     19  C   UNL d   1      55.750  -0.093  33.272  0.00  0.00     0.142 A 
ATOM     20  O   UNL d   1      57.232   0.682  31.449  0.00  0.00    -0.237 OA
ENDBRANCH  12  13
ENDBRANCH   3  12
TORSDOF 2
ENDMDL
MODEL 2
REMARK VINA RESULT:      -4.1      1.259      1.790
REMARK  2 active torsions:
REMARK  status: ('A' for Active; 'I' for Inactive)
REMARK       I    between atoms: N_3  and  C_1 
REMARK    1  A    between atoms: O_4  and  C_1 
REMARK    2  A    between atoms: C_6  and  O_4 
ROOT
ATOM      1  C   UNL d   1      59.042   0.436  30.623  0.00  0.00     0.105 A 
ATOM      2  C   UNL d   1      59.407   0.428  29.885  0.00  0.00     0.030 A 
ATOM      3  C   UNL d   1      58.215   0.316  30.683  0.00  0.00     0.122 A 
ATOM      4  N   UNL d   1      59.491   0.563  31.310  0.00  0.00    -0.242 NA
ATOM      5  C   UNL d   1      58.958   0.301  29.202  0.00  0.00     0.059 A 
ATOM      6  C   UNL d   1      57.770   0.191  30.004  0.00  0.00     0.027 A 
ATOM      7  C   UNL d   1      58.131   0.182  29.263  0.00  0.00     0.013 A 
ATOM      8 CL   UNL d   1      59.323   0.292  28.456  0.00  0.00    -0.082 Cl
ATOM      9  C   UNL d   1      60.221   0.546  29.826  0.00  0.00     0.004 A 
ATOM     10  C   UNL d   1      60.305   0.681  31.250  0.00  0.00     0.099 A 
ATOM     11  C   UNL d   1      60.671   0.672  30.504  0.00  0.00     0.021 A 
ENDROOT
BRANCH   3  12
ATOM     12  O   UNL d   1      57.842   0.324  31.429  0.00  0.00    -0.257 OA
BRANCH  12  13
ATOM     13  C   UNL d   1      57.237  -0.223  31.608  0.00  0.00     0.378 C 
ATOM     14  N   UNL d   1      56.775  -0.133  32.276  0.00  0.00    -0.247 N 
ATOM     15  C   UNL d   1      56.903   0.506  32.783  0.00  0.00     0.112 A 
ATOM     16  C   UNL d   1      56.179  -0.677  32.447  0.00  0.00     0.112 A 
ATOM     17  C   UNL d   1      56.433   0.591  33.453  0.00  0.00     0.142 A 
ATOM     18  O   UNL d   1      55.840   0.051  33.625  0.00  0.00    -0.300 OA
ATOM     19  C   UNL d   1      55.712  -0.588  33.117  0.00  0.00     0.142 A 
ATOM     20  O   UNL d   1      57.108  -0.871  31.094  0.00  0.00    -0.237 OA
ENDBRANCH  12  13
ENDBRANCH   3  12
TORSDOF 2
ENDMDL
MODEL 3
REMARK VINA RESULT:      -3.8      0.977      1.286
REMARK  2 active torsions:
REMARK  status: ('A' for Active; 'I' for Inactive)
REMARK       I    between atoms: N_3  and  C_1 
REMARK    1  A    between atoms: O_4  and  C_1 
REMARK    2  A    between atoms: C_6  and  O_4 
ROOT
ATOM      1  C   UNL d   1      59.060  -1.492  29.388  0.00  0.00     0.105 A 
ATOM      2  C   UNL d   1      59.768  -1.498  28.969  0.00  0.00     0.030 A 
ATOM      3  C   UNL d   1      58.785  -0.782  29.737  0.00  0.00     0.122 A 
ATOM      4  N   UNL d   1      58.615  -2.189  29.466  0.00  0.00    -0.242 NA
ATOM      5  C   UNL d   1      60.209  -0.803  28.891  0.00  0.00     0.059 A 
ATOM      6  C   UNL d   1      59.224  -0.093  29.660  0.00  0.00     0.027 A 
ATOM      7  C   UNL d   1      59.935  -0.093  29.241  0.00  0.00     0.013 A 
ATOM      8 CL   UNL d   1      60.924  -0.805  28.469  0.00  0.00    -0.082 Cl
ATOM      9  C   UNL d   1      60.038  -2.197  28.624  0.00  0.00     0.004 A 
ATOM     10  C   UNL d   1      58.885  -2.888  29.122  0.00  0.00     0.099 A 
ATOM     11  C   UNL d   1      59.600  -2.891  28.699  0.00  0.00     0.021 A 
ENDROOT
BRANCH   3  12
ATOM     12  O   UNL d   1      58.068  -0.773  30.163  0.00  0.00    -0.257 OA
BRANCH  12  13
ATOM     13  C   UNL d   1      57.851  -0.105  30.616  0.00  0.00     0.378 C 
ATOM     14  N   UNL d   1      57.360  -0.182  31.265  0.00  0.00    -0.247 N 
ATOM     15  C   UNL d   1      57.073  -0.926  31.480  0.00  0.00     0.112 A 
ATOM     16  C   UNL d   1      57.149   0.481  31.709  0.00  0.00     0.112 A 
ATOM     17  C   UNL d   1      56.580  -0.995  32.135  0.00  0.00     0.142 A 
ATOM     18  O   UNL d   1      56.370  -0.337  32.577  0.00  0.00    -0.300 OA
ATOM     19  C   UNL d   1      56.657   0.407  32.362  0.00  0.00     0.142 A 
ATOM     20  O   UNL d   1      58.141   0.649  30.398  0.00  0.00    -0.237 OA
ENDBRANCH  12  13
ENDBRANCH   3  12
TORSDOF 2
ENDMDL
MODEL 4
REMARK VINA RESULT:      -3.1      9.401      9.728
REMARK  2 active torsions:
REMARK  status: ('A' for Active; 'I' for Inactive)
REMARK       I    between atoms: N_3  and  C_1 
REMARK    1  A    between atoms: O_4  and  C_1 
REMARK    2  A    between atoms: C_6  and  O_4 
ROOT
ATOM      1  C   UNL d   1      58.882  -9.805  32.174  0.00  0.00     0.105 A 
ATOM      2  C   UNL d   1      58.826  -9.812  31.353  0.00  0.00     0.030 A 
ATOM      3  C   UNL d   1      59.635  -9.799  32.542  0.00  0.00     0.122 A 
ATOM      4  N   UNL d   1      58.195  -9.805  32.640  0.00  0.00    -0.242 NA
ATOM      5  C   UNL d   1      59.512  -9.811  30.890  0.00  0.00     0.059 A 
ATOM      6  C   UNL d   1      60.315  -9.799  32.083  0.00  0.00     0.027 A 
ATOM      7  C   UNL d   1      60.264  -9.805  31.259  0.00  0.00     0.013 A 
ATOM      8 CL   UNL d   1      59.459  -9.818  30.062  0.00  0.00    -0.082 Cl
ATOM      9  C   UNL d   1      58.085  -9.818  30.990  0.00  0.00     0.004 A 
ATOM     10  C   UNL d   1      57.454  -9.812  32.276  0.00  0.00     0.099 A 
ATOM     11  C   UNL d   1      57.401  -9.818  31.447  0.00  0.00     0.021 A 
ENDROOT
BRANCH   3  12
ATOM     12  O   UNL d   1      59.694  -9.793  33.375  0.00  0.00    -0.257 OA
BRANCH  12  13
ATOM     13  C   UNL d   1      60.277  -9.330  33.755  0.00  0.00     0.378 C 
ATOM     14  N   UNL d   1      60.324  -9.304  34.570  0.00  0.00    -0.247 N 
ATOM     15  C   UNL d   1      59.790  -9.738  35.028  0.00  0.00     0.112 A 
ATOM     16  C   UNL d   1      60.901  -8.845  34.941  0.00  0.00     0.112 A 
ATOM     17  C   UNL d   1      59.844  -9.706  35.849  0.00  0.00     0.142 A 
ATOM     18  O   UNL d   1      60.417  -9.251  36.218  0.00  0.00    -0.300 OA
ATOM     19  C   UNL d   1      60.950  -8.817  35.760  0.00  0.00     0.142 A 
ATOM     20  O   UNL d   1      60.817  -8.891  33.291  0.00  0.00    -0.237 OA
ENDBRANCH  12  13
ENDBRANCH   3  12
TORSDOF 2
ENDMDL
MODEL 5
REMARK VINA RESULT:      -3.1      9.384      9.527
REMARK  2 active torsions:
REMARK  status: ('A' for Active; 'I' for Inactive)
REMARK       I    between atoms: N_3  and  C_1 
REMARK    1  A    between atoms: O_4  and  C_1 
REMARK    2  A    between atoms: C_6  and  O_4 
ROOT
ATOM      1  C   UNL d   1      58.714  -9.817  30.501  0.00  0.00     0.105 A 
ATOM      2  C   UNL d   1      58.127  -9.817  29.924  0.00  0.00     0.030 A 
ATOM      3  C   UNL d   1      58.505  -9.817  31.312  0.00  0.00     0.122 A 
ATOM      4  N   UNL d   1      59.515  -9.816  30.281  0.00  0.00    -0.242 NA
ATOM      5  C   UNL d   1      57.330  -9.817  30.144  0.00  0.00     0.059 A 
ATOM      6  C   UNL d   1      57.714  -9.818  31.530  0.00  0.00     0.027 A 
ATOM      7  C   UNL d   1      57.121  -9.818  30.956  0.00  0.00     0.013 A 
ATOM      8 CL   UNL d   1      56.735  -9.817  29.565  0.00  0.00    -0.082 Cl
ATOM      9  C   UNL d   1      58.333  -9.816  29.125  0.00  0.00     0.004 A 
ATOM     10  C   UNL d   1      59.721  -9.816  29.482  0.00  0.00     0.099 A 
ATOM     11  C   UNL d   1      59.126  -9.816  28.903  0.00  0.00     0.021 A 
ENDROOT
BRANCH   3  12
ATOM     12  O   UNL d   1      59.098  -9.817  31.899  0.00  0.00    -0.257 OA
BRANCH  12  13
ATOM     13  C   UNL d   1      58.898  -9.734  32.705  0.00  0.00     0.378 C 
ATOM     14  N   UNL d   1      59.474  -9.594  33.267  0.00  0.00    -0.247 N 
ATOM     15  C   UNL d   1      60.266  -9.532  33.040  0.00  0.00     0.112 A 
ATOM     16  C   UNL d   1      59.271  -9.512  34.063  0.00  0.00     0.112 A 
ATOM     17  C   UNL d   1      60.841  -9.391  33.612  0.00  0.00     0.142 A 
ATOM     18  O   UNL d   1      60.640  -9.310  34.402  0.00  0.00    -0.300 OA
ATOM     19  C   UNL d   1      59.848  -9.371  34.630  0.00  0.00     0.142 A 
ATOM     20  O   UNL d   1      58.096  -9.796  32.936  0.00  0.00    -0.237 OA
ENDBRANCH  12  13
ENDBRANCH   3  12
TORSDOF 2
ENDMDL
MODEL 6
REMARK VINA RESULT:      -3.0      8.842      9.864
REMARK  2 active torsions:
REMARK  status: ('A' for Active; 'I' for Inactive)
REMARK       I    between atoms: N_3  and  C_1 
REMARK    1  A    between atoms: O_4  and  C_1 
REMARK    2  A    between atoms: C_6  and  O_4 
ROOT
ATOM      1  C   UNL d   1      59.531  -8.511  34.895  0.00  0.00     0.105 A 
ATOM      2  C   UNL d   1      60.026  -8.466  35.551  0.00  0.00     0.030 A 
ATOM      3  C   UNL d   1      59.633  -9.124  34.333  0.00  0.00     0.122 A 
ATOM      4  N   UNL d   1      58.929  -7.949  34.788  0.00  0.00    -0.242 NA
ATOM      5  C   UNL d   1      60.625  -9.026  35.657  0.00  0.00     0.059 A 
ATOM      6  C   UNL d   1      60.228  -9.679  34.439  0.00  0.00     0.027 A 
ATOM      7  C   UNL d   1      60.727  -9.639  35.094  0.00  0.00     0.013 A 
ATOM      8 CL   UNL d   1      61.127  -8.985  36.317  0.00  0.00    -0.082 Cl
ATOM      9  C   UNL d   1      59.925  -7.863  36.105  0.00  0.00     0.004 A 
ATOM     10  C   UNL d   1      58.828  -7.346  35.341  0.00  0.00     0.099 A 
ATOM     11  C   UNL d   1      59.329  -7.304  36.003  0.00  0.00     0.021 A 
ENDROOT
BRANCH   3  12
ATOM     12  O   UNL d   1      59.133  -9.171  33.667  0.00  0.00    -0.257 OA
BRANCH  12  13
ATOM     13  C   UNL d   1      59.446  -9.340  32.912  0.00  0.00     0.378 C 
ATOM     14  N   UNL d   1      58.952  -9.495  32.279  0.00  0.00    -0.247 N 
ATOM     15  C   UNL d   1      58.133  -9.484  32.383  0.00  0.00     0.112 A 
ATOM     16  C   UNL d   1      59.267  -9.662  31.535  0.00  0.00     0.112 A 
ATOM     17  C   UNL d   1      57.642  -9.641  31.741  0.00  0.00     0.142 A 
ATOM     18  O   UNL d   1      57.954  -9.807  31.001  0.00  0.00    -0.300 OA
ATOM     19  C   UNL d   1      58.773  -9.817  30.897  0.00  0.00     0.142 A 
ATOM     20  O   UNL d   1      60.276  -9.351  32.806  0.00  0.00    -0.237 OA
ENDBRANCH  12  13
ENDBRANCH   3  12
TORSDOF 2
ENDMDL
