MODEL 1
REMARK VINA RESULT:      24.3      0.000      0.000
REMARK  4 active torsions:
REMARK  status: ('A' for Active; 'I' for Inactive)
REMARK    1  A    between atoms: C_14  and  C_4 
REMARK       I    between atoms: C_6  and  N_8 
REMARK    2  A    between atoms: C_9  and  C_6 
REMARK    3  A    between atoms: N_8  and  C_14 
REMARK    4  A    between atoms: O_16  and  C_15 
ROOT
ATOM      1  C   UNL d   1     -57.389 -98.979 -44.171  0.00  0.00     0.279 C 
ATOM      2  N   UNL d   1     -56.915 -98.930 -44.842  0.00  0.00    -0.205 NA
ATOM      3  O   UNL d   1     -57.042 -99.102 -43.432  0.00  0.00    -0.265 OA
ENDROOT
BRANCH   1   4
ATOM      4  C   UNL d   1     -58.204 -98.905 -44.241  0.00  0.00     0.060 A 
ATOM      5  C   UNL d   1     -58.673 -98.867 -43.563  0.00  0.00     0.029 A 
ATOM      6  C   UNL d   1     -59.493 -98.792 -43.642  0.00  0.00     0.094 A 
ATOM      7  C   UNL d   1     -59.846 -98.755 -44.394  0.00  0.00     0.024 A 
ATOM      8  C   UNL d   1     -59.373 -98.794 -45.064  0.00  0.00     0.002 A 
ATOM      9  C   UNL d   1     -58.551 -98.868 -44.999  0.00  0.00     0.005 A 
BRANCH   6  10
ATOM     10  O   UNL d   1     -59.958 -98.755 -42.968  0.00  0.00    -0.328 OA
ATOM     11  C   UNL d   1     -59.618 -98.906 -42.223  0.00  0.00     0.181 C 
ENDBRANCH   6  10
ENDBRANCH   1   4
BRANCH   2  12
ATOM     12  C   UNL d   1     -56.098 -99.004 -44.775  0.00  0.00     0.123 C 
BRANCH  12  13
ATOM     13  C   UNL d   1     -55.757 -99.742 -44.644  0.00  0.00     0.120 A 
ATOM     14  N   UNL d   1     -55.373 -99.985 -43.957  0.00  0.00    -0.219 NA
ATOM     15  C   UNL d   1     -55.118-100.763 -44.065  0.00  0.00     0.180 A 
ATOM     16  N   UNL d   1     -55.349-101.005 -44.830  0.00  0.00    -0.282 N 
ATOM     17  S   UNL d   1     -54.724-101.394 -43.711  0.00  0.00    -0.048 SA
ATOM     18  C   UNL d   1     -55.744-100.369 -45.184  0.00  0.00     0.103 A 
ATOM     19  C   UNL d   1     -55.094-101.778 -44.933  0.00  0.00     0.089 A 
ATOM     20  C   UNL d   1     -54.711-102.022 -44.251  0.00  0.00     0.057 A 
ENDBRANCH  12  13
ENDBRANCH   2  12
TORSDOF 4
ENDMDL
