MODEL 1
REMARK VINA RESULT:      -4.3      0.000      0.000
REMARK  4 active torsions:
REMARK  status: ('A' for Active; 'I' for Inactive)
REMARK    1  A    between atoms: N_7  and  C_4 
REMARK    2  A    between atoms: N_9  and  N_7 
REMARK       I    between atoms: C_8  and  N_9 
REMARK    3  A    between atoms: C_11  and  C_8 
REMARK    4  A    between atoms: C_13  and  C_14 
ROOT
ATOM      1  C   UNL d   1     -41.496-122.083 -51.235  0.00  0.00     0.297 C 
ATOM      2  N   UNL d   1     -41.532-122.513 -51.936  0.00  0.00    -0.104 NA
ATOM      3  O   UNL d   1     -41.146-121.336 -51.226  0.00  0.00    -0.264 OA
ENDROOT
BRANCH   1   4
ATOM      4  C   UNL d   1     -41.810-122.399 -50.543  0.00  0.00     0.059 A 
ATOM      5  C   UNL d   1     -41.314-122.764 -49.994  0.00  0.00     0.004 A 
ATOM      6  C   UNL d   1     -41.628-123.081 -49.301  0.00  0.00    -0.004 A 
ATOM      7  C   UNL d   1     -42.437-123.032 -49.159  0.00  0.00    -0.023 A 
ATOM      8  C   UNL d   1     -42.945-122.664 -49.708  0.00  0.00    -0.004 A 
ATOM      9  C   UNL d   1     -42.625-122.351 -50.394  0.00  0.00     0.004 A 
BRANCH   7  10
ATOM     10  C   UNL d   1     -42.744-123.354 -48.458  0.00  0.00     0.019 C 
ATOM     11  C   UNL d   1     -42.149-123.301 -47.904  0.00  0.00     0.004 C 
ATOM     12  C   UNL d   1     -43.525-123.577 -48.669  0.00  0.00     0.004 C 
ATOM     13  C   UNL d   1     -43.041-123.671 -47.763  0.00  0.00     0.004 C 
ENDBRANCH   7  10
ENDBRANCH   1   4
BRANCH   2  14
ATOM     14  N   UNL d   1     -41.218-122.196 -52.628  0.00  0.00    -0.127 NA
BRANCH  14  15
ATOM     15  C   UNL d   1     -41.619-122.290 -53.345  0.00  0.00     0.178 A 
ATOM     16  N   UNL d   1     -41.588-123.005 -53.747  0.00  0.00    -0.240 N 
ATOM     17  C   UNL d   1     -41.984-123.097 -54.456  0.00  0.00     0.343 A 
ATOM     18  C   UNL d   1     -41.155-123.633 -53.434  0.00  0.00     0.105 C 
ATOM     19  N   UNL d   1     -42.418-122.469 -54.770  0.00  0.00    -0.224 N 
ATOM     20  O   UNL d   1     -41.952-123.817 -54.859  0.00  0.00    -0.245 OA
ATOM     21  C   UNL d   1     -42.459-121.743 -54.378  0.00  0.00     0.271 A 
ATOM     22  C   UNL d   1     -42.819-122.561 -55.486  0.00  0.00     0.107 C 
ATOM     23  C   UNL d   1     -42.052-121.662 -53.658  0.00  0.00     0.101 A 
ATOM     24  O   UNL d   1     -42.888-121.121 -54.688  0.00  0.00    -0.266 OA
ENDBRANCH  14  15
ENDBRANCH   2  14
TORSDOF 4
ENDMDL
MODEL 2
REMARK VINA RESULT:      -2.1      0.930      1.565
REMARK  4 active torsions:
REMARK  status: ('A' for Active; 'I' for Inactive)
REMARK    1  A    between atoms: N_7  and  C_4 
REMARK    2  A    between atoms: N_9  and  N_7 
REMARK       I    between atoms: C_8  and  N_9 
REMARK    3  A    between atoms: C_11  and  C_8 
REMARK    4  A    between atoms: C_13  and  C_14 
ROOT
ATOM      1  C   UNL d   1     -42.818-121.975 -51.065  0.00  0.00     0.297 C 
ATOM      2  N   UNL d   1     -42.423-122.189 -51.756  0.00  0.00    -0.104 NA
ATOM      3  O   UNL d   1     -43.422-121.414 -51.092  0.00  0.00    -0.264 OA
ENDROOT
BRANCH   1   4
ATOM      4  C   UNL d   1     -42.609-122.323 -50.349  0.00  0.00     0.059 A 
ATOM      5  C   UNL d   1     -41.814-122.400 -50.144  0.00  0.00     0.004 A 
ATOM      6  C   UNL d   1     -41.604-122.747 -49.427  0.00  0.00    -0.004 A 
ATOM      7  C   UNL d   1     -42.191-123.017 -48.916  0.00  0.00    -0.023 A 
ATOM      8  C   UNL d   1     -42.996-122.943 -49.116  0.00  0.00    -0.004 A 
ATOM      9  C   UNL d   1     -43.197-122.596 -49.831  0.00  0.00     0.004 A 
BRANCH   7  10
ATOM     10  C   UNL d   1     -41.970-123.366 -48.196  0.00  0.00     0.019 C 
ATOM     11  C   UNL d   1     -42.571-123.205 -47.672  0.00  0.00     0.004 C 
ATOM     12  C   UNL d   1     -41.227-123.716 -48.367  0.00  0.00     0.004 C 
ATOM     13  C   UNL d   1     -41.757-123.708 -47.483  0.00  0.00     0.004 C 
ENDBRANCH   7  10
ENDBRANCH   1   4
BRANCH   2  14
ATOM     14  N   UNL d   1     -42.632-121.842 -52.472  0.00  0.00    -0.127 NA
BRANCH  14  15
ATOM     15  C   UNL d   1     -42.305-122.121 -53.178  0.00  0.00     0.178 A 
ATOM     16  N   UNL d   1     -42.403-121.699 -53.876  0.00  0.00    -0.240 N 
ATOM     17  C   UNL d   1     -42.080-121.975 -54.574  0.00  0.00     0.343 A 
ATOM     18  C   UNL d   1     -42.830-120.993 -53.871  0.00  0.00     0.105 C 
ATOM     19  N   UNL d   1     -41.653-122.681 -54.579  0.00  0.00    -0.224 N 
ATOM     20  O   UNL d   1     -42.179-121.549 -55.275  0.00  0.00    -0.245 OA
ATOM     21  C   UNL d   1     -41.545-123.117 -53.886  0.00  0.00     0.271 A 
ATOM     22  C   UNL d   1     -41.326-122.961 -55.284  0.00  0.00     0.107 C 
ATOM     23  C   UNL d   1     -41.878-122.827 -53.183  0.00  0.00     0.101 A 
ATOM     24  O   UNL d   1     -41.123-123.817 -53.891  0.00  0.00    -0.266 OA
ENDBRANCH  14  15
ENDBRANCH   2  14
TORSDOF 4
ENDMDL
