MODEL 1
REMARK VINA RESULT:      -5.8      0.000      0.000
REMARK  5 active torsions:
REMARK  status: ('A' for Active; 'I' for Inactive)
REMARK    1  A    between atoms: C_3  and  S_1 
REMARK    2  A    between atoms: N_2  and  C_4 
REMARK    3  A    between atoms: N_5  and  C_16 
REMARK    4  A    between atoms: C_11  and  N_5 
REMARK    5  A    between atoms: C_17  and  C_11 
ROOT
ATOM      1  N   UNL d   1     -41.325-123.183 -50.792  0.00  0.00    -0.244 NA
ENDROOT
BRANCH   1   2
ATOM      2  C   UNL d   1     -41.298-123.140 -51.621  0.00  0.00     0.082 A 
ATOM      3  C   UNL d   1     -41.263-123.817 -52.070  0.00  0.00     0.020 A 
ATOM      4  C   UNL d   1     -41.236-123.776 -52.894  0.00  0.00     0.015 A 
ATOM      5  C   UNL d   1     -41.244-123.032 -53.250  0.00  0.00     0.107 A 
ATOM      6  C   UNL d   1     -41.279-122.356 -52.800  0.00  0.00     0.015 A 
ATOM      7  C   UNL d   1     -41.306-122.396 -51.977  0.00  0.00     0.020 A 
BRANCH   5   8
ATOM      8  S   UNL d   1     -41.217-122.985 -54.083  0.00  0.00     0.302 S 
ATOM      9  O   UNL d   1     -41.210-122.157 -54.031  0.00  0.00    -0.197 OA
ATOM     10  O   UNL d   1     -41.190-122.926 -54.908  0.00  0.00    -0.197 OA
ATOM     11  N   UNL d   1     -41.224-123.805 -54.131  0.00  0.00    -0.043 N 
ENDBRANCH   5   8
ENDBRANCH   1   2
BRANCH   1  12
ATOM     12  C   UNL d   1     -42.038-123.198 -50.401  0.00  0.00     0.099 C 
BRANCH  12  13
ATOM     13  C   UNL d   1     -42.073-123.183 -49.575  0.00  0.00     0.019 A 
ATOM     14  C   UNL d   1     -42.801-122.980 -49.215  0.00  0.00     0.003 A 
ATOM     15  C   UNL d   1     -42.836-122.966 -48.388  0.00  0.00     0.024 A 
ATOM     16  C   UNL d   1     -42.163-123.150 -47.921  0.00  0.00     0.127 A 
ATOM     17  C   UNL d   1     -41.466-123.344 -48.290  0.00  0.00     0.024 A 
ATOM     18  C   UNL d   1     -41.399-123.367 -49.108  0.00  0.00     0.003 A 
BRANCH  16  19
ATOM     19  N   UNL d   1     -42.183-123.140 -47.097  0.00  0.00    -0.114 N 
ATOM     20  O   UNL d   1     -42.447-123.817 -46.684  0.00  0.00    -0.532 OA
ATOM     21  O   UNL d   1     -41.940-122.459 -46.689  0.00  0.00    -0.532 OA
ENDBRANCH  16  19
ENDBRANCH  12  13
ENDBRANCH   1  12
TORSDOF 5
ENDMDL
MODEL 2
REMARK VINA RESULT:      -5.6      1.565      5.347
REMARK  5 active torsions:
REMARK  status: ('A' for Active; 'I' for Inactive)
REMARK    1  A    between atoms: C_3  and  S_1 
REMARK    2  A    between atoms: N_2  and  C_4 
REMARK    3  A    between atoms: N_5  and  C_16 
REMARK    4  A    between atoms: C_11  and  N_5 
REMARK    5  A    between atoms: C_17  and  C_11 
ROOT
ATOM      1  N   UNL d   1     -42.004-123.318 -50.796  0.00  0.00    -0.244 NA
ENDROOT
BRANCH   1   2
ATOM      2  C   UNL d   1     -42.046-123.328 -49.968  0.00  0.00     0.082 A 
ATOM      3  C   UNL d   1     -41.546-123.799 -49.533  0.00  0.00     0.020 A 
ATOM      4  C   UNL d   1     -41.586-123.811 -48.709  0.00  0.00     0.015 A 
ATOM      5  C   UNL d   1     -42.146-123.334 -48.337  0.00  0.00     0.107 A 
ATOM      6  C   UNL d   1     -42.646-122.863 -48.771  0.00  0.00     0.015 A 
ATOM      7  C   UNL d   1     -42.607-122.850 -49.595  0.00  0.00     0.020 A 
BRANCH   5   8
ATOM      8  S   UNL d   1     -42.191-123.342 -47.504  0.00  0.00     0.302 S 
ATOM      9  O   UNL d   1     -42.917-123.740 -47.551  0.00  0.00    -0.197 OA
ATOM     10  O   UNL d   1     -42.246-123.356 -46.678  0.00  0.00    -0.197 OA
ATOM     11  N   UNL d   1     -41.471-122.947 -47.459  0.00  0.00    -0.043 N 
ENDBRANCH   5   8
ENDBRANCH   1   2
BRANCH   1  12
ATOM     12  C   UNL d   1     -41.304-123.149 -51.174  0.00  0.00     0.099 C 
BRANCH  12  13
ATOM     13  C   UNL d   1     -41.270-123.071 -51.997  0.00  0.00     0.019 A 
ATOM     14  C   UNL d   1     -41.158-123.763 -52.453  0.00  0.00     0.003 A 
ATOM     15  C   UNL d   1     -41.124-123.686 -53.277  0.00  0.00     0.024 A 
ATOM     16  C   UNL d   1     -41.198-122.935 -53.646  0.00  0.00     0.127 A 
ATOM     17  C   UNL d   1     -41.306-122.275 -53.184  0.00  0.00     0.024 A 
ATOM     18  C   UNL d   1     -41.344-122.320 -52.366  0.00  0.00     0.003 A 
BRANCH  16  19
ATOM     19  N   UNL d   1     -41.166-122.841 -54.465  0.00  0.00    -0.114 N 
ATOM     20  O   UNL d   1     -41.176-122.072 -54.791  0.00  0.00    -0.532 OA
ATOM     21  O   UNL d   1     -41.123-123.511 -54.953  0.00  0.00    -0.532 OA
ENDBRANCH  16  19
ENDBRANCH  12  13
ENDBRANCH   1  12
TORSDOF 5
ENDMDL
MODEL 3
REMARK VINA RESULT:      -5.4      1.744      5.405
REMARK  5 active torsions:
REMARK  status: ('A' for Active; 'I' for Inactive)
REMARK    1  A    between atoms: C_3  and  S_1 
REMARK    2  A    between atoms: N_2  and  C_4 
REMARK    3  A    between atoms: N_5  and  C_16 
REMARK    4  A    between atoms: C_11  and  N_5 
REMARK    5  A    between atoms: C_17  and  C_11 
ROOT
ATOM      1  N   UNL d   1     -41.872-122.256 -51.581  0.00  0.00    -0.244 NA
ENDROOT
BRANCH   1   2
ATOM      2  C   UNL d   1     -41.883-122.550 -50.805  0.00  0.00     0.082 A 
ATOM      3  C   UNL d   1     -41.248-122.963 -50.509  0.00  0.00     0.020 A 
ATOM      4  C   UNL d   1     -41.258-123.256 -49.738  0.00  0.00     0.015 A 
ATOM      5  C   UNL d   1     -41.926-123.122 -49.275  0.00  0.00     0.107 A 
ATOM      6  C   UNL d   1     -42.561-122.709 -49.571  0.00  0.00     0.015 A 
ATOM      7  C   UNL d   1     -42.553-122.415 -50.341  0.00  0.00     0.020 A 
BRANCH   5   8
ATOM      8  S   UNL d   1     -41.941-123.416 -48.494  0.00  0.00     0.302 S 
ATOM      9  O   UNL d   1     -41.123-123.290 -48.435  0.00  0.00    -0.197 OA
ATOM     10  O   UNL d   1     -41.944-123.707 -47.719  0.00  0.00    -0.197 OA
ATOM     11  N   UNL d   1     -42.751-123.541 -48.555  0.00  0.00    -0.043 N 
ENDBRANCH   5   8
ENDBRANCH   1   2
BRANCH   1  12
ATOM     12  C   UNL d   1     -41.427-122.619 -52.155  0.00  0.00     0.099 C 
BRANCH  12  13
ATOM     13  C   UNL d   1     -41.560-122.470 -52.958  0.00  0.00     0.019 A 
ATOM     14  C   UNL d   1     -41.329-123.055 -53.511  0.00  0.00     0.003 A 
ATOM     15  C   UNL d   1     -41.463-122.906 -54.315  0.00  0.00     0.024 A 
ATOM     16  C   UNL d   1     -41.820-122.190 -54.570  0.00  0.00     0.127 A 
ATOM     17  C   UNL d   1     -42.036-121.636 -54.018  0.00  0.00     0.024 A 
ATOM     18  C   UNL d   1     -41.917-121.754 -53.214  0.00  0.00     0.003 A 
BRANCH  16  19
ATOM     19  N   UNL d   1     -41.959-122.028 -55.366  0.00  0.00    -0.114 N 
ATOM     20  O   UNL d   1     -42.746-121.987 -55.646  0.00  0.00    -0.532 OA
ATOM     21  O   UNL d   1     -41.318-121.908 -55.879  0.00  0.00    -0.532 OA
ENDBRANCH  16  19
ENDBRANCH  12  13
ENDBRANCH   1  12
TORSDOF 5
ENDMDL
MODEL 4
REMARK VINA RESULT:      -4.1      1.221      1.741
REMARK  5 active torsions:
REMARK  status: ('A' for Active; 'I' for Inactive)
REMARK    1  A    between atoms: C_3  and  S_1 
REMARK    2  A    between atoms: N_2  and  C_4 
REMARK    3  A    between atoms: N_5  and  C_16 
REMARK    4  A    between atoms: C_11  and  N_5 
REMARK    5  A    between atoms: C_17  and  C_11 
ROOT
ATOM      1  N   UNL d   1     -41.358-122.889 -52.128  0.00  0.00    -0.244 NA
ENDROOT
BRANCH   1   2
ATOM      2  C   UNL d   1     -41.505-122.686 -52.919  0.00  0.00     0.082 A 
ATOM      3  C   UNL d   1     -41.827-121.964 -53.109  0.00  0.00     0.020 A 
ATOM      4  C   UNL d   1     -41.975-121.761 -53.895  0.00  0.00     0.015 A 
ATOM      5  C   UNL d   1     -41.788-122.307 -54.483  0.00  0.00     0.107 A 
ATOM      6  C   UNL d   1     -41.466-123.029 -54.294  0.00  0.00     0.015 A 
ATOM      7  C   UNL d   1     -41.318-123.233 -53.508  0.00  0.00     0.020 A 
BRANCH   5   8
ATOM      8  S   UNL d   1     -41.935-122.107 -55.280  0.00  0.00     0.302 S 
ATOM      9  O   UNL d   1     -41.124-122.175 -55.443  0.00  0.00    -0.197 OA
ATOM     10  O   UNL d   1     -42.069-121.909 -56.073  0.00  0.00    -0.197 OA
ATOM     11  N   UNL d   1     -42.737-122.039 -55.117  0.00  0.00    -0.043 N 
ENDBRANCH   5   8
ENDBRANCH   1   2
BRANCH   1  12
ATOM     12  C   UNL d   1     -41.482-122.350 -51.532  0.00  0.00     0.099 C 
BRANCH  12  13
ATOM     13  C   UNL d   1     -41.600-122.595 -50.751  0.00  0.00     0.019 A 
ATOM     14  C   UNL d   1     -41.129-123.223 -50.460  0.00  0.00     0.003 A 
ATOM     15  C   UNL d   1     -41.247-123.469 -49.678  0.00  0.00     0.024 A 
ATOM     16  C   UNL d   1     -41.822-123.101 -49.189  0.00  0.00     0.127 A 
ATOM     17  C   UNL d   1     -42.269-122.494 -49.491  0.00  0.00     0.024 A 
ATOM     18  C   UNL d   1     -42.175-122.227 -50.262  0.00  0.00     0.003 A 
BRANCH  16  19
ATOM     19  N   UNL d   1     -41.951-123.334 -48.409  0.00  0.00    -0.114 N 
ATOM     20  O   UNL d   1     -42.608-123.818 -48.228  0.00  0.00    -0.532 OA
ATOM     21  O   UNL d   1     -41.427-123.087 -47.815  0.00  0.00    -0.532 OA
ENDBRANCH  16  19
ENDBRANCH  12  13
ENDBRANCH   1  12
TORSDOF 5
ENDMDL
