MODEL 1
REMARK VINA RESULT:      -8.5      0.000      0.000
REMARK  5 active torsions:
REMARK  status: ('A' for Active; 'I' for Inactive)
REMARK    1  A    between atoms: C_12  and  N_1 
REMARK    2  A    between atoms: S_9  and  C_2 
REMARK       I    between atoms: N_7  and  C_10 
REMARK    3  A    between atoms: C_19  and  N_8 
REMARK    4  A    between atoms: C_14  and  S_9 
REMARK    5  A    between atoms: C_10  and  C_14 
ROOT
ATOM      1  N   UNL d   1      53.248  32.412  53.818  0.00  0.00    -0.254 N 
ATOM      2  C   UNL d   1      52.830  33.099  53.636  0.00  0.00     0.182 A 
ATOM      3  C   UNL d   1      53.879  32.442  54.349  0.00  0.00     0.274 A 
ATOM      4  C   UNL d   1      54.088  33.156  54.696  0.00  0.00     0.104 A 
ATOM      5  N   UNL d   1      53.042  33.816  53.985  0.00  0.00    -0.222 NA
ATOM      6  C   UNL d   1      53.670  33.843  54.514  0.00  0.00     0.095 A 
ATOM      7  S   UNL d   1      54.678  33.355  55.235  0.00  0.00    -0.080 SA
ATOM      8  O   UNL d   1      54.297  31.754  54.532  0.00  0.00    -0.266 OA
ATOM      9  C   UNL d   1      54.002  34.467  54.940  0.00  0.00     0.027 A 
ATOM     10  C   UNL d   1      54.620  34.168  55.382  0.00  0.00     0.037 A 
ENDROOT
BRANCH   2  11
ATOM     11  S   UNL d   1      52.191  33.074  53.099  0.00  0.00    -0.044 SA
BRANCH  11  12
ATOM     12  C   UNL d   1      51.646  33.694  53.085  0.00  0.00     0.099 C 
BRANCH  12  13
ATOM     13  C   UNL d   1      51.204  33.839  52.403  0.00  0.00     0.272 C 
ATOM     14  N   UNL d   1      50.498  34.263  52.451  0.00  0.00    -0.269 N 
ATOM     15  C   UNL d   1      50.234  34.542  53.182  0.00  0.00     0.102 A 
ATOM     16  C   UNL d   1      50.056  34.408  51.769  0.00  0.00     0.102 A 
ATOM     17  C   UNL d   1      49.530  34.962  53.221  0.00  0.00     0.100 A 
ATOM     18  N   UNL d   1      49.089  35.108  52.548  0.00  0.00    -0.301 N 
ATOM     19  C   UNL d   1      49.353  34.829  51.817  0.00  0.00     0.100 A 
ATOM     20  O   UNL d   1      51.469  33.560  51.672  0.00  0.00    -0.266 OA
BRANCH  18  21
ATOM     21  C   UNL d   1      48.383  35.531  52.596  0.00  0.00     0.064 A 
ATOM     22  C   UNL d   1      47.855  35.528  51.961  0.00  0.00     0.018 A 
ATOM     23  C   UNL d   1      47.149  35.951  52.010  0.00  0.00     0.002 A 
ATOM     24  C   UNL d   1      46.970  36.378  52.693  0.00  0.00     0.000 A 
ATOM     25  C   UNL d   1      47.498  36.382  53.328  0.00  0.00     0.002 A 
ATOM     26  C   UNL d   1      48.204  35.959  53.279  0.00  0.00     0.018 A 
ENDBRANCH  18  21
ENDBRANCH  12  13
ENDBRANCH  11  12
ENDBRANCH   2  11
BRANCH   1  27
ATOM     27  C   UNL d   1      53.041  31.700  53.474  0.00  0.00     0.069 A 
ATOM     28  C   UNL d   1      52.442  31.237  53.803  0.00  0.00     0.018 A 
ATOM     29  C   UNL d   1      52.235  30.519  53.453  0.00  0.00     0.002 A 
ATOM     30  C   UNL d   1      52.628  30.263  52.773  0.00  0.00     0.000 A 
ATOM     31  C   UNL d   1      53.227  30.725  52.444  0.00  0.00     0.002 A 
ATOM     32  C   UNL d   1      53.433  31.443  52.794  0.00  0.00     0.018 A 
ENDBRANCH   1  27
TORSDOF 5
ENDMDL
MODEL 2
REMARK VINA RESULT:      -8.4      1.061      2.586
REMARK  5 active torsions:
REMARK  status: ('A' for Active; 'I' for Inactive)
REMARK    1  A    between atoms: C_12  and  N_1 
REMARK    2  A    between atoms: S_9  and  C_2 
REMARK       I    between atoms: N_7  and  C_10 
REMARK    3  A    between atoms: C_19  and  N_8 
REMARK    4  A    between atoms: C_14  and  S_9 
REMARK    5  A    between atoms: C_10  and  C_14 
ROOT
ATOM      1  N   UNL d   1      53.600  32.093  53.778  0.00  0.00    -0.254 N 
ATOM      2  C   UNL d   1      52.884  32.349  53.459  0.00  0.00     0.182 A 
ATOM      3  C   UNL d   1      53.801  31.293  53.751  0.00  0.00     0.274 A 
ATOM      4  C   UNL d   1      53.288  30.753  53.406  0.00  0.00     0.104 A 
ATOM      5  N   UNL d   1      52.369  31.804  53.112  0.00  0.00    -0.222 NA
ATOM      6  C   UNL d   1      52.572  31.009  53.086  0.00  0.00     0.095 A 
ATOM      7  S   UNL d   1      53.335  29.938  53.299  0.00  0.00    -0.080 SA
ATOM      8  O   UNL d   1      54.518  31.037  54.071  0.00  0.00    -0.266 OA
ATOM      9  C   UNL d   1      52.177  30.352  52.782  0.00  0.00     0.027 A 
ATOM     10  C   UNL d   1      52.645  29.695  52.912  0.00  0.00     0.037 A 
ENDROOT
BRANCH   2  11
ATOM     11  S   UNL d   1      52.675  33.156  53.483  0.00  0.00    -0.044 SA
BRANCH  11  12
ATOM     12  C   UNL d   1      52.014  33.420  53.064  0.00  0.00     0.099 C 
BRANCH  12  13
ATOM     13  C   UNL d   1      51.543  34.022  53.374  0.00  0.00     0.272 C 
ATOM     14  N   UNL d   1      50.850  34.246  52.985  0.00  0.00    -0.269 N 
ATOM     15  C   UNL d   1      50.630  33.866  52.286  0.00  0.00     0.102 A 
ATOM     16  C   UNL d   1      50.379  34.848  53.295  0.00  0.00     0.102 A 
ATOM     17  C   UNL d   1      49.939  34.095  51.905  0.00  0.00     0.100 A 
ATOM     18  N   UNL d   1      49.469  34.691  52.209  0.00  0.00    -0.301 N 
ATOM     19  C   UNL d   1      49.690  35.070  52.908  0.00  0.00     0.100 A 
ATOM     20  O   UNL d   1      51.764  34.401  54.073  0.00  0.00    -0.266 OA
BRANCH  18  21
ATOM     21  C   UNL d   1      48.777  34.914  51.820  0.00  0.00     0.064 A 
ATOM     22  C   UNL d   1      48.241  35.421  52.190  0.00  0.00     0.018 A 
ATOM     23  C   UNL d   1      47.548  35.644  51.801  0.00  0.00     0.002 A 
ATOM     24  C   UNL d   1      47.392  35.360  51.042  0.00  0.00     0.000 A 
ATOM     25  C   UNL d   1      47.928  34.854  50.672  0.00  0.00     0.002 A 
ATOM     26  C   UNL d   1      48.620  34.630  51.061  0.00  0.00     0.018 A 
ENDBRANCH  18  21
ENDBRANCH  12  13
ENDBRANCH  11  12
ENDBRANCH   2  11
BRANCH   1  27
ATOM     27  C   UNL d   1      54.112  32.629  54.122  0.00  0.00     0.069 A 
ATOM     28  C   UNL d   1      54.680  33.014  53.665  0.00  0.00     0.018 A 
ATOM     29  C   UNL d   1      55.196  33.555  54.016  0.00  0.00     0.002 A 
ATOM     30  C   UNL d   1      55.143  33.710  54.825  0.00  0.00     0.000 A 
ATOM     31  C   UNL d   1      54.575  33.325  55.283  0.00  0.00     0.002 A 
ATOM     32  C   UNL d   1      54.060  32.784  54.931  0.00  0.00     0.018 A 
ENDBRANCH   1  27
TORSDOF 5
ENDMDL
MODEL 3
REMARK VINA RESULT:      -7.7      0.966      2.467
REMARK  5 active torsions:
REMARK  status: ('A' for Active; 'I' for Inactive)
REMARK    1  A    between atoms: C_12  and  N_1 
REMARK    2  A    between atoms: S_9  and  C_2 
REMARK       I    between atoms: N_7  and  C_10 
REMARK    3  A    between atoms: C_19  and  N_8 
REMARK    4  A    between atoms: C_14  and  S_9 
REMARK    5  A    between atoms: C_10  and  C_14 
ROOT
ATOM      1  N   UNL d   1      52.898  33.414  53.609  0.00  0.00    -0.254 N 
ATOM      2  C   UNL d   1      52.278  33.268  53.085  0.00  0.00     0.182 A 
ATOM      3  C   UNL d   1      53.392  32.797  53.846  0.00  0.00     0.274 A 
ATOM      4  C   UNL d   1      53.266  32.038  53.559  0.00  0.00     0.104 A 
ATOM      5  N   UNL d   1      52.152  32.504  52.798  0.00  0.00    -0.222 NA
ATOM      6  C   UNL d   1      52.645  31.892  53.035  0.00  0.00     0.095 A 
ATOM      7  S   UNL d   1      53.657  31.326  53.692  0.00  0.00    -0.080 SA
ATOM      8  O   UNL d   1      54.012  32.944  54.369  0.00  0.00    -0.266 OA
ATOM      9  C   UNL d   1      52.654  31.089  52.845  0.00  0.00     0.027 A 
ATOM     10  C   UNL d   1      53.274  30.742  53.247  0.00  0.00     0.037 A 
ENDROOT
BRANCH   2  11
ATOM     11  S   UNL d   1      51.775  33.888  52.842  0.00  0.00    -0.044 SA
BRANCH  11  12
ATOM     12  C   UNL d   1      50.974  33.737  52.714  0.00  0.00     0.099 C 
BRANCH  12  13
ATOM     13  C   UNL d   1      50.581  34.099  52.085  0.00  0.00     0.272 C 
ATOM     14  N   UNL d   1      49.889  34.527  52.222  0.00  0.00    -0.269 N 
ATOM     15  C   UNL d   1      49.589  34.592  52.988  0.00  0.00     0.102 A 
ATOM     16  C   UNL d   1      49.496  34.889  51.592  0.00  0.00     0.102 A 
ATOM     17  C   UNL d   1      48.900  35.020  53.116  0.00  0.00     0.100 A 
ATOM     18  N   UNL d   1      48.509  35.380  52.495  0.00  0.00    -0.301 N 
ATOM     19  C   UNL d   1      48.808  35.315  51.729  0.00  0.00     0.100 A 
ATOM     20  O   UNL d   1      50.881  34.034  51.318  0.00  0.00    -0.266 OA
BRANCH  18  21
ATOM     21  C   UNL d   1      47.817  35.807  52.632  0.00  0.00     0.064 A 
ATOM     22  C   UNL d   1      47.749  36.279  53.307  0.00  0.00     0.018 A 
ATOM     23  C   UNL d   1      47.057  36.706  53.444  0.00  0.00     0.002 A 
ATOM     24  C   UNL d   1      46.432  36.663  52.906  0.00  0.00     0.000 A 
ATOM     25  C   UNL d   1      46.499  36.192  52.232  0.00  0.00     0.002 A 
ATOM     26  C   UNL d   1      47.191  35.764  52.095  0.00  0.00     0.018 A 
ENDBRANCH  18  21
ENDBRANCH  12  13
ENDBRANCH  11  12
ENDBRANCH   2  11
BRANCH   1  27
ATOM     27  C   UNL d   1      53.026  34.169  53.895  0.00  0.00     0.069 A 
ATOM     28  C   UNL d   1      53.430  34.724  53.438  0.00  0.00     0.018 A 
ATOM     29  C   UNL d   1      53.558  35.486  53.730  0.00  0.00     0.002 A 
ATOM     30  C   UNL d   1      53.280  35.692  54.479  0.00  0.00     0.000 A 
ATOM     31  C   UNL d   1      52.876  35.137  54.937  0.00  0.00     0.002 A 
ATOM     32  C   UNL d   1      52.749  34.376  54.644  0.00  0.00     0.018 A 
ENDBRANCH   1  27
TORSDOF 5
ENDMDL
