MODEL 1
REMARK VINA RESULT:       1.0      0.000      0.000
REMARK  5 active torsions:
REMARK  status: ('A' for Active; 'I' for Inactive)
REMARK    1  A    between atoms: C_9  and  N_1 
REMARK    2  A    between atoms: C_8  and  C_3 
REMARK       I    between atoms: N_12  and  C_8 
REMARK    3  A    between atoms: C_21  and  C_9 
REMARK    4  A    between atoms: C_20  and  N_12 
REMARK    5  A    between atoms: C_13  and  C_20 
ROOT
ATOM      1  N   UNL d   1      31.891  17.135 -24.140  0.00  0.00    -0.273 N 
ATOM      2  C   UNL d   1      32.442  17.734 -24.061  0.00  0.00     0.177 A 
ATOM      3  C   UNL d   1      32.054  18.455 -24.219  0.00  0.00     0.115 A 
ATOM      4  C   UNL d   1      31.168  17.464 -24.343  0.00  0.00     0.167 A 
ATOM      5  C   UNL d   1      31.269  18.284 -24.393  0.00  0.00     0.123 A 
ATOM      6  N   UNL d   1      30.420  17.131 -24.493  0.00  0.00    -0.225 NA
ATOM      7  N   UNL d   1      30.622  18.770 -24.592  0.00  0.00    -0.241 NA
ATOM      8  C   UNL d   1      29.782  17.615 -24.690  0.00  0.00     0.101 A 
ATOM      9  C   UNL d   1      29.884  18.434 -24.739  0.00  0.00     0.099 A 
ATOM     10  N   UNL d   1      33.240  17.647 -23.862  0.00  0.00    -0.128 N 
ATOM     11  C   UNL d   1      29.246  18.919 -24.936  0.00  0.00     0.021 A 
ATOM     12  C   UNL d   1      29.043  17.280 -24.837  0.00  0.00     0.021 A 
ATOM     13  C   UNL d   1      28.505  18.584 -25.084  0.00  0.00     0.002 A 
ATOM     14  C   UNL d   1      28.404  17.764 -25.035  0.00  0.00     0.002 A 
ENDROOT
BRANCH   3  15
ATOM     15  C   UNL d   1      32.399  19.209 -24.204  0.00  0.00     0.284 C 
ATOM     16  N   UNL d   1      32.459  19.622 -23.494  0.00  0.00    -0.204 NA
ATOM     17  O   UNL d   1      32.684  19.544 -24.909  0.00  0.00    -0.265 OA
BRANCH  16  18
ATOM     18  C   UNL d   1      32.807  20.379 -23.486  0.00  0.00     0.127 C 
BRANCH  18  19
ATOM     19  C   UNL d   1      32.772  20.840 -22.799  0.00  0.00     0.119 A 
ATOM     20  O   UNL d   1      32.321  20.671 -22.126  0.00  0.00    -0.304 OA
ATOM     21  C   UNL d   1      32.455  21.273 -21.586  0.00  0.00     0.123 A 
ATOM     22  C   UNL d   1      32.990  21.814 -21.926  0.00  0.00     0.029 A 
ATOM     23  C   UNL d   1      33.179  21.541 -22.669  0.00  0.00     0.028 A 
ENDBRANCH  18  19
ENDBRANCH  16  18
ENDBRANCH   3  15
BRANCH   1  24
ATOM     24  C   UNL d   1      32.042  16.317 -24.030  0.00  0.00     0.083 C 
BRANCH  24  25
ATOM     25  C   UNL d   1      32.244  16.030 -23.284  0.00  0.00     0.018 A 
ATOM     26  C   UNL d   1      31.661  15.902 -22.721  0.00  0.00     0.002 A 
ATOM     27  C   UNL d   1      31.865  15.613 -21.972  0.00  0.00     0.000 A 
ATOM     28  C   UNL d   1      32.650  15.453 -21.788  0.00  0.00     0.000 A 
ATOM     29  C   UNL d   1      33.239  15.583 -22.359  0.00  0.00     0.000 A 
ATOM     30  C   UNL d   1      33.035  15.872 -23.108  0.00  0.00     0.002 A 
ENDBRANCH  24  25
ENDBRANCH   1  24
TORSDOF 5
ENDMDL
MODEL 2
REMARK VINA RESULT:       1.0      2.173      4.411
REMARK  5 active torsions:
REMARK  status: ('A' for Active; 'I' for Inactive)
REMARK    1  A    between atoms: C_9  and  N_1 
REMARK    2  A    between atoms: C_8  and  C_3 
REMARK       I    between atoms: N_12  and  C_8 
REMARK    3  A    between atoms: C_21  and  C_9 
REMARK    4  A    between atoms: C_20  and  N_12 
REMARK    5  A    between atoms: C_13  and  C_20 
ROOT
ATOM      1  N   UNL d   1      33.092  20.591 -23.762  0.00  0.00    -0.273 N 
ATOM      2  C   UNL d   1      33.093  20.960 -23.032  0.00  0.00     0.177 A 
ATOM      3  C   UNL d   1      32.919  20.381 -22.458  0.00  0.00     0.115 A 
ATOM      4  C   UNL d   1      32.921  19.796 -23.657  0.00  0.00     0.167 A 
ATOM      5  C   UNL d   1      32.814  19.665 -22.848  0.00  0.00     0.123 A 
ATOM      6  N   UNL d   1      32.847  19.162 -24.191  0.00  0.00    -0.225 NA
ATOM      7  N   UNL d   1      32.633  18.900 -22.572  0.00  0.00    -0.241 NA
ATOM      8  C   UNL d   1      32.667  18.406 -23.915  0.00  0.00     0.101 A 
ATOM      9  C   UNL d   1      32.560  18.276 -23.105  0.00  0.00     0.099 A 
ATOM     10  N   UNL d   1      33.240  21.760 -22.883  0.00  0.00    -0.128 N 
ATOM     11  C   UNL d   1      32.380  17.519 -22.828  0.00  0.00     0.021 A 
ATOM     12  C   UNL d   1      32.594  17.781 -24.448  0.00  0.00     0.021 A 
ATOM     13  C   UNL d   1      32.307  16.893 -23.362  0.00  0.00     0.002 A 
ATOM     14  C   UNL d   1      32.414  17.024 -24.172  0.00  0.00     0.002 A 
ENDROOT
BRANCH   3  15
ATOM     15  C   UNL d   1      32.863  20.506 -21.639  0.00  0.00     0.284 C 
ATOM     16  N   UNL d   1      32.557  21.214 -21.350  0.00  0.00    -0.204 NA
ATOM     17  O   UNL d   1      33.116  19.913 -21.116  0.00  0.00    -0.265 OA
BRANCH  16  18
ATOM     18  C   UNL d   1      32.504  21.332 -20.527  0.00  0.00     0.127 C 
BRANCH  18  19
ATOM     19  C   UNL d   1      32.429  22.101 -20.226  0.00  0.00     0.119 A 
ATOM     20  O   UNL d   1      31.827  22.637 -20.414  0.00  0.00    -0.304 OA
ATOM     21  C   UNL d   1      31.973  23.324 -19.992  0.00  0.00     0.123 A 
ATOM     22  C   UNL d   1      32.666  23.211 -19.542  0.00  0.00     0.029 A 
ATOM     23  C   UNL d   1      32.938  22.460 -19.692  0.00  0.00     0.028 A 
ENDBRANCH  18  19
ENDBRANCH  16  18
ENDBRANCH   3  15
BRANCH   1  24
ATOM     24  C   UNL d   1      33.241  20.967 -24.497  0.00  0.00     0.083 C 
BRANCH  24  25
ATOM     25  C   UNL d   1      32.843  21.661 -24.695  0.00  0.00     0.018 A 
ATOM     26  C   UNL d   1      33.241  22.379 -24.693  0.00  0.00     0.002 A 
ATOM     27  C   UNL d   1      32.840  23.076 -24.892  0.00  0.00     0.000 A 
ATOM     28  C   UNL d   1      32.045  23.054 -25.094  0.00  0.00     0.000 A 
ATOM     29  C   UNL d   1      31.642  22.328 -25.096  0.00  0.00     0.000 A 
ATOM     30  C   UNL d   1      32.043  21.630 -24.896  0.00  0.00     0.002 A 
ENDBRANCH  24  25
ENDBRANCH   1  24
TORSDOF 5
ENDMDL
MODEL 3
REMARK VINA RESULT:       2.6      2.173      6.098
REMARK  5 active torsions:
REMARK  status: ('A' for Active; 'I' for Inactive)
REMARK    1  A    between atoms: C_9  and  N_1 
REMARK    2  A    between atoms: C_8  and  C_3 
REMARK       I    between atoms: N_12  and  C_8 
REMARK    3  A    between atoms: C_21  and  C_9 
REMARK    4  A    between atoms: C_20  and  N_12 
REMARK    5  A    between atoms: C_13  and  C_20 
ROOT
ATOM      1  N   UNL d   1      33.217  22.041 -22.125  0.00  0.00    -0.273 N 
ATOM      2  C   UNL d   1      33.195  21.295 -22.458  0.00  0.00     0.177 A 
ATOM      3  C   UNL d   1      33.176  20.742 -21.835  0.00  0.00     0.115 A 
ATOM      4  C   UNL d   1      33.213  21.967 -21.308  0.00  0.00     0.167 A 
ATOM      5  C   UNL d   1      33.187  21.161 -21.128  0.00  0.00     0.123 A 
ATOM      6  N   UNL d   1      33.229  22.528 -20.693  0.00  0.00    -0.225 NA
ATOM      7  N   UNL d   1      33.177  20.914 -20.332  0.00  0.00    -0.241 NA
ATOM      8  C   UNL d   1      33.219  22.280 -19.907  0.00  0.00     0.101 A 
ATOM      9  C   UNL d   1      33.193  21.473 -19.727  0.00  0.00     0.099 A 
ATOM     10  N   UNL d   1      33.191  21.115 -23.265  0.00  0.00    -0.128 N 
ATOM     11  C   UNL d   1      33.183  21.225 -18.939  0.00  0.00     0.021 A 
ATOM     12  C   UNL d   1      33.235  22.839 -19.300  0.00  0.00     0.021 A 
ATOM     13  C   UNL d   1      33.199  21.785 -18.332  0.00  0.00     0.002 A 
ATOM     14  C   UNL d   1      33.225  22.591 -18.512  0.00  0.00     0.002 A 
ENDROOT
BRANCH   3  15
ATOM     15  C   UNL d   1      33.150  19.916 -21.915  0.00  0.00     0.284 C 
ATOM     16  N   UNL d   1      33.160  19.573 -22.664  0.00  0.00    -0.204 NA
ATOM     17  O   UNL d   1      33.114  19.439 -21.236  0.00  0.00    -0.265 OA
BRANCH  16  18
ATOM     18  C   UNL d   1      33.134  18.744 -22.736  0.00  0.00     0.127 C 
BRANCH  18  19
ATOM     19  C   UNL d   1      32.699  18.398 -23.351  0.00  0.00     0.119 A 
ATOM     20  O   UNL d   1      32.016  18.713 -23.695  0.00  0.00    -0.304 OA
ATOM     21  C   UNL d   1      31.774  18.190 -24.277  0.00  0.00     0.123 A 
ATOM     22  C   UNL d   1      32.309  17.551 -24.292  0.00  0.00     0.029 A 
ATOM     23  C   UNL d   1      32.872  17.687 -23.722  0.00  0.00     0.028 A 
ENDBRANCH  18  19
ENDBRANCH  16  18
ENDBRANCH   3  15
BRANCH   1  24
ATOM     24  C   UNL d   1      33.241  22.763 -22.551  0.00  0.00     0.083 C 
BRANCH  24  25
ATOM     25  C   UNL d   1      32.550  23.076 -22.875  0.00  0.00     0.018 A 
ATOM     26  C   UNL d   1      31.887  23.185 -22.405  0.00  0.00     0.002 A 
ATOM     27  C   UNL d   1      31.194  23.499 -22.732  0.00  0.00     0.000 A 
ATOM     28  C   UNL d   1      31.165  23.702 -23.527  0.00  0.00     0.000 A 
ATOM     29  C   UNL d   1      31.837  23.592 -24.002  0.00  0.00     0.000 A 
ATOM     30  C   UNL d   1      32.530  23.278 -23.675  0.00  0.00     0.002 A 
ENDBRANCH  24  25
ENDBRANCH   1  24
TORSDOF 5
ENDMDL
