MODEL 1
REMARK VINA RESULT:      74.9      0.000      0.000
REMARK  4 active torsions:
REMARK  status: ('A' for Active; 'I' for Inactive)
REMARK    1  A    between atoms: C_5  and  N_1 
REMARK    2  A    between atoms: C_7  and  C_3 
REMARK    3  A    between atoms: C_8  and  C_4 
REMARK    4  A    between atoms: N_10  and  C_5 
ROOT
ATOM      1  N   UNL d   1     -47.990  29.549  35.126  0.00  0.00    -0.203 N 
ATOM      2  N   UNL d   1     -48.355  28.816  35.005  0.00  0.00    -0.163 NA
ATOM      3  C   UNL d   1     -48.880  28.867  34.395  0.00  0.00     0.103 A 
ATOM      4  C   UNL d   1     -48.297  30.088  34.568  0.00  0.00     0.087 A 
ATOM      5  C   UNL d   1     -48.849  29.672  34.112  0.00  0.00     0.040 A 
ENDROOT
BRANCH   3   6
ATOM      6  C   UNL d   1     -49.351  28.240  34.113  0.00  0.00     0.019 A 
ATOM      7  C   UNL d   1     -49.961  28.377  33.577  0.00  0.00     0.002 A 
ATOM      8  C   UNL d   1     -50.422  27.735  33.306  0.00  0.00     0.000 A 
ATOM      9  C   UNL d   1     -50.267  26.977  33.573  0.00  0.00     0.000 A 
ATOM     10  C   UNL d   1     -49.652  26.858  34.110  0.00  0.00     0.000 A 
ATOM     11  C   UNL d   1     -50.683  26.492  33.312  0.00  0.00     0.000 C 
ATOM     12  C   UNL d   1     -49.202  27.477  34.376  0.00  0.00     0.002 A 
ENDBRANCH   3   6
BRANCH   1  13
ATOM     13  C   UNL d   1     -47.408  29.729  35.709  0.00  0.00     0.222 C 
ATOM     14  S   UNL d   1     -46.591  29.607  35.524  0.00  0.00    -0.037 SA
BRANCH  13  15
ATOM     15  N   UNL d   1     -47.623  30.028  36.471  0.00  0.00    -0.214 NA
ATOM     16  C   UNL d   1     -47.123  29.900  37.123  0.00  0.00     0.122 C 
ENDBRANCH  13  15
ENDBRANCH   1  13
BRANCH   4  17
ATOM     17  C   UNL d   1     -48.111  30.887  34.462  0.00  0.00     0.018 A 
ATOM     18  C   UNL d   1     -47.331  31.141  34.451  0.00  0.00     0.002 A 
ATOM     19  C   UNL d   1     -47.147  31.936  34.346  0.00  0.00     0.011 A 
ATOM     20  C   UNL d   1     -47.752  32.484  34.250  0.00  0.00     0.058 A 
ATOM     21  C   UNL d   1     -48.520  32.248  34.258  0.00  0.00     0.011 A 
ATOM     22 CL   UNL d   1     -47.543  33.290  34.143  0.00  0.00    -0.082 Cl
ATOM     23  C   UNL d   1     -48.706  31.449  34.364  0.00  0.00     0.002 A 
ENDBRANCH   4  17
TORSDOF 4
ENDMDL
MODEL 2
REMARK VINA RESULT:      75.9      2.855      5.062
REMARK  4 active torsions:
REMARK  status: ('A' for Active; 'I' for Inactive)
REMARK    1  A    between atoms: C_5  and  N_1 
REMARK    2  A    between atoms: C_7  and  C_3 
REMARK    3  A    between atoms: C_8  and  C_4 
REMARK    4  A    between atoms: N_10  and  C_5 
ROOT
ATOM      1  N   UNL d   1     -49.470  26.569  33.893  0.00  0.00    -0.203 N 
ATOM      2  N   UNL d   1     -48.853  27.038  34.186  0.00  0.00    -0.163 NA
ATOM      3  C   UNL d   1     -49.150  27.711  34.516  0.00  0.00     0.103 A 
ATOM      4  C   UNL d   1     -50.190  26.963  34.046  0.00  0.00     0.087 A 
ATOM      5  C   UNL d   1     -49.999  27.671  34.431  0.00  0.00     0.040 A 
ENDROOT
BRANCH   3   6
ATOM      6  C   UNL d   1     -48.695  28.315  34.867  0.00  0.00     0.019 A 
ATOM      7  C   UNL d   1     -48.527  29.009  34.458  0.00  0.00     0.002 A 
ATOM      8  C   UNL d   1     -48.069  29.603  34.828  0.00  0.00     0.000 A 
ATOM      9  C   UNL d   1     -47.793  29.493  35.590  0.00  0.00     0.000 A 
ATOM     10  C   UNL d   1     -47.972  28.791  35.985  0.00  0.00     0.000 A 
ATOM     11  C   UNL d   1     -47.422  30.020  35.838  0.00  0.00     0.000 C 
ATOM     12  C   UNL d   1     -48.414  28.212  35.632  0.00  0.00     0.002 A 
ENDBRANCH   3   6
BRANCH   1  13
ATOM     13  C   UNL d   1     -49.394  25.824  33.508  0.00  0.00     0.222 C 
ATOM     14  S   UNL d   1     -50.095  25.393  33.306  0.00  0.00    -0.037 SA
BRANCH  13  15
ATOM     15  N   UNL d   1     -48.636  25.498  33.320  0.00  0.00    -0.214 NA
ATOM     16  C   UNL d   1     -48.408  24.764  33.639  0.00  0.00     0.122 C 
ENDBRANCH  13  15
ENDBRANCH   1  13
BRANCH   4  17
ATOM     17  C   UNL d   1     -50.960  26.724  33.863  0.00  0.00     0.018 A 
ATOM     18  C   UNL d   1     -51.223  25.970  34.046  0.00  0.00     0.002 A 
ATOM     19  C   UNL d   1     -51.990  25.733  33.863  0.00  0.00     0.011 A 
ATOM     20  C   UNL d   1     -52.499  26.260  33.491  0.00  0.00     0.058 A 
ATOM     21  C   UNL d   1     -52.254  27.002  33.306  0.00  0.00     0.011 A 
ATOM     22 CL   UNL d   1     -53.277  25.999  33.313  0.00  0.00    -0.082 Cl
ATOM     23  C   UNL d   1     -51.484  27.241  33.489  0.00  0.00     0.002 A 
ENDBRANCH   4  17
TORSDOF 4
ENDMDL
