MODEL 1
REMARK VINA RESULT:      -6.7      0.000      0.000
REMARK  5 active torsions:
REMARK  status: ('A' for Active; 'I' for Inactive)
REMARK    1  A    between atoms: N_2  and  S_1 
REMARK    2  A    between atoms: C_3  and  S_1 
REMARK    3  A    between atoms: C_13  and  N_2 
REMARK       I    between atoms: C_6  and  N_7 
REMARK    4  A    between atoms: N_7  and  C_14 
REMARK    5  A    between atoms: C_12  and  C_13 
ROOT
ATOM      1  S   UNL d   1     -48.255  13.180  22.882  0.00  0.00     0.285 S 
ATOM      2  O   UNL d   1     -48.814  12.714  23.279  0.00  0.00    -0.198 OA
ATOM      3  O   UNL d   1     -47.672  13.639  22.484  0.00  0.00    -0.198 OA
ENDROOT
BRANCH   1   4
ATOM      4  N   UNL d   1     -48.835  13.723  22.684  0.00  0.00    -0.157 NA
BRANCH   4   5
ATOM      5  C   UNL d   1     -48.909  14.427  23.131  0.00  0.00     0.114 C 
BRANCH   5   6
ATOM      6  C   UNL d   1     -49.599  14.856  23.066  0.00  0.00     0.039 A 
ATOM      7  C   UNL d   1     -50.086  14.784  22.409  0.00  0.00     0.101 A 
ATOM      8  N   UNL d   1     -50.786  15.239  22.375  0.00  0.00    -0.242 NA
ATOM      9  C   UNL d   1     -50.997  15.760  22.989  0.00  0.00     0.099 A 
ATOM     10  C   UNL d   1     -50.493  15.824  23.651  0.00  0.00     0.021 A 
ATOM     11  C   UNL d   1     -49.810  15.384  23.689  0.00  0.00     0.005 A 
ENDBRANCH   5   6
ENDBRANCH   4   5
ENDBRANCH   1   4
BRANCH   1  12
ATOM     12  C   UNL d   1     -47.651  12.614  23.088  0.00  0.00     0.105 A 
ATOM     13  C   UNL d   1     -47.742  11.814  22.886  0.00  0.00     0.015 A 
ATOM     14  C   UNL d   1     -47.165  11.269  23.082  0.00  0.00     0.020 A 
ATOM     15  C   UNL d   1     -46.482  11.534  23.490  0.00  0.00     0.085 A 
ATOM     16  C   UNL d   1     -46.398  12.321  23.685  0.00  0.00     0.020 A 
ATOM     17  C   UNL d   1     -46.989  12.868  23.482  0.00  0.00     0.015 A 
BRANCH  15  18
ATOM     18  N   UNL d   1     -45.880  10.983  23.697  0.00  0.00    -0.208 NA
ATOM     19  C   UNL d   1     -45.104  11.074  23.371  0.00  0.00     0.279 C 
ATOM     20  O   UNL d   1     -44.943  11.707  22.848  0.00  0.00    -0.265 OA
ATOM     21  C   UNL d   1     -44.523  10.549  23.565  0.00  0.00     0.068 C 
ENDBRANCH  15  18
ENDBRANCH   1  12
TORSDOF 5
ENDMDL
MODEL 2
REMARK VINA RESULT:      -6.7      1.910      5.175
REMARK  5 active torsions:
REMARK  status: ('A' for Active; 'I' for Inactive)
REMARK    1  A    between atoms: N_2  and  S_1 
REMARK    2  A    between atoms: C_3  and  S_1 
REMARK    3  A    between atoms: C_13  and  N_2 
REMARK       I    between atoms: C_6  and  N_7 
REMARK    4  A    between atoms: N_7  and  C_14 
REMARK    5  A    between atoms: C_12  and  C_13 
ROOT
ATOM      1  S   UNL d   1     -46.420  13.604  22.747  0.00  0.00     0.285 S 
ATOM      2  O   UNL d   1     -46.590  13.293  21.997  0.00  0.00    -0.198 OA
ATOM      3  O   UNL d   1     -46.269  13.926  23.510  0.00  0.00    -0.198 OA
ENDROOT
BRANCH   1   4
ATOM      4  N   UNL d   1     -45.646  13.343  22.691  0.00  0.00    -0.157 NA
BRANCH   4   5
ATOM      5  C   UNL d   1     -45.381  12.992  21.979  0.00  0.00     0.114 C 
BRANCH   5   6
ATOM      6  C   UNL d   1     -44.611  12.729  21.941  0.00  0.00     0.039 A 
ATOM      7  C   UNL d   1     -44.351  12.102  22.403  0.00  0.00     0.101 A 
ATOM      8  N   UNL d   1     -43.554  11.857  22.339  0.00  0.00    -0.242 NA
ATOM      9  C   UNL d   1     -43.024  12.234  21.819  0.00  0.00     0.099 A 
ATOM     10  C   UNL d   1     -43.301  12.870  21.355  0.00  0.00     0.021 A 
ATOM     11  C   UNL d   1     -44.075  13.112  21.414  0.00  0.00     0.005 A 
ENDBRANCH   5   6
ENDBRANCH   4   5
ENDBRANCH   1   4
BRANCH   1  12
ATOM     12  C   UNL d   1     -47.227  13.876  22.807  0.00  0.00     0.105 A 
ATOM     13  C   UNL d   1     -47.428  14.643  22.563  0.00  0.00     0.015 A 
ATOM     14  C   UNL d   1     -48.199  14.907  22.618  0.00  0.00     0.020 A 
ATOM     15  C   UNL d   1     -48.782  14.387  22.926  0.00  0.00     0.085 A 
ATOM     16  C   UNL d   1     -48.578  13.635  23.164  0.00  0.00     0.020 A 
ATOM     17  C   UNL d   1     -47.791  13.375  23.104  0.00  0.00     0.015 A 
BRANCH  15  18
ATOM     18  N   UNL d   1     -49.580  14.647  22.988  0.00  0.00    -0.208 NA
ATOM     19  C   UNL d   1     -50.123  14.473  22.361  0.00  0.00     0.279 C 
ATOM     20  O   UNL d   1     -49.862  14.047  21.691  0.00  0.00    -0.265 OA
ATOM     21  C   UNL d   1     -50.889  14.719  22.415  0.00  0.00     0.068 C 
ENDBRANCH  15  18
ENDBRANCH   1  12
TORSDOF 5
ENDMDL
MODEL 3
REMARK VINA RESULT:      -6.1      2.054      2.466
REMARK  5 active torsions:
REMARK  status: ('A' for Active; 'I' for Inactive)
REMARK    1  A    between atoms: N_2  and  S_1 
REMARK    2  A    between atoms: C_3  and  S_1 
REMARK    3  A    between atoms: C_13  and  N_2 
REMARK       I    between atoms: C_6  and  N_7 
REMARK    4  A    between atoms: N_7  and  C_14 
REMARK    5  A    between atoms: C_12  and  C_13 
ROOT
ATOM      1  S   UNL d   1     -47.459  13.106  22.912  0.00  0.00     0.285 S 
ATOM      2  O   UNL d   1     -47.599  13.898  22.709  0.00  0.00    -0.198 OA
ATOM      3  O   UNL d   1     -47.295  12.304  23.110  0.00  0.00    -0.198 OA
ENDROOT
BRANCH   1   4
ATOM      4  N   UNL d   1     -48.219  13.037  23.208  0.00  0.00    -0.157 NA
BRANCH   4   5
ATOM      5  C   UNL d   1     -48.838  12.799  22.698  0.00  0.00     0.114 C 
BRANCH   5   6
ATOM      6  C   UNL d   1     -49.575  12.666  23.020  0.00  0.00     0.039 A 
ATOM      7  C   UNL d   1     -50.156  13.247  23.010  0.00  0.00     0.101 A 
ATOM      8  N   UNL d   1     -50.901  13.077  23.349  0.00  0.00    -0.242 NA
ATOM      9  C   UNL d   1     -51.064  12.337  23.694  0.00  0.00     0.099 A 
ATOM     10  C   UNL d   1     -50.465  11.755  23.698  0.00  0.00     0.021 A 
ATOM     11  C   UNL d   1     -49.738  11.916  23.369  0.00  0.00     0.005 A 
ENDBRANCH   5   6
ENDBRANCH   4   5
ENDBRANCH   1   4
BRANCH   1  12
ATOM     12  C   UNL d   1     -46.666  13.178  22.604  0.00  0.00     0.105 A 
ATOM     13  C   UNL d   1     -46.113  13.666  22.985  0.00  0.00     0.015 A 
ATOM     14  C   UNL d   1     -45.353  13.737  22.693  0.00  0.00     0.020 A 
ATOM     15  C   UNL d   1     -45.145  13.309  22.002  0.00  0.00     0.085 A 
ATOM     16  C   UNL d   1     -45.692  12.832  21.633  0.00  0.00     0.020 A 
ATOM     17  C   UNL d   1     -46.463  12.765  21.937  0.00  0.00     0.015 A 
BRANCH  15  18
ATOM     18  N   UNL d   1     -44.365  13.374  21.691  0.00  0.00    -0.208 NA
ATOM     19  C   UNL d   1     -43.821  12.733  21.797  0.00  0.00     0.279 C 
ATOM     20  O   UNL d   1     -44.063  12.046  22.208  0.00  0.00    -0.265 OA
ATOM     21  C   UNL d   1     -43.073  12.789  21.502  0.00  0.00     0.068 C 
ENDBRANCH  15  18
ENDBRANCH   1  12
TORSDOF 5
ENDMDL
MODEL 4
REMARK VINA RESULT:      -4.6      8.635      9.328
REMARK  5 active torsions:
REMARK  status: ('A' for Active; 'I' for Inactive)
REMARK    1  A    between atoms: N_2  and  S_1 
REMARK    2  A    between atoms: C_3  and  S_1 
REMARK    3  A    between atoms: C_13  and  N_2 
REMARK       I    between atoms: C_6  and  N_7 
REMARK    4  A    between atoms: N_7  and  C_14 
REMARK    5  A    between atoms: C_12  and  C_13 
ROOT
ATOM      1  S   UNL d   1     -40.115  15.086  19.853  0.00  0.00     0.285 S 
ATOM      2  O   UNL d   1     -40.096  15.867  20.130  0.00  0.00    -0.198 OA
ATOM      3  O   UNL d   1     -40.126  14.285  19.591  0.00  0.00    -0.198 OA
ENDROOT
BRANCH   1   4
ATOM      4  N   UNL d   1     -40.421  15.337  19.136  0.00  0.00    -0.157 NA
BRANCH   4   5
ATOM      5  C   UNL d   1     -40.176  14.961  18.430  0.00  0.00     0.114 C 
BRANCH   5   6
ATOM      6  C   UNL d   1     -40.427  15.272  17.719  0.00  0.00     0.039 A 
ATOM      7  C   UNL d   1     -41.220  15.265  17.507  0.00  0.00     0.101 A 
ATOM      8  N   UNL d   1     -41.442  15.592  16.771  0.00  0.00    -0.242 NA
ATOM      9  C   UNL d   1     -40.880  15.922  16.253  0.00  0.00     0.099 A 
ATOM     10  C   UNL d   1     -40.076  15.922  16.481  0.00  0.00     0.021 A 
ATOM     11  C   UNL d   1     -39.855  15.605  17.196  0.00  0.00     0.005 A 
ENDBRANCH   5   6
ENDBRANCH   4   5
ENDBRANCH   1   4
BRANCH   1  12
ATOM     12  C   UNL d   1     -39.796  14.823  20.600  0.00  0.00     0.105 A 
ATOM     13  C   UNL d   1     -39.051  15.088  20.851  0.00  0.00     0.015 A 
ATOM     14  C   UNL d   1     -38.742  14.839  21.566  0.00  0.00     0.020 A 
ATOM     15  C   UNL d   1     -39.192  14.311  22.037  0.00  0.00     0.085 A 
ATOM     16  C   UNL d   1     -39.923  14.055  21.785  0.00  0.00     0.020 A 
ATOM     17  C   UNL d   1     -40.229  14.313  21.057  0.00  0.00     0.015 A 
BRANCH  15  18
ATOM     18  N   UNL d   1     -38.885  14.047  22.776  0.00  0.00    -0.208 NA
ATOM     19  C   UNL d   1     -38.410  13.346  22.800  0.00  0.00     0.279 C 
ATOM     20  O   UNL d   1     -38.251  12.926  22.095  0.00  0.00    -0.265 OA
ATOM     21  C   UNL d   1     -38.113  13.087  23.504  0.00  0.00     0.068 C 
ENDBRANCH  15  18
ENDBRANCH   1  12
TORSDOF 5
ENDMDL
MODEL 5
REMARK VINA RESULT:      -4.4      9.551     10.544
REMARK  5 active torsions:
REMARK  status: ('A' for Active; 'I' for Inactive)
REMARK    1  A    between atoms: N_2  and  S_1 
REMARK    2  A    between atoms: C_3  and  S_1 
REMARK    3  A    between atoms: C_13  and  N_2 
REMARK       I    between atoms: C_6  and  N_7 
REMARK    4  A    between atoms: N_7  and  C_14 
REMARK    5  A    between atoms: C_12  and  C_13 
ROOT
ATOM      1  S   UNL d   1     -39.249  14.937  19.496  0.00  0.00     0.285 S 
ATOM      2  O   UNL d   1     -39.061  14.138  19.618  0.00  0.00    -0.198 OA
ATOM      3  O   UNL d   1     -39.438  15.744  19.350  0.00  0.00    -0.198 OA
ENDROOT
BRANCH   1   4
ATOM      4  N   UNL d   1     -39.354  15.045  20.300  0.00  0.00    -0.157 NA
BRANCH   4   5
ATOM      5  C   UNL d   1     -38.684  15.109  20.797  0.00  0.00     0.114 C 
BRANCH   5   6
ATOM      6  C   UNL d   1     -38.803  15.204  21.598  0.00  0.00     0.039 A 
ATOM      7  C   UNL d   1     -39.205  15.855  21.895  0.00  0.00     0.101 A 
ATOM      8  N   UNL d   1     -39.310  15.922  22.722  0.00  0.00    -0.242 NA
ATOM      9  C   UNL d   1     -39.017  15.345  23.245  0.00  0.00     0.099 A 
ATOM     10  C   UNL d   1     -38.610  14.687  22.930  0.00  0.00     0.021 A 
ATOM     11  C   UNL d   1     -38.505  14.618  22.127  0.00  0.00     0.005 A 
ENDBRANCH   5   6
ENDBRANCH   4   5
ENDBRANCH   1   4
BRANCH   1  12
ATOM     12  C   UNL d   1     -39.141  14.824  18.657  0.00  0.00     0.105 A 
ATOM     13  C   UNL d   1     -39.730  14.454  18.206  0.00  0.00     0.015 A 
ATOM     14  C   UNL d   1     -39.630  14.344  17.402  0.00  0.00     0.020 A 
ATOM     15  C   UNL d   1     -38.920  14.613  17.044  0.00  0.00     0.085 A 
ATOM     16  C   UNL d   1     -38.345  14.976  17.492  0.00  0.00     0.020 A 
ATOM     17  C   UNL d   1     -38.455  15.083  18.309  0.00  0.00     0.015 A 
BRANCH  15  18
ATOM     18  N   UNL d   1     -38.804  14.506  16.217  0.00  0.00    -0.208 NA
ATOM     19  C   UNL d   1     -38.343  13.850  15.944  0.00  0.00     0.279 C 
ATOM     20  O   UNL d   1     -38.009  13.318  16.496  0.00  0.00    -0.265 OA
ATOM     21  C   UNL d   1     -38.228  13.742  15.153  0.00  0.00     0.068 C 
ENDBRANCH  15  18
ENDBRANCH   1  12
TORSDOF 5
ENDMDL
MODEL 6
REMARK VINA RESULT:      -4.4      9.274     10.686
REMARK  5 active torsions:
REMARK  status: ('A' for Active; 'I' for Inactive)
REMARK    1  A    between atoms: N_2  and  S_1 
REMARK    2  A    between atoms: C_3  and  S_1 
REMARK    3  A    between atoms: C_13  and  N_2 
REMARK       I    between atoms: C_6  and  N_7 
REMARK    4  A    between atoms: N_7  and  C_14 
REMARK    5  A    between atoms: C_12  and  C_13 
ROOT
ATOM      1  S   UNL d   1     -39.197  14.858  19.145  0.00  0.00     0.285 S 
ATOM      2  O   UNL d   1     -40.016  14.972  19.084  0.00  0.00    -0.198 OA
ATOM      3  O   UNL d   1     -38.366  14.747  19.230  0.00  0.00    -0.198 OA
ENDROOT
BRANCH   1   4
ATOM      4  N   UNL d   1     -39.146  14.716  18.340  0.00  0.00    -0.157 NA
BRANCH   4   5
ATOM      5  C   UNL d   1     -38.402  14.544  17.999  0.00  0.00     0.114 C 
BRANCH   5   6
ATOM      6  C   UNL d   1     -38.366  14.405  17.197  0.00  0.00     0.039 A 
ATOM      7  C   UNL d   1     -38.424  15.018  16.655  0.00  0.00     0.101 A 
ATOM      8  N   UNL d   1     -38.384  14.840  15.839  0.00  0.00    -0.242 NA
ATOM      9  C   UNL d   1     -38.287  14.059  15.568  0.00  0.00     0.099 A 
ATOM     10  C   UNL d   1     -38.229  13.444  16.131  0.00  0.00     0.021 A 
ATOM     11  C   UNL d   1     -38.268  13.612  16.925  0.00  0.00     0.005 A 
ENDBRANCH   5   6
ENDBRANCH   4   5
ENDBRANCH   1   4
BRANCH   1  12
ATOM     12  C   UNL d   1     -39.249  15.006  19.984  0.00  0.00     0.105 A 
ATOM     13  C   UNL d   1     -39.153  15.776  20.278  0.00  0.00     0.015 A 
ATOM     14  C   UNL d   1     -39.202  15.922  21.081  0.00  0.00     0.020 A 
ATOM     15  C   UNL d   1     -39.351  15.279  21.599  0.00  0.00     0.085 A 
ATOM     16  C   UNL d   1     -39.445  14.526  21.304  0.00  0.00     0.020 A 
ATOM     17  C   UNL d   1     -39.393  14.387  20.486  0.00  0.00     0.015 A 
BRANCH  15  18
ATOM     18  N   UNL d   1     -39.404  15.416  22.428  0.00  0.00    -0.208 NA
ATOM     19  C   UNL d   1     -38.704  15.369  22.902  0.00  0.00     0.279 C 
ATOM     20  O   UNL d   1     -37.970  15.188  22.544  0.00  0.00    -0.265 OA
ATOM     21  C   UNL d   1     -38.748  15.499  23.697  0.00  0.00     0.068 C 
ENDBRANCH  15  18
ENDBRANCH   1  12
TORSDOF 5
ENDMDL
