MODEL 1
REMARK VINA RESULT:      -4.1      0.000      0.000
REMARK  5 active torsions:
REMARK  status: ('A' for Active; 'I' for Inactive)
REMARK    1  A    between atoms: N_5  and  C_1 
REMARK    2  A    between atoms: C_8  and  C_2 
REMARK       I    between atoms: C_6  and  N_5 
REMARK    3  A    between atoms: C_9  and  C_6 
REMARK    4  A    between atoms: O_12  and  C_8 
REMARK    5  A    between atoms: C_17  and  O_12 
ROOT
ATOM      1  C   UNL d   1      57.903   0.310  30.670  0.00  0.00     0.114 A 
ATOM      2  C   UNL d   1      58.939   0.189  29.852  0.00  0.00     0.094 A 
ATOM      3  S   UNL d   1      58.691   0.086  30.610  0.00  0.00    -0.062 SA
ATOM      4  C   UNL d   1      58.273   0.488  29.436  0.00  0.00     0.013 A 
ATOM      5  C   UNL d   1      57.671   0.554  29.928  0.00  0.00     0.026 A 
ATOM      6  C   UNL d   1      58.254   0.682  28.634  0.00  0.00     0.001 C 
ENDROOT
BRANCH   1   7
ATOM      7  N   UNL d   1      57.410   0.294  31.370  0.00  0.00    -0.205 NA
ATOM      8  C   UNL d   1      57.011  -0.391  31.567  0.00  0.00     0.255 C 
ATOM      9  O   UNL d   1      57.073  -1.061  31.108  0.00  0.00    -0.270 OA
BRANCH   8  10
ATOM     10  C   UNL d   1      56.542  -0.410  32.232  0.00  0.00     0.073 C 
ATOM     11  C   UNL d   1      56.214   0.310  32.636  0.00  0.00     0.009 C 
ATOM     12  C   UNL d   1      56.316  -1.149  32.612  0.00  0.00     0.009 C 
ATOM     13  C   UNL d   1      56.133  -0.442  32.813  0.00  0.00     0.009 C 
ENDBRANCH   8  10
ENDBRANCH   1   7
BRANCH   2  14
ATOM     14  C   UNL d   1      59.694   0.034  29.541  0.00  0.00     0.306 C 
ATOM     15  O   UNL d   1      60.209   0.658  29.450  0.00  0.00    -0.258 OA
BRANCH  14  16
ATOM     16  O   UNL d   1      59.924  -0.719  29.330  0.00  0.00    -0.271 OA
BRANCH  16  17
ATOM     17  C   UNL d   1      60.702  -0.873  29.120  0.00  0.00     0.126 C 
ATOM     18  C   UNL d   1      60.920  -1.649  28.947  0.00  0.00     0.029 C 
ENDBRANCH  16  17
ENDBRANCH  14  16
ENDBRANCH   2  14
TORSDOF 5
ENDMDL
MODEL 2
REMARK VINA RESULT:      -4.0      1.193      1.450
REMARK  5 active torsions:
REMARK  status: ('A' for Active; 'I' for Inactive)
REMARK    1  A    between atoms: N_5  and  C_1 
REMARK    2  A    between atoms: C_8  and  C_2 
REMARK       I    between atoms: C_6  and  N_5 
REMARK    3  A    between atoms: C_9  and  C_6 
REMARK    4  A    between atoms: O_12  and  C_8 
REMARK    5  A    between atoms: C_17  and  O_12 
ROOT
ATOM      1  C   UNL d   1      57.363   0.373  31.416  0.00  0.00     0.114 A 
ATOM      2  C   UNL d   1      58.117   0.037  30.378  0.00  0.00     0.094 A 
ATOM      3  S   UNL d   1      57.379  -0.018  30.693  0.00  0.00    -0.062 SA
ATOM      4  C   UNL d   1      58.567   0.479  30.933  0.00  0.00     0.013 A 
ATOM      5  C   UNL d   1      58.112   0.671  31.538  0.00  0.00     0.026 A 
ATOM      6  C   UNL d   1      59.363   0.682  30.855  0.00  0.00     0.001 C 
ENDROOT
BRANCH   1   7
ATOM      7  N   UNL d   1      56.697   0.458  31.946  0.00  0.00    -0.205 NA
ATOM      8  C   UNL d   1      56.472  -0.173  32.415  0.00  0.00     0.255 C 
ATOM      9  O   UNL d   1      56.871  -0.882  32.387  0.00  0.00    -0.270 OA
BRANCH   8  10
ATOM     10  C   UNL d   1      55.838  -0.096  32.921  0.00  0.00     0.073 C 
ATOM     11  C   UNL d   1      55.479   0.680  33.162  0.00  0.00     0.009 C 
ATOM     12  C   UNL d   1      55.450  -0.777  33.275  0.00  0.00     0.009 C 
ATOM     13  C   UNL d   1      55.284  -0.044  33.364  0.00  0.00     0.009 C 
ENDBRANCH   8  10
ENDBRANCH   1   7
BRANCH   2  14
ATOM     14  C   UNL d   1      58.383  -0.277  29.656  0.00  0.00     0.306 C 
ATOM     15  O   UNL d   1      58.359   0.199  28.997  0.00  0.00    -0.258 OA
BRANCH  14  16
ATOM     16  O   UNL d   1      58.662  -1.041  29.597  0.00  0.00    -0.271 OA
BRANCH  16  17
ATOM     17  C   UNL d   1      58.871  -1.353  28.868  0.00  0.00     0.126 C 
ATOM     18  C   UNL d   1      59.052  -2.155  28.817  0.00  0.00     0.029 C 
ENDBRANCH  16  17
ENDBRANCH  14  16
ENDBRANCH   2  14
TORSDOF 5
ENDMDL
MODEL 3
REMARK VINA RESULT:      -4.0      1.824      4.803
REMARK  5 active torsions:
REMARK  status: ('A' for Active; 'I' for Inactive)
REMARK    1  A    between atoms: N_5  and  C_1 
REMARK    2  A    between atoms: C_8  and  C_2 
REMARK       I    between atoms: C_6  and  N_5 
REMARK    3  A    between atoms: C_9  and  C_6 
REMARK    4  A    between atoms: O_12  and  C_8 
REMARK    5  A    between atoms: C_17  and  O_12 
ROOT
ATOM      1  C   UNL d   1      56.861   0.071  32.076  0.00  0.00     0.114 A 
ATOM      2  C   UNL d   1      55.966   0.027  33.053  0.00  0.00     0.094 A 
ATOM      3  S   UNL d   1      56.432   0.517  32.617  0.00  0.00    -0.062 SA
ATOM      4  C   UNL d   1      56.120  -0.746  32.766  0.00  0.00     0.013 A 
ATOM      5  C   UNL d   1      56.648  -0.707  32.191  0.00  0.00     0.026 A 
ATOM      6  C   UNL d   1      55.772  -1.442  33.042  0.00  0.00     0.001 C 
ENDROOT
BRANCH   1   7
ATOM      7  N   UNL d   1      57.426   0.357  31.499  0.00  0.00    -0.205 NA
ATOM      8  C   UNL d   1      57.673  -0.138  30.898  0.00  0.00     0.255 C 
ATOM      9  O   UNL d   1      57.392  -0.900  30.838  0.00  0.00    -0.270 OA
BRANCH   8  10
ATOM     10  C   UNL d   1      58.210   0.130  30.348  0.00  0.00     0.073 C 
ATOM     11  C   UNL d   1      58.213  -0.107  29.492  0.00  0.00     0.009 C 
ATOM     12  C   UNL d   1      58.838   0.682  30.553  0.00  0.00     0.009 C 
ATOM     13  C   UNL d   1      58.685   0.373  29.878  0.00  0.00     0.009 C 
ENDBRANCH   8  10
ENDBRANCH   1   7
BRANCH   2  14
ATOM     14  C   UNL d   1      55.442   0.239  33.663  0.00  0.00     0.306 C 
ATOM     15  O   UNL d   1      54.643   0.199  33.514  0.00  0.00    -0.258 OA
BRANCH  14  16
ATOM     16  O   UNL d   1      55.709   0.481  34.394  0.00  0.00    -0.271 OA
BRANCH  16  17
ATOM     17  C   UNL d   1      55.178   0.674  34.988  0.00  0.00     0.126 C 
ATOM     18  C   UNL d   1      55.442   0.682  35.769  0.00  0.00     0.029 C 
ENDBRANCH  16  17
ENDBRANCH  14  16
ENDBRANCH   2  14
TORSDOF 5
ENDMDL
MODEL 4
REMARK VINA RESULT:      -2.8      1.720      3.938
REMARK  5 active torsions:
REMARK  status: ('A' for Active; 'I' for Inactive)
REMARK    1  A    between atoms: N_5  and  C_1 
REMARK    2  A    between atoms: C_8  and  C_2 
REMARK       I    between atoms: C_6  and  N_5 
REMARK    3  A    between atoms: C_9  and  C_6 
REMARK    4  A    between atoms: O_12  and  C_8 
REMARK    5  A    between atoms: C_17  and  O_12 
ROOT
ATOM      1  C   UNL d   1      58.818  -1.128  29.538  0.00  0.00     0.114 A 
ATOM      2  C   UNL d   1      58.062  -0.391  30.340  0.00  0.00     0.094 A 
ATOM      3  S   UNL d   1      58.497  -1.065  30.292  0.00  0.00    -0.062 SA
ATOM      4  C   UNL d   1      58.123  -0.029  29.585  0.00  0.00     0.013 A 
ATOM      5  C   UNL d   1      58.570  -0.472  29.123  0.00  0.00     0.026 A 
ATOM      6  C   UNL d   1      57.768   0.682  29.361  0.00  0.00     0.001 C 
ENDROOT
BRANCH   1   7
ATOM      7  N   UNL d   1      59.318  -1.754  29.236  0.00  0.00    -0.205 NA
ATOM      8  C   UNL d   1      58.987  -2.475  29.041  0.00  0.00     0.255 C 
ATOM      9  O   UNL d   1      58.188  -2.609  29.129  0.00  0.00    -0.270 OA
BRANCH   8  10
ATOM     10  C   UNL d   1      59.459  -3.073  28.753  0.00  0.00     0.073 C 
ATOM     11  C   UNL d   1      60.338  -3.010  28.643  0.00  0.00     0.009 C 
ATOM     12  C   UNL d   1      59.139  -3.838  28.525  0.00  0.00     0.009 C 
ATOM     13  C   UNL d   1      59.858  -3.604  28.501  0.00  0.00     0.009 C 
ENDBRANCH   8  10
ENDBRANCH   1   7
BRANCH   2  14
ATOM     14  C   UNL d   1      57.640  -0.107  30.998  0.00  0.00     0.306 C 
ATOM     15  O   UNL d   1      57.845   0.620  31.302  0.00  0.00    -0.258 OA
BRANCH  14  16
ATOM     16  O   UNL d   1      57.037  -0.536  31.338  0.00  0.00    -0.271 OA
BRANCH  16  17
ATOM     17  C   UNL d   1      56.677  -0.276  32.027  0.00  0.00     0.126 C 
ATOM     18  C   UNL d   1      56.227  -0.808  32.466  0.00  0.00     0.029 C 
ENDBRANCH  16  17
ENDBRANCH  14  16
ENDBRANCH   2  14
TORSDOF 5
ENDMDL
MODEL 5
REMARK VINA RESULT:      -2.0      9.692     10.078
REMARK  5 active torsions:
REMARK  status: ('A' for Active; 'I' for Inactive)
REMARK    1  A    between atoms: N_5  and  C_1 
REMARK    2  A    between atoms: C_8  and  C_2 
REMARK       I    between atoms: C_6  and  N_5 
REMARK    3  A    between atoms: C_9  and  C_6 
REMARK    4  A    between atoms: O_12  and  C_8 
REMARK    5  A    between atoms: C_17  and  O_12 
ROOT
ATOM      1  C   UNL d   1      59.725  -9.741  33.434  0.00  0.00     0.114 A 
ATOM      2  C   UNL d   1      59.387  -9.750  32.152  0.00  0.00     0.094 A 
ATOM      3  S   UNL d   1      59.102  -9.804  32.901  0.00  0.00    -0.062 SA
ATOM      4  C   UNL d   1      60.217  -9.650  32.233  0.00  0.00     0.013 A 
ATOM      5  C   UNL d   1      60.403  -9.647  32.991  0.00  0.00     0.026 A 
ATOM      6  C   UNL d   1      60.756  -9.568  31.613  0.00  0.00     0.001 C 
ENDROOT
BRANCH   1   7
ATOM      7  N   UNL d   1      59.683  -9.768  34.288  0.00  0.00    -0.205 NA
ATOM      8  C   UNL d   1      59.798  -9.084  34.719  0.00  0.00     0.255 C 
ATOM      9  O   UNL d   1      59.952  -8.374  34.350  0.00  0.00    -0.270 OA
BRANCH   8  10
ATOM     10  C   UNL d   1      59.759  -9.105  35.532  0.00  0.00     0.073 C 
ATOM     11  C   UNL d   1      59.386  -8.475  36.034  0.00  0.00     0.009 C 
ATOM     12  C   UNL d   1      60.085  -9.759  35.988  0.00  0.00     0.009 C 
ATOM     13  C   UNL d   1      59.732  -9.138  36.242  0.00  0.00     0.009 C 
ENDBRANCH   8  10
ENDBRANCH   1   7
BRANCH   2  14
ATOM     14  C   UNL d   1      58.955  -9.785  31.442  0.00  0.00     0.306 C 
ATOM     15  O   UNL d   1      59.367  -9.817  30.741  0.00  0.00    -0.258 OA
BRANCH  14  16
ATOM     16  O   UNL d   1      58.140  -9.787  31.437  0.00  0.00    -0.271 OA
BRANCH  16  17
ATOM     17  C   UNL d   1      57.728  -9.728  30.730  0.00  0.00     0.126 C 
ATOM     18  C   UNL d   1      56.904  -9.722  30.750  0.00  0.00     0.029 C 
ENDBRANCH  16  17
ENDBRANCH  14  16
ENDBRANCH   2  14
TORSDOF 5
ENDMDL
