MODEL 1
REMARK VINA RESULT:      26.8      0.000      0.000
REMARK  4 active torsions:
REMARK  status: ('A' for Active; 'I' for Inactive)
REMARK    1  A    between atoms: C_7  and  N_2 
REMARK    2  A    between atoms: C_10  and  C_7 
REMARK    3  A    between atoms: O_8  and  C_10 
REMARK    4  A    between atoms: C_9  and  O_8 
ROOT
ATOM      1  C   UNL d   1     -58.372 -98.859 -43.760  0.00  0.00     0.296 A 
ATOM      2  N   UNL d   1     -57.941 -98.804 -44.460  0.00  0.00    -0.266 N 
ATOM      3  S   UNL d   1     -59.184 -98.896 -43.964  0.00  0.00    -0.025 SA
ATOM      4  C   UNL d   1     -58.476 -98.807 -45.093  0.00  0.00     0.074 A 
ATOM      5  C   UNL d   1     -59.237 -98.863 -44.790  0.00  0.00     0.050 A 
ATOM      6  O   UNL d   1     -58.067 -98.875 -42.998  0.00  0.00    -0.259 OA
ATOM      7  C   UNL d   1     -58.355 -98.765 -45.910  0.00  0.00     0.018 A 
ATOM      8  C   UNL d   1     -59.894 -98.878 -45.297  0.00  0.00     0.008 A 
ATOM      9  C   UNL d   1     -59.006 -98.779 -46.419  0.00  0.00     0.002 A 
ATOM     10  C   UNL d   1     -59.767 -98.835 -46.116  0.00  0.00     0.001 A 
ENDROOT
BRANCH   2  11
ATOM     11  C   UNL d   1     -57.120 -98.755 -44.520  0.00  0.00     0.110 C 
BRANCH  11  12
ATOM     12  C   UNL d   1     -56.646 -99.384 -44.279  0.00  0.00     0.142 C 
BRANCH  12  13
ATOM     13  O   UNL d   1     -55.937 -99.557 -44.669  0.00  0.00    -0.304 OA
BRANCH  13  14
ATOM     14  C   UNL d   1     -55.529-100.254 -44.502  0.00  0.00     0.100 A 
ATOM     15  C   UNL d   1     -55.453-100.509 -43.721  0.00  0.00     0.025 A 
ATOM     16  C   UNL d   1     -55.047-101.203 -43.556  0.00  0.00     0.002 A 
ATOM     17  C   UNL d   1     -54.718-101.642 -44.172  0.00  0.00     0.000 A 
ATOM     18  C   UNL d   1     -54.796-101.384 -44.955  0.00  0.00     0.002 A 
ATOM     19  C   UNL d   1     -55.205-100.687 -45.111  0.00  0.00     0.025 A 
ENDBRANCH  13  14
ENDBRANCH  12  13
ENDBRANCH  11  12
ENDBRANCH   2  11
TORSDOF 4
ENDMDL
