MODEL 1
REMARK VINA RESULT:      11.1      0.000      0.000
REMARK  1 active torsions:
REMARK  status: ('A' for Active; 'I' for Inactive)
REMARK    1  A    between atoms: C_7  and  C_3 
ROOT
ATOM      1  C   UNL d   1      45.636 -15.152  36.599  0.00  0.00     0.179 A 
ATOM      2  N   UNL d   1      45.023 -15.614  36.348  0.00  0.00    -0.221 NA
ATOM      3  C   UNL d   1      44.320 -15.334  36.679  0.00  0.00     0.101 A 
ATOM      4  N   UNL d   1      45.324 -14.580  37.089  0.00  0.00    -0.282 N 
ATOM      5  C   UNL d   1      44.513 -14.703  37.129  0.00  0.00     0.101 A 
ATOM      6  S   UNL d   1      46.455 -15.016  36.567  0.00  0.00    -0.048 SA
ATOM      7  C   UNL d   1      45.948 -14.095  37.355  0.00  0.00     0.089 A 
ATOM      8  C   UNL d   1      46.643 -14.349  37.045  0.00  0.00     0.057 A 
ENDROOT
BRANCH   3   9
ATOM      9  C   UNL d   1      43.548 -15.615  36.593  0.00  0.00     0.019 A 
ATOM     10  C   UNL d   1      43.399 -16.407  36.436  0.00  0.00     0.002 A 
ATOM     11  C   UNL d   1      42.624 -16.691  36.349  0.00  0.00     0.011 A 
ATOM     12  C   UNL d   1      42.007 -16.187  36.419  0.00  0.00     0.058 A 
ATOM     13  C   UNL d   1      42.139 -15.364  36.581  0.00  0.00     0.011 A 
ATOM     14 CL   UNL d   1      41.218 -16.475  36.331  0.00  0.00    -0.082 Cl
ATOM     15  C   UNL d   1      42.916 -15.090  36.666  0.00  0.00     0.002 A 
ENDBRANCH   3   9
TORSDOF 1
ENDMDL
