MODEL 1
REMARK VINA RESULT:      18.8      0.000      0.000
REMARK  7 active torsions:
REMARK  status: ('A' for Active; 'I' for Inactive)
REMARK    1  A    between atoms: N_10  and  C_4 
REMARK    2  A    between atoms: C_16  and  N_5 
REMARK    3  A    between atoms: C_18  and  N_11 
REMARK    4  A    between atoms: C_22  and  C_16 
REMARK    5  A    between atoms: C_21  and  C_18 
REMARK    6  A    between atoms: C_24  and  C_22 
REMARK    7  A    between atoms: C_23  and  C_24 
ROOT
ATOM      1  C   UNL d   1     -42.491-122.855 -54.377  0.00  0.00     0.191 A 
ATOM      2  C   UNL d   1     -42.042-122.167 -54.310  0.00  0.00     0.174 A 
ATOM      3  N   UNL d   1     -42.533-123.214 -53.635  0.00  0.00    -0.042 NA
ATOM      4  C   UNL d   1     -42.103-122.733 -53.116  0.00  0.00     0.722 A 
ATOM      5  N   UNL d   1     -41.798-122.088 -53.525  0.00  0.00    -0.132 N 
ATOM      6  N   UNL d   1     -42.812-123.078 -55.110  0.00  0.00    -0.239 N 
ATOM      7  C   UNL d   1     -42.676-122.595 -55.791  0.00  0.00     0.358 A 
ATOM      8  N   UNL d   1     -42.227-121.907 -55.723  0.00  0.00    -0.152 NA
ATOM      9  C   UNL d   1     -41.906-121.691 -54.974  0.00  0.00     0.303 A 
ATOM     10  O   UNL d   1     -43.000-122.814 -56.544  0.00  0.00    -0.244 OA
ATOM     11  O   UNL d   1     -41.453-120.996 -54.906  0.00  0.00    -0.263 OA
ATOM     12  C   UNL d   1     -43.261-123.765 -55.178  0.00  0.00     0.105 C 
ENDROOT
BRANCH   4  13
ATOM     13  N   UNL d   1     -41.997-122.881 -52.308  0.00  0.00    -0.136 N 
ATOM     14  C   UNL d   1     -42.653-122.923 -51.807  0.00  0.00     0.117 A 
ATOM     15  C   UNL d   1     -42.547-123.071 -51.003  0.00  0.00     0.100 A 
ATOM     16  N   UNL d   1     -41.790-123.176 -50.699  0.00  0.00    -0.300 N 
ATOM     17  C   UNL d   1     -41.124-123.136 -51.193  0.00  0.00     0.100 A 
ATOM     18  C   UNL d   1     -41.231-122.987 -52.005  0.00  0.00     0.117 A 
BRANCH  16  19
ATOM     19  C   UNL d   1     -41.291-123.322 -50.062  0.00  0.00     0.080 C 
BRANCH  19  20
ATOM     20  C   UNL d   1     -41.600-123.392 -49.305  0.00  0.00     0.018 A 
ATOM     21  C   UNL d   1     -41.177-123.110 -48.666  0.00  0.00     0.002 A 
ATOM     22  C   UNL d   1     -41.484-123.178 -47.906  0.00  0.00     0.000 A 
ATOM     23  C   UNL d   1     -42.218-123.531 -47.790  0.00  0.00     0.000 A 
ATOM     24  C   UNL d   1     -42.643-123.815 -48.438  0.00  0.00     0.000 A 
ATOM     25  C   UNL d   1     -42.332-123.744 -49.192  0.00  0.00     0.002 A 
ENDBRANCH  19  20
ENDBRANCH  16  19
ENDBRANCH   4  13
BRANCH   5  26
ATOM     26  C   UNL d   1     -41.336-121.459 -53.252  0.00  0.00     0.098 C 
BRANCH  26  27
ATOM     27  C   UNL d   1     -41.643-120.937 -52.688  0.00  0.00     0.020 C 
BRANCH  27  28
ATOM     28  C   UNL d   1     -41.609-120.122 -52.822  0.00  0.00     0.002 C 
BRANCH  28  29
ATOM     29  C   UNL d   1     -41.449-119.609 -52.193  0.00  0.00     0.000 A 
ATOM     30  C   UNL d   1     -41.303-119.920 -51.451  0.00  0.00     0.000 A 
ATOM     31  C   UNL d   1     -41.141-119.413 -50.815  0.00  0.00     0.000 A 
ATOM     32  C   UNL d   1     -41.129-118.592 -50.939  0.00  0.00     0.000 A 
ATOM     33  C   UNL d   1     -41.278-118.283 -51.691  0.00  0.00     0.000 A 
ATOM     34  C   UNL d   1     -41.438-118.794 -52.321  0.00  0.00     0.000 A 
ENDBRANCH  28  29
ENDBRANCH  27  28
ENDBRANCH  26  27
ENDBRANCH   5  26
TORSDOF 7
ENDMDL
