MODEL 1
REMARK VINA RESULT:      43.0      0.000      0.000
REMARK  6 active torsions:
REMARK  status: ('A' for Active; 'I' for Inactive)
REMARK    1  A    between atoms: N_5  and  C_1 
REMARK    2  A    between atoms: N_14  and  C_3 
REMARK    3  A    between atoms: N_9  and  C_20 
REMARK    4  A    between atoms: C_22  and  N_14 
REMARK    5  A    between atoms: C_20  and  C_21 
REMARK    6  A    between atoms: C_21  and  C_22 
ROOT
ATOM      1  C   UNL d   1     -57.671 -98.790 -43.277  0.00  0.00     0.200 A 
ATOM      2  C   UNL d   1     -58.484 -98.807 -43.111  0.00  0.00     0.288 A 
ATOM      3  C   UNL d   1     -57.401 -98.773 -44.058  0.00  0.00     0.109 A 
ATOM      4  N   UNL d   1     -59.029 -98.807 -43.727  0.00  0.00    -0.270 N 
ATOM      5  C   UNL d   1     -57.956 -98.774 -44.672  0.00  0.00     0.036 A 
ATOM      6  C   UNL d   1     -58.765 -98.790 -44.512  0.00  0.00     0.069 A 
ATOM      7  O   UNL d   1     -58.745 -98.823 -42.332  0.00  0.00    -0.265 OA
ATOM      8  C   UNL d   1     -59.838 -98.823 -43.566  0.00  0.00     0.102 C 
ATOM      9  C   UNL d   1     -57.695 -98.757 -45.457  0.00  0.00     0.003 A 
ATOM     10  C   UNL d   1     -59.315 -98.790 -45.127  0.00  0.00     0.018 A 
ATOM     11  C   UNL d   1     -58.241 -98.757 -46.072  0.00  0.00     0.000 A 
ATOM     12  C   UNL d   1     -59.053 -98.774 -45.907  0.00  0.00     0.002 A 
ENDROOT
BRANCH   3  13
ATOM     13  N   UNL d   1     -56.594 -98.757 -44.223  0.00  0.00    -0.242 NA
BRANCH  13  14
ATOM     14  C   UNL d   1     -56.215 -99.433 -44.501  0.00  0.00     0.101 C 
BRANCH  14  15
ATOM     15  C   UNL d   1     -55.443 -99.382 -44.794  0.00  0.00     0.040 C 
BRANCH  15  16
ATOM     16  C   UNL d   1     -55.056-100.062 -45.051  0.00  0.00     0.083 C 
BRANCH  16  17
ATOM     17  N   UNL d   1     -55.093-100.757 -44.599  0.00  0.00    -0.285 N 
ATOM     18  C   UNL d   1     -54.808-100.849 -43.832  0.00  0.00     0.183 A 
ATOM     19  N   UNL d   1     -54.961-101.625 -43.601  0.00  0.00    -0.222 NA
ATOM     20  C   UNL d   1     -55.339-102.006 -44.225  0.00  0.00     0.120 A 
ATOM     21  C   UNL d   1     -55.421-101.474 -44.839  0.00  0.00     0.102 A 
ENDBRANCH  16  17
ENDBRANCH  15  16
ENDBRANCH  14  15
ENDBRANCH  13  14
ENDBRANCH   3  13
BRANCH   1  22
ATOM     22  N   UNL d   1     -57.128 -98.790 -42.653  0.00  0.00    -0.107 N 
ATOM     23  O   UNL d   1     -56.319 -98.757 -42.804  0.00  0.00    -0.531 OA
ATOM     24  O   UNL d   1     -57.403 -98.824 -41.871  0.00  0.00    -0.531 OA
ENDBRANCH   1  22
TORSDOF 6
ENDMDL
