MODEL 1
REMARK VINA RESULT:      -6.3      0.000      0.000
REMARK  5 active torsions:
REMARK  status: ('A' for Active; 'I' for Inactive)
REMARK    1  A    between atoms: C_4  and  S_1 
REMARK    2  A    between atoms: N_5  and  S_1 
REMARK       I    between atoms: N_2  and  C_3 
REMARK    3  A    between atoms: C_3  and  C_12 
REMARK    4  A    between atoms: C_19  and  N_5 
REMARK    5  A    between atoms: C_20  and  C_19 
ROOT
ATOM      1  C   UNL d   1     -48.982  12.555  22.967  0.00  0.00     0.057 A 
ATOM      2  C   UNL d   1     -48.655  12.318  23.689  0.00  0.00     0.005 A 
ATOM      3  C   UNL d   1     -48.608  12.362  22.262  0.00  0.00     0.005 A 
ATOM      4  C   UNL d   1     -47.576  11.692  22.994  0.00  0.00     0.020 A 
ATOM      5  C   UNL d   1     -47.957  11.890  23.697  0.00  0.00     0.002 A 
ATOM      6  C   UNL d   1     -47.906  11.931  22.277  0.00  0.00     0.002 A 
ENDROOT
BRANCH   4   7
ATOM      7  C   UNL d   1     -46.875  11.261  23.005  0.00  0.00     0.112 C 
BRANCH   7   8
ATOM      8  N   UNL d   1     -46.306  11.415  23.590  0.00  0.00    -0.157 NA
BRANCH   8   9
ATOM      9  S   UNL d   1     -45.546  11.082  23.523  0.00  0.00     0.285 S 
ATOM     10  O   UNL d   1     -45.212  11.842  23.480  0.00  0.00    -0.198 OA
ATOM     11  O   UNL d   1     -45.879  10.315  23.565  0.00  0.00    -0.198 OA
BRANCH   9  12
ATOM     12  C   UNL d   1     -44.785  10.743  23.455  0.00  0.00     0.106 A 
ATOM     13  C   UNL d   1     -44.165  11.179  23.152  0.00  0.00     0.024 A 
ATOM     14  C   UNL d   1     -43.417  10.843  23.087  0.00  0.00     0.059 A 
ATOM     15 CL   UNL d   1     -42.785  11.278  22.781  0.00  0.00    -0.082 Cl
ATOM     16  C   UNL d   1     -43.290  10.063  23.328  0.00  0.00     0.011 A 
ATOM     17  C   UNL d   1     -43.917   9.630  23.632  0.00  0.00     0.002 A 
ATOM     18  C   UNL d   1     -44.670   9.968  23.698  0.00  0.00     0.013 A 
ENDBRANCH   9  12
ENDBRANCH   8   9
ENDBRANCH   7   8
ENDBRANCH   4   7
BRANCH   1  19
ATOM     19  C   UNL d   1     -49.695  12.994  22.951  0.00  0.00     0.265 C 
ATOM     20  N   UNL d   1     -49.672  13.816  22.846  0.00  0.00    -0.268 N 
ATOM     21  C   UNL d   1     -48.945  14.201  22.758  0.00  0.00     0.108 A 
ATOM     22  C   UNL d   1     -50.376  14.246  22.831  0.00  0.00     0.108 A 
ATOM     23  C   UNL d   1     -48.924  15.027  22.653  0.00  0.00     0.118 A 
ATOM     24  C   UNL d   1     -48.196  15.415  22.565  0.00  0.00     0.028 C 
ATOM     25  O   UNL d   1     -49.629  15.456  22.638  0.00  0.00    -0.304 OA
ATOM     26  C   UNL d   1     -50.358  15.075  22.725  0.00  0.00     0.118 A 
ATOM     27  C   UNL d   1     -51.064  15.510  22.709  0.00  0.00     0.028 C 
ATOM     28  O   UNL d   1     -50.421  12.603  23.040  0.00  0.00    -0.267 OA
ENDBRANCH   1  19
TORSDOF 5
ENDMDL
MODEL 2
REMARK VINA RESULT:      -5.8      1.085      1.656
REMARK  5 active torsions:
REMARK  status: ('A' for Active; 'I' for Inactive)
REMARK    1  A    between atoms: C_4  and  S_1 
REMARK    2  A    between atoms: N_5  and  S_1 
REMARK       I    between atoms: N_2  and  C_3 
REMARK    3  A    between atoms: C_3  and  C_12 
REMARK    4  A    between atoms: C_19  and  N_5 
REMARK    5  A    between atoms: C_20  and  C_19 
ROOT
ATOM      1  C   UNL d   1     -47.633  14.260  22.632  0.00  0.00     0.057 A 
ATOM      2  C   UNL d   1     -47.142  14.310  23.295  0.00  0.00     0.005 A 
ATOM      3  C   UNL d   1     -47.520  13.665  22.078  0.00  0.00     0.005 A 
ATOM      4  C   UNL d   1     -46.421  13.161  22.845  0.00  0.00     0.020 A 
ATOM      5  C   UNL d   1     -46.542  13.762  23.397  0.00  0.00     0.002 A 
ATOM      6  C   UNL d   1     -46.914  13.116  22.186  0.00  0.00     0.002 A 
ENDROOT
BRANCH   4   7
ATOM      7  C   UNL d   1     -45.817  12.612  22.950  0.00  0.00     0.112 C 
BRANCH   7   8
ATOM      8  N   UNL d   1     -45.987  11.872  23.286  0.00  0.00    -0.157 NA
BRANCH   8   9
ATOM      9  S   UNL d   1     -45.384  11.303  23.355  0.00  0.00     0.285 S 
ATOM     10  O   UNL d   1     -45.951  10.695  23.363  0.00  0.00    -0.198 OA
ATOM     11  O   UNL d   1     -44.809  11.912  23.347  0.00  0.00    -0.198 OA
BRANCH   9  12
ATOM     12  C   UNL d   1     -44.774  10.735  23.424  0.00  0.00     0.106 A 
ATOM     13  C   UNL d   1     -43.997  10.946  23.290  0.00  0.00     0.024 A 
ATOM     14  C   UNL d   1     -43.399  10.386  23.358  0.00  0.00     0.059 A 
ATOM     15 CL   UNL d   1     -42.610  10.593  23.224  0.00  0.00    -0.082 Cl
ATOM     16  C   UNL d   1     -43.581   9.607  23.564  0.00  0.00     0.011 A 
ATOM     17  C   UNL d   1     -44.364   9.401  23.698  0.00  0.00     0.002 A 
ATOM     18  C   UNL d   1     -44.966   9.964  23.629  0.00  0.00     0.013 A 
ENDBRANCH   9  12
ENDBRANCH   8   9
ENDBRANCH   7   8
ENDBRANCH   4   7
BRANCH   1  19
ATOM     19  C   UNL d   1     -48.249  14.817  22.521  0.00  0.00     0.265 C 
ATOM     20  N   UNL d   1     -49.021  14.631  22.761  0.00  0.00    -0.268 N 
ATOM     21  C   UNL d   1     -49.181  13.898  23.109  0.00  0.00     0.108 A 
ATOM     22  C   UNL d   1     -49.626  15.182  22.651  0.00  0.00     0.108 A 
ATOM     23  C   UNL d   1     -49.957  13.714  23.349  0.00  0.00     0.118 A 
ATOM     24  C   UNL d   1     -50.118  12.979  23.698  0.00  0.00     0.028 C 
ATOM     25  O   UNL d   1     -50.561  14.265  23.238  0.00  0.00    -0.304 OA
ATOM     26  C   UNL d   1     -50.406  14.999  22.891  0.00  0.00     0.118 A 
ATOM     27  C   UNL d   1     -51.017  15.550  22.782  0.00  0.00     0.028 C 
ATOM     28  O   UNL d   1     -48.084  15.551  22.172  0.00  0.00    -0.267 OA
ENDBRANCH   1  19
TORSDOF 5
ENDMDL
MODEL 3
REMARK VINA RESULT:      -5.0      2.422      2.874
REMARK  5 active torsions:
REMARK  status: ('A' for Active; 'I' for Inactive)
REMARK    1  A    between atoms: C_4  and  S_1 
REMARK    2  A    between atoms: N_5  and  S_1 
REMARK       I    between atoms: N_2  and  C_3 
REMARK    3  A    between atoms: C_3  and  C_12 
REMARK    4  A    between atoms: C_19  and  N_5 
REMARK    5  A    between atoms: C_20  and  C_19 
ROOT
ATOM      1  C   UNL d   1     -47.407  12.703  22.825  0.00  0.00     0.057 A 
ATOM      2  C   UNL d   1     -47.231  12.835  22.027  0.00  0.00     0.005 A 
ATOM      3  C   UNL d   1     -46.827  12.805  23.398  0.00  0.00     0.005 A 
ATOM      4  C   UNL d   1     -45.889  13.174  22.381  0.00  0.00     0.020 A 
ATOM      5  C   UNL d   1     -46.476  13.069  21.812  0.00  0.00     0.002 A 
ATOM      6  C   UNL d   1     -46.069  13.041  23.174  0.00  0.00     0.002 A 
ENDROOT
BRANCH   4   7
ATOM      7  C   UNL d   1     -45.131  13.408  22.162  0.00  0.00     0.112 C 
BRANCH   7   8
ATOM      8  N   UNL d   1     -44.635  12.877  21.761  0.00  0.00    -0.157 NA
BRANCH   8   9
ATOM      9  S   UNL d   1     -43.851  13.096  21.589  0.00  0.00     0.285 S 
ATOM     10  O   UNL d   1     -44.019  13.881  21.802  0.00  0.00    -0.198 OA
ATOM     11  O   UNL d   1     -43.678  12.306  21.373  0.00  0.00    -0.198 OA
BRANCH   9  12
ATOM     12  C   UNL d   1     -43.062  13.311  21.414  0.00  0.00     0.106 A 
ATOM     13  C   UNL d   1     -42.877  14.085  21.234  0.00  0.00     0.024 A 
ATOM     14  C   UNL d   1     -42.100  14.295  21.063  0.00  0.00     0.059 A 
ATOM     15 CL   UNL d   1     -41.905  15.077  20.878  0.00  0.00    -0.082 Cl
ATOM     16  C   UNL d   1     -41.504  13.724  21.073  0.00  0.00     0.011 A 
ATOM     17  C   UNL d   1     -41.696  12.947  21.256  0.00  0.00     0.002 A 
ATOM     18  C   UNL d   1     -42.478  12.736  21.428  0.00  0.00     0.013 A 
ENDBRANCH   9  12
ENDBRANCH   8   9
ENDBRANCH   7   8
ENDBRANCH   4   7
BRANCH   1  19
ATOM     19  C   UNL d   1     -48.177  12.464  23.053  0.00  0.00     0.265 C 
ATOM     20  N   UNL d   1     -48.776  13.031  23.137  0.00  0.00    -0.268 N 
ATOM     21  C   UNL d   1     -48.614  13.829  22.996  0.00  0.00     0.108 A 
ATOM     22  C   UNL d   1     -49.534  12.793  23.362  0.00  0.00     0.108 A 
ATOM     23  C   UNL d   1     -49.218  14.396  23.081  0.00  0.00     0.118 A 
ATOM     24  C   UNL d   1     -49.056  15.197  22.939  0.00  0.00     0.028 C 
ATOM     25  O   UNL d   1     -49.975  14.157  23.306  0.00  0.00    -0.304 OA
ATOM     26  C   UNL d   1     -50.143  13.360  23.448  0.00  0.00     0.118 A 
ATOM     27  C   UNL d   1     -50.905  13.124  23.674  0.00  0.00     0.028 C 
ATOM     28  O   UNL d   1     -48.335  11.662  23.193  0.00  0.00    -0.267 OA
ENDBRANCH   1  19
TORSDOF 5
ENDMDL
MODEL 4
REMARK VINA RESULT:      -4.0      4.744      7.470
REMARK  5 active torsions:
REMARK  status: ('A' for Active; 'I' for Inactive)
REMARK    1  A    between atoms: C_4  and  S_1 
REMARK    2  A    between atoms: N_5  and  S_1 
REMARK       I    between atoms: N_2  and  C_3 
REMARK    3  A    between atoms: C_3  and  C_12 
REMARK    4  A    between atoms: C_19  and  N_5 
REMARK    5  A    between atoms: C_20  and  C_19 
ROOT
ATOM      1  C   UNL d   1     -41.181  14.072  20.958  0.00  0.00     0.057 A 
ATOM      2  C   UNL d   1     -41.353  13.264  20.991  0.00  0.00     0.005 A 
ATOM      3  C   UNL d   1     -41.784  14.625  21.032  0.00  0.00     0.005 A 
ATOM      4  C   UNL d   1     -42.737  13.567  21.173  0.00  0.00     0.020 A 
ATOM      5  C   UNL d   1     -42.127  13.018  21.098  0.00  0.00     0.002 A 
ATOM      6  C   UNL d   1     -42.561  14.371  21.140  0.00  0.00     0.002 A 
ENDROOT
BRANCH   4   7
ATOM      7  C   UNL d   1     -43.514  13.317  21.280  0.00  0.00     0.112 C 
BRANCH   7   8
ATOM      8  N   UNL d   1     -43.762  13.050  22.027  0.00  0.00    -0.157 NA
BRANCH   8   9
ATOM      9  S   UNL d   1     -44.575  12.982  22.190  0.00  0.00     0.285 S 
ATOM     10  O   UNL d   1     -44.649  13.810  22.195  0.00  0.00    -0.198 OA
ATOM     11  O   UNL d   1     -44.506  12.148  22.186  0.00  0.00    -0.198 OA
BRANCH   9  12
ATOM     12  C   UNL d   1     -45.392  12.908  22.354  0.00  0.00     0.106 A 
ATOM     13  C   UNL d   1     -45.652  12.384  22.922  0.00  0.00     0.024 A 
ATOM     14  C   UNL d   1     -46.456  12.313  23.081  0.00  0.00     0.059 A 
ATOM     15 CL   UNL d   1     -46.727  11.783  23.655  0.00  0.00    -0.082 Cl
ATOM     16  C   UNL d   1     -47.003  12.773  22.667  0.00  0.00     0.011 A 
ATOM     17  C   UNL d   1     -46.735  13.299  22.098  0.00  0.00     0.002 A 
ATOM     18  C   UNL d   1     -45.927  13.370  21.937  0.00  0.00     0.013 A 
ENDBRANCH   9  12
ENDBRANCH   8   9
ENDBRANCH   7   8
ENDBRANCH   4   7
BRANCH   1  19
ATOM     19  C   UNL d   1     -40.392  14.331  20.849  0.00  0.00     0.265 C 
ATOM     20  N   UNL d   1     -40.107  14.473  20.084  0.00  0.00    -0.268 N 
ATOM     21  C   UNL d   1     -40.601  14.358  19.431  0.00  0.00     0.108 A 
ATOM     22  C   UNL d   1     -39.329  14.728  19.979  0.00  0.00     0.108 A 
ATOM     23  C   UNL d   1     -40.311  14.501  18.662  0.00  0.00     0.118 A 
ATOM     24  C   UNL d   1     -40.806  14.386  18.006  0.00  0.00     0.028 C 
ATOM     25  O   UNL d   1     -39.533  14.756  18.559  0.00  0.00    -0.304 OA
ATOM     26  C   UNL d   1     -39.036  14.872  19.209  0.00  0.00     0.118 A 
ATOM     27  C   UNL d   1     -38.255  15.129  19.100  0.00  0.00     0.028 C 
ATOM     28  O   UNL d   1     -39.901  14.445  21.508  0.00  0.00    -0.267 OA
ENDBRANCH   1  19
TORSDOF 5
ENDMDL
MODEL 5
REMARK VINA RESULT:      -4.0      5.756      8.195
REMARK  5 active torsions:
REMARK  status: ('A' for Active; 'I' for Inactive)
REMARK    1  A    between atoms: C_4  and  S_1 
REMARK    2  A    between atoms: N_5  and  S_1 
REMARK       I    between atoms: N_2  and  C_3 
REMARK    3  A    between atoms: C_3  and  C_12 
REMARK    4  A    between atoms: C_19  and  N_5 
REMARK    5  A    between atoms: C_20  and  C_19 
ROOT
ATOM      1  C   UNL d   1     -40.127  14.834  20.254  0.00  0.00     0.057 A 
ATOM      2  C   UNL d   1     -40.736  15.336  20.501  0.00  0.00     0.005 A 
ATOM      3  C   UNL d   1     -40.174  14.026  20.398  0.00  0.00     0.005 A 
ATOM      4  C   UNL d   1     -41.441  14.215  21.037  0.00  0.00     0.020 A 
ATOM      5  C   UNL d   1     -41.386  15.023  20.890  0.00  0.00     0.002 A 
ATOM      6  C   UNL d   1     -40.831  13.718  20.789  0.00  0.00     0.002 A 
ENDROOT
BRANCH   4   7
ATOM      7  C   UNL d   1     -42.095  13.904  21.428  0.00  0.00     0.112 C 
BRANCH   7   8
ATOM      8  N   UNL d   1     -42.679  13.501  20.996  0.00  0.00    -0.157 NA
BRANCH   8   9
ATOM      9  S   UNL d   1     -43.342  13.190  21.392  0.00  0.00     0.285 S 
ATOM     10  O   UNL d   1     -43.444  13.909  21.797  0.00  0.00    -0.198 OA
ATOM     11  O   UNL d   1     -43.243  12.464  20.987  0.00  0.00    -0.198 OA
BRANCH   9  12
ATOM     12  C   UNL d   1     -44.007  12.873  21.788  0.00  0.00     0.106 A 
ATOM     13  C   UNL d   1     -44.718  13.274  21.784  0.00  0.00     0.024 A 
ATOM     14  C   UNL d   1     -45.371  12.960  22.173  0.00  0.00     0.059 A 
ATOM     15 CL   UNL d   1     -46.095  13.360  22.174  0.00  0.00    -0.082 Cl
ATOM     16  C   UNL d   1     -45.311  12.239  22.571  0.00  0.00     0.011 A 
ATOM     17  C   UNL d   1     -44.593  11.841  22.571  0.00  0.00     0.002 A 
ATOM     18  C   UNL d   1     -43.936  12.156  22.179  0.00  0.00     0.013 A 
ENDBRANCH   9  12
ENDBRANCH   8   9
ENDBRANCH   7   8
ENDBRANCH   4   7
BRANCH   1  19
ATOM     19  C   UNL d   1     -39.459  15.146  19.857  0.00  0.00     0.265 C 
ATOM     20  N   UNL d   1     -39.470  15.223  19.031  0.00  0.00    -0.268 N 
ATOM     21  C   UNL d   1     -40.139  14.993  18.603  0.00  0.00     0.108 A 
ATOM     22  C   UNL d   1     -38.810  15.531  18.641  0.00  0.00     0.108 A 
ATOM     23  C   UNL d   1     -40.147  15.072  17.773  0.00  0.00     0.118 A 
ATOM     24  C   UNL d   1     -40.818  14.841  17.343  0.00  0.00     0.028 C 
ATOM     25  O   UNL d   1     -39.487  15.379  17.385  0.00  0.00    -0.304 OA
ATOM     26  C   UNL d   1     -38.816  15.611  17.809  0.00  0.00     0.118 A 
ATOM     27  C   UNL d   1     -38.155  15.919  17.414  0.00  0.00     0.028 C 
ATOM     28  O   UNL d   1     -38.791  15.375  20.290  0.00  0.00    -0.267 OA
ENDBRANCH   1  19
TORSDOF 5
ENDMDL
