MODEL 1
REMARK VINA RESULT:      73.0      0.000      0.000
REMARK  3 active torsions:
REMARK  status: ('A' for Active; 'I' for Inactive)
REMARK    1  A    between atoms: N_9  and  C_3 
REMARK    2  A    between atoms: C_14  and  C_4 
REMARK       I    between atoms: C_10  and  N_11 
REMARK    3  A    between atoms: C_13  and  C_10 
ROOT
ATOM      1  N   UNL d   1      13.887  13.795  -3.141  0.00  0.00    -0.196 N 
ATOM      2  C   UNL d   1      13.865  13.101  -2.705  0.00  0.00     0.167 A 
ATOM      3  C   UNL d   1      13.546  13.826  -3.893  0.00  0.00     0.152 A 
ATOM      4  C   UNL d   1      14.243  13.238  -1.990  0.00  0.00     0.057 A 
ATOM      5  N   UNL d   1      14.279  14.364  -2.698  0.00  0.00    -0.161 NA
ATOM      6  N   UNL d   1      13.502  12.427  -3.014  0.00  0.00    -0.227 NA
ATOM      7  C   UNL d   1      13.181  13.150  -4.204  0.00  0.00     0.057 A 
ATOM      8  C   UNL d   1      14.497  14.012  -1.984  0.00  0.00     0.124 A 
ATOM      9  C   UNL d   1      13.159  12.456  -3.768  0.00  0.00     0.086 A 
ATOM     10  C   UNL d   1      12.790  11.779  -4.089  0.00  0.00     0.021 C 
ENDROOT
BRANCH   3  11
ATOM     11  N   UNL d   1      13.569  14.520  -4.329  0.00  0.00    -0.286 N 
ATOM     12  C   UNL d   1      14.145  15.087  -4.192  0.00  0.00     0.101 A 
ATOM     13  C   UNL d   1      14.164  15.787  -4.635  0.00  0.00     0.102 A 
ATOM     14  N   UNL d   1      13.595  15.913  -5.221  0.00  0.00    -0.267 N 
ATOM     15  C   UNL d   1      13.607  16.615  -5.672  0.00  0.00     0.288 C 
ATOM     16  C   UNL d   1      13.018  15.351  -5.362  0.00  0.00     0.102 A 
ATOM     17  O   UNL d   1      13.045  16.748  -6.256  0.00  0.00    -0.264 OA
ATOM     18  C   UNL d   1      12.999  14.650  -4.918  0.00  0.00     0.101 A 
BRANCH  15  19
ATOM     19  C   UNL d   1      14.190  17.180  -5.527  0.00  0.00     0.156 A 
ATOM     20  O   UNL d   1      14.912  17.141  -5.146  0.00  0.00    -0.300 OA
ATOM     21  C   UNL d   1      15.262  17.892  -5.171  0.00  0.00     0.123 A 
ATOM     22  C   UNL d   1      14.756  18.381  -5.565  0.00  0.00     0.029 A 
ATOM     23  C   UNL d   1      14.093  17.952  -5.787  0.00  0.00     0.032 A 
ENDBRANCH  15  19
ENDBRANCH   3  11
BRANCH   4  24
ATOM     24  C   UNL d   1      14.388  12.752  -1.339  0.00  0.00     0.004 A 
ATOM     25  C   UNL d   1      13.861  12.751  -0.697  0.00  0.00     0.000 A 
ATOM     26  C   UNL d   1      14.007  12.266  -0.046  0.00  0.00     0.000 A 
ATOM     27  C   UNL d   1      14.674  11.780  -0.030  0.00  0.00     0.000 A 
ATOM     28  C   UNL d   1      15.200  11.780  -0.669  0.00  0.00     0.000 A 
ATOM     29  C   UNL d   1      15.055  12.265  -1.319  0.00  0.00     0.000 A 
ENDBRANCH   4  24
TORSDOF 3
ENDMDL
