MODEL 1
REMARK VINA RESULT:      57.2      0.000      0.000
REMARK  3 active torsions:
REMARK  status: ('A' for Active; 'I' for Inactive)
REMARK    1  A    between atoms: C_6  and  C_1 
REMARK    2  A    between atoms: C_12  and  C_6 
REMARK    3  A    between atoms: C_9  and  C_10 
ROOT
ATOM      1  C   UNL d   1      59.066  49.666  50.656  0.00  0.00     0.139 A 
ATOM      2  C   UNL d   1      57.735  49.661  50.683  0.00  0.00     0.064 A 
ATOM      3  C   UNL d   1      58.408  49.650  51.157  0.00  0.00     0.220 A 
ATOM      4  C   UNL d   1      57.970  49.685  49.892  0.00  0.00     0.106 A 
ATOM      5  O   UNL d   1      58.796  49.688  49.877  0.00  0.00    -0.304 OA
ATOM      6  C   UNL d   1      57.405  49.700  49.303  0.00  0.00     0.067 A 
ATOM      7  C   UNL d   1      56.934  49.653  50.876  0.00  0.00     0.009 A 
ATOM      8  O   UNL d   1      58.433  49.626  51.981  0.00  0.00    -0.284 OA
ATOM      9  C   UNL d   1      56.604  49.691  49.496  0.00  0.00     0.198 A 
ATOM     10  C   UNL d   1      56.372  49.668  50.279  0.00  0.00     0.042 A 
ATOM     11  O   UNL d   1      56.038  49.707  48.897  0.00  0.00    -0.286 OA
ENDROOT
BRANCH   1  12
ATOM     12  C   UNL d   1      59.857  49.662  50.891  0.00  0.00     0.028 C 
BRANCH  12  13
ATOM     13  C   UNL d   1      60.336  49.001  50.748  0.00  0.00     0.002 A 
ATOM     14  C   UNL d   1      60.817  48.992  50.084  0.00  0.00    -0.000 A 
ATOM     15  C   UNL d   1      61.296  48.345  49.930  0.00  0.00    -0.004 A 
ATOM     16  C   UNL d   1      61.294  47.694  50.451  0.00  0.00    -0.023 A 
ATOM     17  C   UNL d   1      60.807  47.707  51.120  0.00  0.00    -0.004 A 
ATOM     18  C   UNL d   1      60.328  48.367  51.264  0.00  0.00    -0.000 A 
BRANCH  16  19
ATOM     19  C   UNL d   1      61.779  47.036  50.298  0.00  0.00     0.019 C 
ATOM     20  C   UNL d   1      62.256  46.386  50.150  0.00  0.00     0.004 C 
ATOM     21  C   UNL d   1      61.938  47.332  49.542  0.00  0.00     0.004 C 
ATOM     22  C   UNL d   1      61.613  46.751  51.054  0.00  0.00     0.004 C 
ENDBRANCH  16  19
ENDBRANCH  12  13
ENDBRANCH   1  12
TORSDOF 3
ENDMDL
