MODEL 1
REMARK VINA RESULT:      -6.4      0.000      0.000
REMARK  4 active torsions:
REMARK  status: ('A' for Active; 'I' for Inactive)
REMARK    1  A    between atoms: C_7  and  C_1 
REMARK    2  A    between atoms: N_4  and  C_9 
REMARK    3  A    between atoms: O_17  and  C_7 
REMARK    4  A    between atoms: C_18  and  O_17 
ROOT
ATOM      1  C   UNL d   1      57.321  -0.229  31.264  0.00  0.00     0.127 A 
ATOM      2  C   UNL d   1      57.190  -1.024  31.242  0.00  0.00     0.305 A 
ATOM      3  C   UNL d   1      56.946   0.241  31.833  0.00  0.00     0.013 A 
ATOM      4  O   UNL d   1      56.680  -1.379  31.788  0.00  0.00    -0.273 OA
ATOM      5  C   UNL d   1      56.450  -0.116  32.360  0.00  0.00     0.025 A 
ATOM      6  C   UNL d   1      56.319  -0.911  32.338  0.00  0.00     0.103 A 
ATOM      7  C   UNL d   1      55.566  -0.001  33.470  0.00  0.00     0.127 A 
ATOM      8  C   UNL d   1      56.076   0.354  32.926  0.00  0.00     0.025 A 
ATOM      9  O   UNL d   1      57.564  -1.494  30.676  0.00  0.00    -0.259 OA
ATOM     10  C   UNL d   1      55.810  -1.266  32.882  0.00  0.00     0.026 A 
ATOM     11  C   UNL d   1      55.436  -0.796  33.448  0.00  0.00     0.026 A 
ENDROOT
BRANCH   1  12
ATOM     12  C   UNL d   1      57.830   0.126  30.721  0.00  0.00     0.305 C 
ATOM     13  O   UNL d   1      57.556   0.346  29.972  0.00  0.00    -0.259 OA
BRANCH  12  14
ATOM     14  O   UNL d   1      58.612   0.259  30.931  0.00  0.00    -0.271 OA
BRANCH  14  15
ATOM     15  C   UNL d   1      59.118   0.615  30.403  0.00  0.00     0.126 C 
ATOM     16  C   UNL d   1      59.905   0.682  30.579  0.00  0.00     0.029 C 
ENDBRANCH  14  15
ENDBRANCH  12  14
ENDBRANCH   1  12
BRANCH   7  17
ATOM     17  N   UNL d   1      55.185   0.440  34.039  0.00  0.00    -0.114 N 
ATOM     18  O   UNL d   1      55.578   0.621  34.725  0.00  0.00    -0.532 OA
ATOM     19  O   UNL d   1      54.430   0.682  33.902  0.00  0.00    -0.532 OA
ENDBRANCH   7  17
TORSDOF 4
ENDMDL
MODEL 2
REMARK VINA RESULT:      -4.9      1.439      2.099
REMARK  4 active torsions:
REMARK  status: ('A' for Active; 'I' for Inactive)
REMARK    1  A    between atoms: C_7  and  C_1 
REMARK    2  A    between atoms: N_4  and  C_9 
REMARK    3  A    between atoms: O_17  and  C_7 
REMARK    4  A    between atoms: C_18  and  O_17 
ROOT
ATOM      1  C   UNL d   1      58.081  -0.382  30.307  0.00  0.00     0.127 A 
ATOM      2  C   UNL d   1      58.403   0.299  30.591  0.00  0.00     0.305 A 
ATOM      3  C   UNL d   1      57.477  -0.765  30.725  0.00  0.00     0.013 A 
ATOM      4  O   UNL d   1      58.135   0.624  31.304  0.00  0.00    -0.273 OA
ATOM      5  C   UNL d   1      57.223  -0.440  31.418  0.00  0.00     0.025 A 
ATOM      6  C   UNL d   1      57.546   0.242  31.702  0.00  0.00     0.103 A 
ATOM      7  C   UNL d   1      56.354  -0.498  32.544  0.00  0.00     0.127 A 
ATOM      8  C   UNL d   1      56.621  -0.822  31.834  0.00  0.00     0.025 A 
ATOM      9  O   UNL d   1      59.005   0.682  30.176  0.00  0.00    -0.259 OA
ATOM     10  C   UNL d   1      57.279   0.567  32.413  0.00  0.00     0.026 A 
ATOM     11  C   UNL d   1      56.677   0.184  32.828  0.00  0.00     0.026 A 
ENDROOT
BRANCH   1  12
ATOM     12  C   UNL d   1      58.347  -0.707  29.598  0.00  0.00     0.305 C 
ATOM     13  O   UNL d   1      58.173  -0.340  28.876  0.00  0.00    -0.259 OA
BRANCH  12  14
ATOM     14  O   UNL d   1      58.788  -1.399  29.613  0.00  0.00    -0.271 OA
BRANCH  14  15
ATOM     15  C   UNL d   1      58.958  -1.786  28.918  0.00  0.00     0.126 C 
ATOM     16  C   UNL d   1      59.321  -2.509  28.936  0.00  0.00     0.029 C 
ENDBRANCH  14  15
ENDBRANCH  12  14
ENDBRANCH   1  12
BRANCH   7  17
ATOM     17  N   UNL d   1      55.761  -0.856  32.973  0.00  0.00    -0.114 N 
ATOM     18  O   UNL d   1      55.134  -0.409  33.227  0.00  0.00    -0.532 OA
ATOM     19  O   UNL d   1      55.818  -1.643  33.132  0.00  0.00    -0.532 OA
ENDBRANCH   7  17
TORSDOF 4
ENDMDL
