MODEL 1
REMARK VINA RESULT:      -4.2      0.000      0.000
REMARK  9 active torsions:
REMARK  status: ('A' for Active; 'I' for Inactive)
REMARK    1  A    between atoms: C_10  and  N_1 
REMARK    2  A    between atoms: S_13  and  C_2 
REMARK    3  A    between atoms: C_6  and  N_11 
REMARK    4  A    between atoms: C_24  and  C_10 
REMARK       I    between atoms: N_11  and  C_15 
REMARK    5  A    between atoms: C_21  and  S_13 
REMARK    6  A    between atoms: C_15  and  C_21 
REMARK    7  A    between atoms: O_27  and  C_17 
REMARK    8  A    between atoms: O_28  and  C_18 
REMARK    9  A    between atoms: C_23  and  C_24 
ROOT
ATOM      1  N   UNL d   1     -40.141  14.392  20.647  0.00  0.00    -0.253 N 
ATOM      2  C   UNL d   1     -40.604  13.931  21.135  0.00  0.00     0.182 A 
ATOM      3  C   UNL d   1     -39.352  14.561  20.850  0.00  0.00     0.268 A 
ATOM      4  N   UNL d   1     -40.291  13.626  21.840  0.00  0.00    -0.222 NA
ATOM      5  C   UNL d   1     -39.045  14.253  21.557  0.00  0.00     0.074 A 
ATOM      6  C   UNL d   1     -39.508  13.792  22.045  0.00  0.00     0.088 A 
ATOM      7  O   UNL d   1     -38.890  15.021  20.363  0.00  0.00    -0.267 OA
ATOM      8  C   UNL d   1     -38.253  14.422  21.762  0.00  0.00     0.006 A 
ATOM      9  C   UNL d   1     -39.192  13.487  22.752  0.00  0.00     0.019 A 
ATOM     10  C   UNL d   1     -37.950  14.115  22.465  0.00  0.00     0.000 A 
ATOM     11  C   UNL d   1     -38.414  13.654  22.953  0.00  0.00     0.002 A 
ENDROOT
BRANCH   1  12
ATOM     12  C   UNL d   1     -40.455  14.700  19.935  0.00  0.00     0.085 C 
BRANCH  12  13
ATOM     13  C   UNL d   1     -39.950  14.970  19.339  0.00  0.00     0.019 C 
BRANCH  13  14
ATOM     14  C   UNL d   1     -40.254  15.163  18.596  0.00  0.00     0.004 A 
ATOM     15  C   UNL d   1     -39.960  14.791  17.920  0.00  0.00     0.026 A 
ATOM     16  C   UNL d   1     -40.258  14.979  17.183  0.00  0.00     0.116 A 
ATOM     17  C   UNL d   1     -40.860  15.550  17.112  0.00  0.00     0.116 A 
ATOM     18  C   UNL d   1     -41.150  15.920  17.798  0.00  0.00     0.026 A 
ATOM     19  C   UNL d   1     -40.845  15.724  18.535  0.00  0.00     0.002 A 
BRANCH  16  20
ATOM     20  O   UNL d   1     -39.966  14.608  16.510  0.00  0.00    -0.326 OA
ATOM     21  C   UNL d   1     -39.191  14.356  16.484  0.00  0.00     0.181 C 
ENDBRANCH  16  20
BRANCH  17  22
ATOM     22  O   UNL d   1     -41.161  15.742  16.383  0.00  0.00    -0.326 OA
ATOM     23  C   UNL d   1     -41.968  15.888  16.280  0.00  0.00     0.181 C 
ENDBRANCH  17  22
ENDBRANCH  13  14
ENDBRANCH  12  13
ENDBRANCH   1  12
BRANCH   2  24
ATOM     24  S   UNL d   1     -41.399  13.761  20.930  0.00  0.00    -0.044 SA
BRANCH  24  25
ATOM     25  C   UNL d   1     -41.835  13.204  21.363  0.00  0.00     0.101 C 
BRANCH  25  26
ATOM     26  C   UNL d   1     -42.654  13.269  21.402  0.00  0.00     0.287 C 
ATOM     27  N   UNL d   1     -43.104  12.647  21.674  0.00  0.00    -0.186 NA
ATOM     28  O   UNL d   1     -43.020  13.971  21.166  0.00  0.00    -0.265 OA
BRANCH  27  29
ATOM     29  C   UNL d   1     -43.922  12.714  21.713  0.00  0.00     0.194 A 
ATOM     30  N   UNL d   1     -44.433  12.918  21.092  0.00  0.00    -0.107 NA
ATOM     31  O   UNL d   1     -45.203  12.918  21.376  0.00  0.00    -0.210 OA
ATOM     32  C   UNL d   1     -45.185  12.714  22.176  0.00  0.00     0.128 A 
ATOM     33  C   UNL d   1     -44.397  12.589  22.383  0.00  0.00     0.068 A 
ATOM     34  C   UNL d   1     -45.835  12.651  22.669  0.00  0.00     0.029 C 
ENDBRANCH  27  29
ENDBRANCH  25  26
ENDBRANCH  24  25
ENDBRANCH   2  24
TORSDOF 9
ENDMDL
MODEL 2
REMARK VINA RESULT:      -3.6      2.469      6.639
REMARK  9 active torsions:
REMARK  status: ('A' for Active; 'I' for Inactive)
REMARK    1  A    between atoms: C_10  and  N_1 
REMARK    2  A    between atoms: S_13  and  C_2 
REMARK    3  A    between atoms: C_6  and  N_11 
REMARK    4  A    between atoms: C_24  and  C_10 
REMARK       I    between atoms: N_11  and  C_15 
REMARK    5  A    between atoms: C_21  and  S_13 
REMARK    6  A    between atoms: C_15  and  C_21 
REMARK    7  A    between atoms: O_27  and  C_17 
REMARK    8  A    between atoms: O_28  and  C_18 
REMARK    9  A    between atoms: C_23  and  C_24 
ROOT
ATOM      1  N   UNL d   1     -44.965  12.259  22.536  0.00  0.00    -0.253 N 
ATOM      2  C   UNL d   1     -44.191  12.333  22.286  0.00  0.00     0.182 A 
ATOM      3  C   UNL d   1     -45.210  11.585  22.956  0.00  0.00     0.268 A 
ATOM      4  N   UNL d   1     -43.642  11.734  22.450  0.00  0.00    -0.222 NA
ATOM      5  C   UNL d   1     -44.655  10.989  23.117  0.00  0.00     0.074 A 
ATOM      6  C   UNL d   1     -43.882  11.063  22.867  0.00  0.00     0.088 A 
ATOM      7  O   UNL d   1     -45.981  11.511  23.206  0.00  0.00    -0.267 OA
ATOM      8  C   UNL d   1     -44.899  10.310  23.539  0.00  0.00     0.006 A 
ATOM      9  C   UNL d   1     -43.332  10.460  23.032  0.00  0.00     0.019 A 
ATOM     10  C   UNL d   1     -44.347   9.720  23.697  0.00  0.00     0.000 A 
ATOM     11  C   UNL d   1     -43.573   9.794  23.447  0.00  0.00     0.002 A 
ENDROOT
BRANCH   1  12
ATOM     12  C   UNL d   1     -45.521  12.863  22.372  0.00  0.00     0.085 C 
BRANCH  12  13
ATOM     13  C   UNL d   1     -46.191  12.952  22.846  0.00  0.00     0.019 C 
BRANCH  13  14
ATOM     14  C   UNL d   1     -46.759  13.521  22.657  0.00  0.00     0.004 A 
ATOM     15  C   UNL d   1     -47.438  13.304  22.240  0.00  0.00     0.026 A 
ATOM     16  C   UNL d   1     -48.003  13.863  22.050  0.00  0.00     0.116 A 
ATOM     17  C   UNL d   1     -47.893  14.657  22.277  0.00  0.00     0.116 A 
ATOM     18  C   UNL d   1     -47.206  14.867  22.697  0.00  0.00     0.026 A 
ATOM     19  C   UNL d   1     -46.644  14.297  22.883  0.00  0.00     0.002 A 
BRANCH  16  20
ATOM     20  O   UNL d   1     -48.679  13.647  21.636  0.00  0.00    -0.326 OA
ATOM     21  C   UNL d   1     -48.754  12.892  21.338  0.00  0.00     0.181 C 
ENDBRANCH  16  20
BRANCH  17  22
ATOM     22  O   UNL d   1     -48.450  15.219  22.093  0.00  0.00    -0.326 OA
ATOM     23  C   UNL d   1     -48.936  15.544  22.675  0.00  0.00     0.181 C 
ENDBRANCH  17  22
ENDBRANCH  13  14
ENDBRANCH  12  13
ENDBRANCH   1  12
BRANCH   2  24
ATOM     24  S   UNL d   1     -43.945  13.014  21.863  0.00  0.00    -0.044 SA
BRANCH  24  25
ATOM     25  C   UNL d   1     -43.317  12.969  21.324  0.00  0.00     0.101 C 
BRANCH  25  26
ATOM     26  C   UNL d   1     -42.795  13.601  21.253  0.00  0.00     0.287 C 
ATOM     27  N   UNL d   1     -42.066  13.495  20.906  0.00  0.00    -0.186 NA
ATOM     28  O   UNL d   1     -43.014  14.345  21.535  0.00  0.00    -0.265 OA
BRANCH  27  29
ATOM     29  C   UNL d   1     -41.545  14.127  20.836  0.00  0.00     0.194 A 
ATOM     30  N   UNL d   1     -41.654  14.809  20.378  0.00  0.00    -0.107 NA
ATOM     31  O   UNL d   1     -40.998  15.294  20.469  0.00  0.00    -0.210 OA
ATOM     32  C   UNL d   1     -40.470  14.923  20.984  0.00  0.00     0.128 A 
ATOM     33  C   UNL d   1     -40.808  14.205  21.209  0.00  0.00     0.068 A 
ATOM     34  C   UNL d   1     -39.746  15.218  21.224  0.00  0.00     0.029 C 
ENDBRANCH  27  29
ENDBRANCH  25  26
ENDBRANCH  24  25
ENDBRANCH   2  24
TORSDOF 9
ENDMDL
MODEL 3
REMARK VINA RESULT:      -2.2      1.588      4.291
REMARK  9 active torsions:
REMARK  status: ('A' for Active; 'I' for Inactive)
REMARK    1  A    between atoms: C_10  and  N_1 
REMARK    2  A    between atoms: S_13  and  C_2 
REMARK    3  A    between atoms: C_6  and  N_11 
REMARK    4  A    between atoms: C_24  and  C_10 
REMARK       I    between atoms: N_11  and  C_15 
REMARK    5  A    between atoms: C_21  and  S_13 
REMARK    6  A    between atoms: C_15  and  C_21 
REMARK    7  A    between atoms: O_27  and  C_17 
REMARK    8  A    between atoms: O_28  and  C_18 
REMARK    9  A    between atoms: C_23  and  C_24 
ROOT
ATOM      1  N   UNL d   1     -39.224  15.331  18.777  0.00  0.00    -0.253 N 
ATOM      2  C   UNL d   1     -39.935  14.939  18.701  0.00  0.00     0.182 A 
ATOM      3  C   UNL d   1     -38.748  15.476  18.110  0.00  0.00     0.268 A 
ATOM      4  N   UNL d   1     -40.190  14.681  17.955  0.00  0.00    -0.222 NA
ATOM      5  C   UNL d   1     -39.008  15.215  17.367  0.00  0.00     0.074 A 
ATOM      6  C   UNL d   1     -39.720  14.823  17.291  0.00  0.00     0.088 A 
ATOM      7  O   UNL d   1     -38.038  15.867  18.187  0.00  0.00    -0.267 OA
ATOM      8  C   UNL d   1     -38.532  15.360  16.697  0.00  0.00     0.006 A 
ATOM      9  C   UNL d   1     -39.974  14.565  16.541  0.00  0.00     0.019 A 
ATOM     10  C   UNL d   1     -38.793  15.100  15.959  0.00  0.00     0.000 A 
ATOM     11  C   UNL d   1     -39.505  14.708  15.883  0.00  0.00     0.002 A 
ENDROOT
BRANCH   1  12
ATOM     12  C   UNL d   1     -38.965  15.593  19.529  0.00  0.00     0.085 C 
BRANCH  12  13
ATOM     13  C   UNL d   1     -38.270  15.291  19.858  0.00  0.00     0.019 C 
BRANCH  13  14
ATOM     14  C   UNL d   1     -38.189  15.240  20.678  0.00  0.00     0.004 A 
ATOM     15  C   UNL d   1     -38.105  14.502  21.040  0.00  0.00     0.026 A 
ATOM     16  C   UNL d   1     -38.025  14.446  21.851  0.00  0.00     0.116 A 
ATOM     17  C   UNL d   1     -38.029  15.136  22.317  0.00  0.00     0.116 A 
ATOM     18  C   UNL d   1     -38.114  15.876  21.945  0.00  0.00     0.026 A 
ATOM     19  C   UNL d   1     -38.194  15.922  21.128  0.00  0.00     0.002 A 
BRANCH  16  20
ATOM     20  O   UNL d   1     -37.941  13.712  22.211  0.00  0.00    -0.326 OA
ATOM     21  C   UNL d   1     -38.552  13.172  22.188  0.00  0.00     0.181 C 
ENDBRANCH  16  20
BRANCH  17  22
ATOM     22  O   UNL d   1     -37.950  15.090  23.124  0.00  0.00    -0.326 OA
ATOM     23  C   UNL d   1     -38.280  15.663  23.618  0.00  0.00     0.181 C 
ENDBRANCH  17  22
ENDBRANCH  13  14
ENDBRANCH  12  13
ENDBRANCH   1  12
BRANCH   2  24
ATOM     24  S   UNL d   1     -40.415  14.794  19.373  0.00  0.00    -0.044 SA
BRANCH  24  25
ATOM     25  C   UNL d   1     -41.133  14.386  19.297  0.00  0.00     0.101 C 
BRANCH  25  26
ATOM     26  C   UNL d   1     -41.583  14.227  19.967  0.00  0.00     0.287 C 
ATOM     27  N   UNL d   1     -41.887  13.482  20.091  0.00  0.00    -0.186 NA
ATOM     28  O   UNL d   1     -41.727  14.828  20.515  0.00  0.00    -0.265 OA
BRANCH  27  29
ATOM     29  C   UNL d   1     -42.338  13.324  20.760  0.00  0.00     0.194 A 
ATOM     30  N   UNL d   1     -42.134  13.495  21.545  0.00  0.00    -0.107 NA
ATOM     31  O   UNL d   1     -42.743  13.243  22.034  0.00  0.00    -0.210 OA
ATOM     32  C   UNL d   1     -43.334  12.911  21.563  0.00  0.00     0.128 A 
ATOM     33  C   UNL d   1     -43.084  12.961  20.779  0.00  0.00     0.068 A 
ATOM     34  C   UNL d   1     -44.039  12.592  21.832  0.00  0.00     0.029 C 
ENDBRANCH  27  29
ENDBRANCH  25  26
ENDBRANCH  24  25
ENDBRANCH   2  24
TORSDOF 9
ENDMDL
MODEL 4
REMARK VINA RESULT:      -1.7      2.373      4.768
REMARK  9 active torsions:
REMARK  status: ('A' for Active; 'I' for Inactive)
REMARK    1  A    between atoms: C_10  and  N_1 
REMARK    2  A    between atoms: S_13  and  C_2 
REMARK    3  A    between atoms: C_6  and  N_11 
REMARK    4  A    between atoms: C_24  and  C_10 
REMARK       I    between atoms: N_11  and  C_15 
REMARK    5  A    between atoms: C_21  and  S_13 
REMARK    6  A    between atoms: C_15  and  C_21 
REMARK    7  A    between atoms: O_27  and  C_17 
REMARK    8  A    between atoms: O_28  and  C_18 
REMARK    9  A    between atoms: C_23  and  C_24 
ROOT
ATOM      1  N   UNL d   1     -43.934  12.450  22.212  0.00  0.00    -0.253 N 
ATOM      2  C   UNL d   1     -44.727  12.514  22.396  0.00  0.00     0.182 A 
ATOM      3  C   UNL d   1     -43.501  11.779  22.444  0.00  0.00     0.268 A 
ATOM      4  N   UNL d   1     -45.107  11.909  22.815  0.00  0.00    -0.222 NA
ATOM      5  C   UNL d   1     -43.887  11.177  22.864  0.00  0.00     0.074 A 
ATOM      6  C   UNL d   1     -44.679  11.241  23.047  0.00  0.00     0.088 A 
ATOM      7  O   UNL d   1     -42.710  11.715  22.261  0.00  0.00    -0.267 OA
ATOM      8  C   UNL d   1     -43.453  10.502  23.097  0.00  0.00     0.006 A 
ATOM      9  C   UNL d   1     -45.060  10.633  23.469  0.00  0.00     0.019 A 
ATOM     10  C   UNL d   1     -43.840   9.906  23.515  0.00  0.00     0.000 A 
ATOM     11  C   UNL d   1     -44.632   9.970  23.698  0.00  0.00     0.002 A 
ENDROOT
BRANCH   1  12
ATOM     12  C   UNL d   1     -43.548  13.060  21.788  0.00  0.00     0.085 C 
BRANCH  12  13
ATOM     13  C   UNL d   1     -42.813  12.922  21.437  0.00  0.00     0.019 C 
BRANCH  13  14
ATOM     14  C   UNL d   1     -42.328  13.558  21.233  0.00  0.00     0.004 A 
ATOM     15  C   UNL d   1     -41.506  13.472  21.249  0.00  0.00     0.026 A 
ATOM     16  C   UNL d   1     -41.021  14.098  21.048  0.00  0.00     0.116 A 
ATOM     17  C   UNL d   1     -41.356  14.828  20.826  0.00  0.00     0.116 A 
ATOM     18  C   UNL d   1     -42.184  14.906  20.812  0.00  0.00     0.026 A 
ATOM     19  C   UNL d   1     -42.664  14.270  21.016  0.00  0.00     0.002 A 
BRANCH  16  20
ATOM     20  O   UNL d   1     -40.204  14.013  21.064  0.00  0.00    -0.326 OA
ATOM     21  C   UNL d   1     -39.836  13.708  21.725  0.00  0.00     0.181 C 
ENDBRANCH  16  20
BRANCH  17  22
ATOM     22  O   UNL d   1     -40.881  15.455  20.625  0.00  0.00    -0.326 OA
ATOM     23  C   UNL d   1     -41.049  15.922  19.965  0.00  0.00     0.181 C 
ENDBRANCH  17  22
ENDBRANCH  13  14
ENDBRANCH  12  13
ENDBRANCH   1  12
BRANCH   2  24
ATOM     24  S   UNL d   1     -45.163  13.191  22.162  0.00  0.00    -0.044 SA
BRANCH  24  25
ATOM     25  C   UNL d   1     -45.636  13.596  22.709  0.00  0.00     0.101 C 
BRANCH  25  26
ATOM     26  C   UNL d   1     -46.354  13.918  22.468  0.00  0.00     0.287 C 
ATOM     27  N   UNL d   1     -46.761  14.427  22.955  0.00  0.00    -0.186 NA
ATOM     28  O   UNL d   1     -46.662  13.721  21.727  0.00  0.00    -0.265 OA
BRANCH  27  29
ATOM     29  C   UNL d   1     -47.478  14.748  22.714  0.00  0.00     0.194 A 
ATOM     30  N   UNL d   1     -47.584  15.400  22.212  0.00  0.00    -0.107 NA
ATOM     31  O   UNL d   1     -48.389  15.530  22.119  0.00  0.00    -0.210 OA
ATOM     32  C   UNL d   1     -48.797  14.963  22.560  0.00  0.00     0.128 A 
ATOM     33  C   UNL d   1     -48.235  14.483  22.926  0.00  0.00     0.068 A 
ATOM     34  C   UNL d   1     -49.610  14.895  22.620  0.00  0.00     0.029 C 
ENDBRANCH  27  29
ENDBRANCH  25  26
ENDBRANCH  24  25
ENDBRANCH   2  24
TORSDOF 9
ENDMDL
