MODEL 1
REMARK VINA RESULT:      73.5      0.000      0.000
REMARK  1 active torsions:
REMARK  status: ('A' for Active; 'I' for Inactive)
REMARK       I    between atoms: N_3  and  C_1 
REMARK       I    between atoms: N_5  and  C_1 
REMARK       I    between atoms: C_2  and  N_4 
REMARK    1  A    between atoms: C_6  and  C_2 
ROOT
ATOM      1  C   UNL d   1     -55.078-102.144 -40.548  0.00  0.00     0.340 C 
ATOM      2  C   UNL d   1     -54.882 -99.544 -42.574  0.00  0.00     0.265 C 
ATOM      3  N   UNL d   1     -54.932-101.521 -41.069  0.00  0.00    -0.254 N 
ATOM      4  N   UNL d   1     -54.922-100.214 -42.066  0.00  0.00    -0.269 N 
ATOM      5  N   UNL d   1     -54.959-102.045 -39.737  0.00  0.00    -0.253 N 
ATOM      6  O   UNL d   1     -55.347-102.870 -40.845  0.00  0.00    -0.245 OA
ATOM      7  C   UNL d   1     -55.078-101.610 -41.877  0.00  0.00     0.104 A 
ATOM      8  C   UNL d   1     -54.759-100.765 -40.766  0.00  0.00     0.104 A 
ATOM      9  C   UNL d   1     -55.084-100.943 -42.389  0.00  0.00     0.102 A 
ATOM     10  C   UNL d   1     -54.749-100.108 -41.264  0.00  0.00     0.102 A 
ATOM     11  O   UNL d   1     -54.711 -98.794 -42.266  0.00  0.00    -0.267 OA
ATOM     12  O   UNL d   1     -54.999-101.763 -38.093  0.00  0.00    -0.300 OA
ATOM     13  C   UNL d   1     -54.968-101.230 -39.421  0.00  0.00     0.111 C 
ATOM     14  C   UNL d   1     -55.384-102.580 -39.196  0.00  0.00     0.111 C 
ATOM     15  C   UNL d   1     -55.266-102.484 -38.388  0.00  0.00     0.142 C 
ATOM     16  C   UNL d   1     -54.850-101.134 -38.607  0.00  0.00     0.142 C 
ENDROOT
BRANCH   2  17
ATOM     17  C   UNL d   1     -55.037 -99.631 -43.381  0.00  0.00     0.057 C 
ATOM     18  C   UNL d   1     -54.805-100.340 -43.760  0.00  0.00     0.011 C 
ATOM     19  C   UNL d   1     -54.923-100.424 -44.580  0.00  0.00     0.035 C 
ATOM     20 BR   UNL d   1     -54.838-101.174 -44.931  0.00  0.00    -0.049 Br
ATOM     21  C   UNL d   1     -55.124 -99.768 -45.038  0.00  0.00     0.007 C 
ATOM     22  C   UNL d   1     -55.207 -99.023 -44.679  0.00  0.00     0.001 C 
ATOM     23  C   UNL d   1     -55.089 -98.940 -43.863  0.00  0.00     0.005 C 
ENDBRANCH   2  17
TORSDOF 1
ENDMDL
