MODEL 1
REMARK VINA RESULT:      -5.4      0.000      0.000
REMARK  3 active torsions:
REMARK  status: ('A' for Active; 'I' for Inactive)
REMARK    1  A    between atoms: C_4  and  C_1 
REMARK    2  A    between atoms: C_6  and  C_4 
REMARK    3  A    between atoms: N_5  and  C_7 
ROOT
ATOM      1  C   UNL d   1     -41.393-122.077 -52.851  0.00  0.00     0.231 C 
ATOM      2  O   UNL d   1     -41.161-121.302 -52.950  0.00  0.00    -0.283 OA
ENDROOT
BRANCH   1   3
ATOM      3  C   UNL d   1     -41.550-122.381 -52.092  0.00  0.00     0.188 A 
ATOM      4  N   UNL d   1     -41.854-123.123 -51.925  0.00  0.00    -0.224 NA
ATOM      5  C   UNL d   1     -41.929-123.214 -51.097  0.00  0.00     0.099 A 
ATOM      6  C   UNL d   1     -42.190-123.812 -50.622  0.00  0.00     0.021 A 
ATOM      7  C   UNL d   1     -41.659-122.497 -50.755  0.00  0.00     0.083 A 
ATOM      8  C   UNL d   1     -42.192-123.724 -49.823  0.00  0.00     0.002 A 
ATOM      9  C   UNL d   1     -41.935-123.036 -49.448  0.00  0.00     0.002 A 
ATOM     10  C   UNL d   1     -41.668-122.426 -49.942  0.00  0.00     0.019 A 
ATOM     11  N   UNL d   1     -41.431-122.002 -51.389  0.00  0.00    -0.285 N 
ATOM     12  C   UNL d   1     -41.123-121.230 -51.386  0.00  0.00     0.101 C 
ENDBRANCH   1   3
BRANCH   1  13
ATOM     13  C   UNL d   1     -41.476-122.582 -53.528  0.00  0.00     0.064 A 
ATOM     14  C   UNL d   1     -41.895-122.332 -54.183  0.00  0.00     0.130 A 
ATOM     15  C   UNL d   1     -41.974-122.824 -54.837  0.00  0.00     0.024 A 
ATOM     16  C   UNL d   1     -41.631-123.575 -54.840  0.00  0.00     0.002 A 
ATOM     17  C   UNL d   1     -41.204-123.817 -54.160  0.00  0.00     0.000 A 
ATOM     18  C   UNL d   1     -41.123-123.327 -53.503  0.00  0.00     0.005 A 
BRANCH  14  19
ATOM     19  N   UNL d   1     -42.243-121.579 -54.189  0.00  0.00    -0.114 N 
ATOM     20  O   UNL d   1     -43.027-121.562 -53.959  0.00  0.00    -0.532 OA
ATOM     21  O   UNL d   1     -41.810-120.892 -54.417  0.00  0.00    -0.532 OA
ENDBRANCH  14  19
ENDBRANCH   1  13
TORSDOF 3
ENDMDL
MODEL 2
REMARK VINA RESULT:      -4.0      1.750      3.782
REMARK  3 active torsions:
REMARK  status: ('A' for Active; 'I' for Inactive)
REMARK    1  A    between atoms: C_4  and  C_1 
REMARK    2  A    between atoms: C_6  and  C_4 
REMARK    3  A    between atoms: N_5  and  C_7 
ROOT
ATOM      1  C   UNL d   1     -42.244-122.305 -50.694  0.00  0.00     0.231 C 
ATOM      2  O   UNL d   1     -42.638-121.604 -50.557  0.00  0.00    -0.283 OA
ENDROOT
BRANCH   1   3
ATOM      3  C   UNL d   1     -42.022-122.526 -51.465  0.00  0.00     0.188 A 
ATOM      4  N   UNL d   1     -42.181-123.245 -51.824  0.00  0.00    -0.224 NA
ATOM      5  C   UNL d   1     -41.864-123.246 -52.598  0.00  0.00     0.099 A 
ATOM      6  C   UNL d   1     -41.850-123.790 -53.195  0.00  0.00     0.021 A 
ATOM      7  C   UNL d   1     -41.502-122.498 -52.707  0.00  0.00     0.083 A 
ATOM      8  C   UNL d   1     -41.491-123.617 -53.893  0.00  0.00     0.002 A 
ATOM      9  C   UNL d   1     -41.124-122.893 -54.039  0.00  0.00     0.002 A 
ATOM     10  C   UNL d   1     -41.142-122.340 -53.422  0.00  0.00     0.019 A 
ATOM     11  N   UNL d   1     -41.613-122.074 -51.995  0.00  0.00    -0.285 N 
ATOM     12  C   UNL d   1     -41.375-121.307 -51.782  0.00  0.00     0.101 C 
ENDBRANCH   1   3
BRANCH   1  13
ATOM     13  C   UNL d   1     -42.057-122.817 -50.043  0.00  0.00     0.064 A 
ATOM     14  C   UNL d   1     -42.613-122.971 -49.464  0.00  0.00     0.130 A 
ATOM     15  C   UNL d   1     -42.428-123.468 -48.835  0.00  0.00     0.024 A 
ATOM     16  C   UNL d   1     -41.682-123.816 -48.782  0.00  0.00     0.002 A 
ATOM     17  C   UNL d   1     -41.123-123.649 -49.384  0.00  0.00     0.000 A 
ATOM     18  C   UNL d   1     -41.304-123.152 -50.016  0.00  0.00     0.005 A 
BRANCH  14  19
ATOM     19  N   UNL d   1     -43.365-122.625 -49.509  0.00  0.00    -0.114 N 
ATOM     20  O   UNL d   1     -43.437-121.908 -49.124  0.00  0.00    -0.532 OA
ATOM     21  O   UNL d   1     -44.000-122.996 -49.925  0.00  0.00    -0.532 OA
ENDBRANCH  14  19
ENDBRANCH   1  13
TORSDOF 3
ENDMDL
MODEL 3
REMARK VINA RESULT:      -3.3      1.877      3.066
REMARK  3 active torsions:
REMARK  status: ('A' for Active; 'I' for Inactive)
REMARK    1  A    between atoms: C_4  and  C_1 
REMARK    2  A    between atoms: C_6  and  C_4 
REMARK    3  A    between atoms: N_5  and  C_7 
ROOT
ATOM      1  C   UNL d   1     -42.349-122.987 -50.569  0.00  0.00     0.231 C 
ATOM      2  O   UNL d   1     -42.848-123.450 -51.018  0.00  0.00    -0.283 OA
ENDROOT
BRANCH   1   3
ATOM      3  C   UNL d   1     -42.243-123.139 -49.757  0.00  0.00     0.188 A 
ATOM      4  N   UNL d   1     -41.533-123.094 -49.350  0.00  0.00    -0.224 NA
ATOM      5  C   UNL d   1     -41.662-123.287 -48.546  0.00  0.00     0.099 A 
ATOM      6  C   UNL d   1     -41.181-123.335 -47.899  0.00  0.00     0.021 A 
ATOM      7  C   UNL d   1     -42.481-123.454 -48.470  0.00  0.00     0.083 A 
ATOM      8  C   UNL d   1     -41.483-123.542 -47.183  0.00  0.00     0.002 A 
ATOM      9  C   UNL d   1     -42.281-123.713 -47.068  0.00  0.00     0.002 A 
ATOM     10  C   UNL d   1     -42.769-123.663 -47.736  0.00  0.00     0.019 A 
ATOM     11  N   UNL d   1     -42.814-123.356 -49.231  0.00  0.00    -0.285 N 
ATOM     12  C   UNL d   1     -43.599-123.446 -49.490  0.00  0.00     0.101 C 
ENDBRANCH   1   3
BRANCH   1  13
ATOM     13  C   UNL d   1     -41.933-122.342 -50.931  0.00  0.00     0.064 A 
ATOM     14  C   UNL d   1     -41.574-122.437 -51.659  0.00  0.00     0.130 A 
ATOM     15  C   UNL d   1     -41.171-121.811 -52.007  0.00  0.00     0.024 A 
ATOM     16  C   UNL d   1     -41.124-121.080 -51.626  0.00  0.00     0.002 A 
ATOM     17  C   UNL d   1     -41.497-120.999 -50.880  0.00  0.00     0.000 A 
ATOM     18  C   UNL d   1     -41.902-121.624 -50.527  0.00  0.00     0.005 A 
BRANCH  14  19
ATOM     19  N   UNL d   1     -41.616-123.168 -52.049  0.00  0.00    -0.114 N 
ATOM     20  O   UNL d   1     -42.166-123.204 -52.653  0.00  0.00    -0.532 OA
ATOM     21  O   UNL d   1     -41.123-123.817 -51.830  0.00  0.00    -0.532 OA
ENDBRANCH  14  19
ENDBRANCH   1  13
TORSDOF 3
ENDMDL
