MODEL 1
REMARK VINA RESULT:      90.0      0.000      0.000
REMARK  5 active torsions:
REMARK  status: ('A' for Active; 'I' for Inactive)
REMARK    1  A    between atoms: N_2  and  S_1 
REMARK    2  A    between atoms: C_10  and  S_1 
REMARK    3  A    between atoms: S_6  and  C_3 
REMARK    4  A    between atoms: C_4  and  C_7 
REMARK    5  A    between atoms: C_7  and  S_6 
ROOT
ATOM      1  N   UNL d   1     -57.239 -98.914 -44.285  0.00  0.00    -0.208 N 
ATOM      2  C   UNL d   1     -56.459 -99.164 -44.140  0.00  0.00     0.189 A 
ATOM      3  N   UNL d   1     -56.331 -99.159 -43.317  0.00  0.00    -0.219 NA
ATOM      4  C   UNL d   1     -57.592 -98.755 -43.550  0.00  0.00     0.114 A 
ATOM      5  C   UNL d   1     -57.034 -98.906 -42.958  0.00  0.00     0.121 A 
ENDROOT
BRANCH   2   6
ATOM      6  S   UNL d   1     -55.907 -99.380 -44.721  0.00  0.00    -0.049 SA
BRANCH   6   7
ATOM      7  C   UNL d   1     -55.186 -99.713 -44.491  0.00  0.00     0.041 C 
BRANCH   7   8
ATOM      8  C   UNL d   1     -55.047-100.515 -44.393  0.00  0.00     0.045 A 
ATOM      9  C   UNL d   1     -55.098-101.029 -45.033  0.00  0.00     0.141 A 
ATOM     10  F   UNL d   1     -55.292-100.740 -45.790  0.00  0.00    -0.204 F 
ATOM     11  C   UNL d   1     -54.957-101.841 -44.933  0.00  0.00     0.030 A 
ATOM     12  C   UNL d   1     -54.763-102.131 -44.176  0.00  0.00     0.003 A 
ATOM     13  C   UNL d   1     -54.711-101.616 -43.536  0.00  0.00     0.012 A 
ATOM     14  C   UNL d   1     -54.853-100.805 -43.641  0.00  0.00     0.060 A 
ATOM     15 CL   UNL d   1     -54.799-100.299 -42.993  0.00  0.00    -0.082 Cl
ENDBRANCH   7   8
ENDBRANCH   6   7
ENDBRANCH   2   6
BRANCH   1  16
ATOM     16  S   UNL d   1     -57.601 -98.837 -45.025  0.00  0.00     0.273 S 
ATOM     17  O   UNL d   1     -56.840 -98.815 -45.347  0.00  0.00    -0.200 OA
ATOM     18  O   UNL d   1     -57.713 -98.755 -45.841  0.00  0.00    -0.200 OA
BRANCH  16  19
ATOM     19  C   UNL d   1     -58.366 -98.856 -44.724  0.00  0.00     0.104 A 
ATOM     20  C   UNL d   1     -59.002 -98.757 -45.232  0.00  0.00     0.013 A 
ATOM     21  C   UNL d   1     -59.767 -98.777 -44.927  0.00  0.00     0.001 A 
ATOM     22  C   UNL d   1     -59.896 -98.895 -44.125  0.00  0.00     0.000 A 
ATOM     23  C   UNL d   1     -59.247 -98.995 -43.618  0.00  0.00     0.001 A 
ATOM     24  C   UNL d   1     -58.483 -98.974 -43.923  0.00  0.00     0.013 A 
ENDBRANCH  16  19
ENDBRANCH   1  16
TORSDOF 5
ENDMDL
MODEL 2
REMARK VINA RESULT:      92.2      1.804      4.102
REMARK  5 active torsions:
REMARK  status: ('A' for Active; 'I' for Inactive)
REMARK    1  A    between atoms: N_2  and  S_1 
REMARK    2  A    between atoms: C_10  and  S_1 
REMARK    3  A    between atoms: S_6  and  C_3 
REMARK    4  A    between atoms: C_4  and  C_7 
REMARK    5  A    between atoms: C_7  and  S_6 
ROOT
ATOM      1  N   UNL d   1     -56.313-101.108 -43.784  0.00  0.00    -0.208 N 
ATOM      2  C   UNL d   1     -57.002-100.641 -43.791  0.00  0.00     0.189 A 
ATOM      3  N   UNL d   1     -57.650-101.128 -43.604  0.00  0.00    -0.219 NA
ATOM      4  C   UNL d   1     -56.539-101.885 -43.591  0.00  0.00     0.114 A 
ATOM      5  C   UNL d   1     -57.359-101.893 -43.481  0.00  0.00     0.121 A 
ENDROOT
BRANCH   2   6
ATOM      6  S   UNL d   1     -57.030 -99.828 -43.958  0.00  0.00    -0.049 SA
BRANCH   6   7
ATOM      7  C   UNL d   1     -57.668 -99.524 -44.387  0.00  0.00     0.041 C 
BRANCH   7   8
ATOM      8  C   UNL d   1     -58.410 -99.361 -44.078  0.00  0.00     0.045 A 
ATOM      9  C   UNL d   1     -59.090 -99.567 -44.493  0.00  0.00     0.141 A 
ATOM     10  F   UNL d   1     -59.031 -99.945 -45.233  0.00  0.00    -0.204 F 
ATOM     11  C   UNL d   1     -59.840 -99.401 -44.179  0.00  0.00     0.030 A 
ATOM     12  C   UNL d   1     -59.898 -99.024 -43.439  0.00  0.00     0.003 A 
ATOM     13  C   UNL d   1     -59.218 -98.818 -43.024  0.00  0.00     0.012 A 
ATOM     14  C   UNL d   1     -58.470 -98.986 -43.342  0.00  0.00     0.060 A 
ATOM     15 CL   UNL d   1     -57.796 -98.775 -42.917  0.00  0.00    -0.082 Cl
ENDBRANCH   7   8
ENDBRANCH   6   7
ENDBRANCH   2   6
BRANCH   1  16
ATOM     16  S   UNL d   1     -55.542-100.851 -43.940  0.00  0.00     0.273 S 
ATOM     17  O   UNL d   1     -55.674-100.258 -43.379  0.00  0.00    -0.200 OA
ATOM     18  O   UNL d   1     -54.838-100.417 -43.915  0.00  0.00    -0.200 OA
BRANCH  16  19
ATOM     19  C   UNL d   1     -55.393-101.433 -44.501  0.00  0.00     0.104 A 
ATOM     20  C   UNL d   1     -54.863-101.281 -45.108  0.00  0.00     0.013 A 
ATOM     21  C   UNL d   1     -54.716-101.867 -45.668  0.00  0.00     0.001 A 
ATOM     22  C   UNL d   1     -55.092-102.595 -45.624  0.00  0.00     0.000 A 
ATOM     23  C   UNL d   1     -55.627-102.740 -45.006  0.00  0.00     0.001 A 
ATOM     24  C   UNL d   1     -55.774-102.155 -44.446  0.00  0.00     0.013 A 
ENDBRANCH  16  19
ENDBRANCH   1  16
TORSDOF 5
ENDMDL
