MODEL 1
REMARK VINA RESULT:      -5.0      0.000      0.000
REMARK  5 active torsions:
REMARK  status: ('A' for Active; 'I' for Inactive)
REMARK    1  A    between atoms: C_6  and  N_2 
REMARK    2  A    between atoms: C_8  and  C_6 
REMARK    3  A    between atoms: C_13  and  C_8 
REMARK    4  A    between atoms: C_9  and  O_12 
REMARK    5  A    between atoms: O_12  and  C_13 
ROOT
ATOM      1  N   UNL d   1      59.895  -0.620  28.690  0.00  0.00    -0.227 NA
ATOM      2  N   UNL d   1      58.755  -0.681  29.387  0.00  0.00    -0.289 N 
ATOM      3  C   UNL d   1      59.324  -0.148  29.081  0.00  0.00     0.148 A 
ATOM      4  C   UNL d   1      58.970  -1.446  29.191  0.00  0.00     0.083 A 
ATOM      5  C   UNL d   1      59.707  -1.406  28.741  0.00  0.00     0.099 A 
ATOM      6  C   UNL d   1      59.322   0.682  29.151  0.00  0.00     0.041 C 
ATOM      7  C   UNL d   1      58.615  -2.161  29.351  0.00  0.00     0.019 A 
ATOM      8  C   UNL d   1      60.018  -2.139  28.489  0.00  0.00     0.021 A 
ATOM      9  C   UNL d   1      58.974  -2.832  29.075  0.00  0.00     0.002 A 
ATOM     10  C   UNL d   1      59.662  -2.795  28.654  0.00  0.00     0.002 A 
ENDROOT
BRANCH   2  11
ATOM     11  C   UNL d   1      58.159  -0.326  29.783  0.00  0.00     0.084 C 
BRANCH  11  12
ATOM     12  C   UNL d   1      58.095  -0.348  30.605  0.00  0.00     0.046 C 
BRANCH  12  13
ATOM     13  C   UNL d   1      57.388  -0.250  31.006  0.00  0.00     0.124 C 
BRANCH  13  14
ATOM     14  O   UNL d   1      57.346  -0.064  31.799  0.00  0.00    -0.305 OA
BRANCH  14  15
ATOM     15  C   UNL d   1      56.697  -0.245  32.274  0.00  0.00     0.100 A 
ATOM     16  C   UNL d   1      56.256   0.390  32.599  0.00  0.00     0.025 A 
ATOM     17  C   UNL d   1      55.591   0.231  33.086  0.00  0.00     0.002 A 
ATOM     18  C   UNL d   1      55.368  -0.560  33.247  0.00  0.00     0.000 A 
ATOM     19  C   UNL d   1      55.809  -1.194  32.922  0.00  0.00     0.002 A 
ATOM     20  C   UNL d   1      56.457  -1.014  32.448  0.00  0.00     0.025 A 
ENDBRANCH  14  15
ENDBRANCH  13  14
ENDBRANCH  12  13
ENDBRANCH  11  12
ENDBRANCH   2  11
TORSDOF 5
ENDMDL
MODEL 2
REMARK VINA RESULT:      -3.7      1.783      5.086
REMARK  5 active torsions:
REMARK  status: ('A' for Active; 'I' for Inactive)
REMARK    1  A    between atoms: C_6  and  N_2 
REMARK    2  A    between atoms: C_8  and  C_6 
REMARK    3  A    between atoms: C_13  and  C_8 
REMARK    4  A    between atoms: C_9  and  O_12 
REMARK    5  A    between atoms: O_12  and  C_13 
ROOT
ATOM      1  N   UNL d   1      57.284   0.658  34.109  0.00  0.00    -0.227 NA
ATOM      2  N   UNL d   1      57.004   0.670  32.801  0.00  0.00    -0.289 N 
ATOM      3  C   UNL d   1      57.637   0.671  33.349  0.00  0.00     0.148 A 
ATOM      4  C   UNL d   1      56.295   0.658  33.208  0.00  0.00     0.083 A 
ATOM      5  C   UNL d   1      56.476   0.650  34.054  0.00  0.00     0.099 A 
ATOM      6  C   UNL d   1      58.451   0.682  33.175  0.00  0.00     0.041 C 
ATOM      7  C   UNL d   1      55.524   0.652  32.945  0.00  0.00     0.019 A 
ATOM      8  C   UNL d   1      55.817   0.637  34.566  0.00  0.00     0.021 A 
ATOM      9  C   UNL d   1      54.935   0.639  33.500  0.00  0.00     0.002 A 
ATOM     10  C   UNL d   1      55.104   0.632  34.290  0.00  0.00     0.002 A 
ENDROOT
BRANCH   2  11
ATOM     11  C   UNL d   1      57.238   0.682  32.037  0.00  0.00     0.084 C 
BRANCH  11  12
ATOM     12  C   UNL d   1      57.219   0.013  31.555  0.00  0.00     0.046 C 
BRANCH  12  13
ATOM     13  C   UNL d   1      57.648  -0.055  30.861  0.00  0.00     0.124 C 
BRANCH  13  14
ATOM     14  O   UNL d   1      57.610  -0.711  30.375  0.00  0.00    -0.305 OA
BRANCH  14  15
ATOM     15  C   UNL d   1      58.198  -0.907  29.831  0.00  0.00     0.100 A 
ATOM     16  C   UNL d   1      58.407  -1.714  29.749  0.00  0.00     0.025 A 
ATOM     17  C   UNL d   1      59.002  -1.938  29.202  0.00  0.00     0.002 A 
ATOM     18  C   UNL d   1      59.387  -1.357  28.738  0.00  0.00     0.000 A 
ATOM     19  C   UNL d   1      59.178  -0.550  28.821  0.00  0.00     0.002 A 
ATOM     20  C   UNL d   1      58.592  -0.353  29.364  0.00  0.00     0.025 A 
ENDBRANCH  14  15
ENDBRANCH  13  14
ENDBRANCH  12  13
ENDBRANCH  11  12
ENDBRANCH   2  11
TORSDOF 5
ENDMDL
MODEL 3
REMARK VINA RESULT:      -2.8      1.512      4.702
REMARK  5 active torsions:
REMARK  status: ('A' for Active; 'I' for Inactive)
REMARK    1  A    between atoms: C_6  and  N_2 
REMARK    2  A    between atoms: C_8  and  C_6 
REMARK    3  A    between atoms: C_13  and  C_8 
REMARK    4  A    between atoms: C_9  and  O_12 
REMARK    5  A    between atoms: O_12  and  C_13 
ROOT
ATOM      1  N   UNL d   1      56.426   0.590  31.353  0.00  0.00    -0.227 NA
ATOM      2  N   UNL d   1      57.316  -0.407  31.287  0.00  0.00    -0.289 N 
ATOM      3  C   UNL d   1      57.090   0.314  30.925  0.00  0.00     0.148 A 
ATOM      4  C   UNL d   1      56.810  -0.565  31.910  0.00  0.00     0.083 A 
ATOM      5  C   UNL d   1      56.234   0.080  31.953  0.00  0.00     0.099 A 
ATOM      6  C   UNL d   1      57.454   0.682  30.272  0.00  0.00     0.041 C 
ATOM      7  C   UNL d   1      56.784  -1.185  32.436  0.00  0.00     0.019 A 
ATOM      8  C   UNL d   1      55.666   0.017  32.561  0.00  0.00     0.021 A 
ATOM      9  C   UNL d   1      56.203  -1.179  33.001  0.00  0.00     0.002 A 
ATOM     10  C   UNL d   1      55.666  -0.577  33.041  0.00  0.00     0.002 A 
ENDROOT
BRANCH   2  11
ATOM     11  C   UNL d   1      57.949  -0.755  30.947  0.00  0.00     0.084 C 
BRANCH  11  12
ATOM     12  C   UNL d   1      57.907  -1.151  30.225  0.00  0.00     0.046 C 
BRANCH  12  13
ATOM     13  C   UNL d   1      58.494  -1.649  29.947  0.00  0.00     0.124 C 
BRANCH  13  14
ATOM     14  O   UNL d   1      58.425  -2.081  29.258  0.00  0.00    -0.305 OA
BRANCH  14  15
ATOM     15  C   UNL d   1      58.990  -2.624  29.004  0.00  0.00     0.100 A 
ATOM     16  C   UNL d   1      59.798  -2.405  29.049  0.00  0.00     0.025 A 
ATOM     17  C   UNL d   1      60.391  -2.940  28.796  0.00  0.00     0.002 A 
ATOM     18  C   UNL d   1      60.179  -3.694  28.500  0.00  0.00     0.000 A 
ATOM     19  C   UNL d   1      59.372  -3.914  28.456  0.00  0.00     0.002 A 
ATOM     20  C   UNL d   1      58.806  -3.372  28.709  0.00  0.00     0.025 A 
ENDBRANCH  14  15
ENDBRANCH  13  14
ENDBRANCH  12  13
ENDBRANCH  11  12
ENDBRANCH   2  11
TORSDOF 5
ENDMDL
