MODEL 1
REMARK VINA RESULT:       7.8      0.000      0.000
REMARK  3 active torsions:
REMARK  status: ('A' for Active; 'I' for Inactive)
REMARK    1  A    between atoms: S_2  and  C_5 
REMARK    2  A    between atoms: C_7  and  S_2 
REMARK    3  A    between atoms: C_3  and  C_7 
ROOT
ATOM      1  C   UNL d   1      14.317  11.815  -1.272  0.00  0.00     0.087 A 
ATOM      2  N   UNL d   1      15.044  11.827  -1.666  0.00  0.00    -0.244 NA
ATOM      3  C   UNL d   1      13.612  11.791  -1.697  0.00  0.00     0.043 A 
ATOM      4  C   UNL d   1      14.307  11.828  -0.447  0.00  0.00     0.018 A 
ATOM      5  C   UNL d   1      12.876  11.792  -0.481  0.00  0.00     0.001 A 
ATOM      6  C   UNL d   1      15.748  11.852  -1.233  0.00  0.00     0.099 A 
ATOM      7  C   UNL d   1      12.886  11.779  -1.302  0.00  0.00     0.008 A 
ATOM      8  C   UNL d   1      13.581  11.816  -0.052  0.00  0.00     0.002 A 
ATOM      9  C   UNL d   1      14.999  11.852  -0.014  0.00  0.00     0.003 A 
ATOM     10  C   UNL d   1      15.725  11.864  -0.405  0.00  0.00     0.021 A 
ENDROOT
BRANCH   3  11
ATOM     11  S   UNL d   1      13.635  11.779  -2.525  0.00  0.00    -0.101 SA
BRANCH  11  12
ATOM     12  C   UNL d   1      13.072  11.883  -3.132  0.00  0.00     0.160 C 
BRANCH  12  13
ATOM     13  C   UNL d   1      13.085  12.213  -3.893  0.00  0.00     0.197 C 
ATOM     14  O   UNL d   1      12.783  12.973  -4.020  0.00  0.00    -0.647 OA
ATOM     15  O   UNL d   1      13.398  11.783  -4.526  0.00  0.00    -0.647 OA
ENDBRANCH  12  13
ENDBRANCH  11  12
ENDBRANCH   3  11
TORSDOF 3
ENDMDL
