MODEL 1
REMARK VINA RESULT:      -3.1      0.000      0.000
REMARK  0 active torsions:
REMARK  status: ('A' for Active; 'I' for Inactive)
ROOT
ATOM      1  N   UNL d   1      30.655  15.958 -23.492  0.00  0.00    -0.242 NA
ATOM      2  N   UNL d   1      29.970  17.152 -24.376  0.00  0.00    -0.242 NA
ATOM      3  C   UNL d   1      30.798  17.105 -24.315  0.00  0.00     0.101 A 
ATOM      4  C   UNL d   1      31.137  16.513 -23.878  0.00  0.00     0.101 A 
ATOM      5  C   UNL d   1      31.261  17.655 -24.698  0.00  0.00     0.043 A 
ATOM      6  C   UNL d   1      31.950  16.454 -23.809  0.00  0.00     0.043 A 
ATOM      7  C   UNL d   1      32.435  17.003 -24.189  0.00  0.00     0.124 A 
ATOM      8  C   UNL d   1      32.088  17.607 -24.637  0.00  0.00     0.124 A 
ATOM      9  C   UNL d   1      29.494  16.597 -23.991  0.00  0.00     0.099 A 
ATOM     10  C   UNL d   1      29.833  16.006 -23.553  0.00  0.00     0.099 A 
ATOM     11  N   UNL d   1      33.240  16.957 -24.130  0.00  0.00    -0.146 N 
ATOM     12  N   UNL d   1      32.545  18.142 -25.008  0.00  0.00    -0.146 N 
ATOM     13  C   UNL d   1      29.358  15.453 -23.169  0.00  0.00     0.021 A 
ATOM     14  C   UNL d   1      28.673  16.646 -24.053  0.00  0.00     0.021 A 
ATOM     15  C   UNL d   1      28.192  16.089 -23.667  0.00  0.00     0.002 A 
ATOM     16  C   UNL d   1      28.531  15.498 -23.229  0.00  0.00     0.002 A 
ENDROOT
TORSDOF 0
ENDMDL
MODEL 2
REMARK VINA RESULT:      -2.8      4.753      5.929
REMARK  0 active torsions:
REMARK  status: ('A' for Active; 'I' for Inactive)
ROOT
ATOM      1  N   UNL d   1      33.222  20.988 -22.533  0.00  0.00    -0.242 NA
ATOM      2  N   UNL d   1      33.235  19.997 -21.231  0.00  0.00    -0.242 NA
ATOM      3  C   UNL d   1      33.229  20.822 -21.124  0.00  0.00     0.101 A 
ATOM      4  C   UNL d   1      33.222  21.312 -21.769  0.00  0.00     0.101 A 
ATOM      5  C   UNL d   1      33.229  21.129 -20.370  0.00  0.00     0.043 A 
ATOM      6  C   UNL d   1      33.216  22.125 -21.679  0.00  0.00     0.043 A 
ATOM      7  C   UNL d   1      33.216  22.455 -20.922  0.00  0.00     0.124 A 
ATOM      8  C   UNL d   1      33.223  21.953 -20.263  0.00  0.00     0.124 A 
ATOM      9  C   UNL d   1      33.235  19.679 -21.994  0.00  0.00     0.099 A 
ATOM     10  C   UNL d   1      33.228  20.169 -22.638  0.00  0.00     0.099 A 
ATOM     11  N   UNL d   1      33.210  23.256 -20.818  0.00  0.00    -0.146 N 
ATOM     12  N   UNL d   1      33.224  22.258 -19.529  0.00  0.00    -0.146 N 
ATOM     13  C   UNL d   1      33.228  19.851 -23.399  0.00  0.00     0.021 A 
ATOM     14  C   UNL d   1      33.241  18.860 -22.097  0.00  0.00     0.021 A 
ATOM     15  C   UNL d   1      33.241  18.537 -22.863  0.00  0.00     0.002 A 
ATOM     16  C   UNL d   1      33.234  19.027 -23.507  0.00  0.00     0.002 A 
ENDROOT
TORSDOF 0
ENDMDL
MODEL 3
REMARK VINA RESULT:      -2.8      4.885      5.960
REMARK  0 active torsions:
REMARK  status: ('A' for Active; 'I' for Inactive)
ROOT
ATOM      1  N   UNL d   1      33.238  20.291 -21.275  0.00  0.00    -0.242 NA
ATOM      2  N   UNL d   1      33.238  21.210 -22.629  0.00  0.00    -0.242 NA
ATOM      3  C   UNL d   1      33.237  21.574 -21.881  0.00  0.00     0.101 A 
ATOM      4  C   UNL d   1      33.237  21.119 -21.211  0.00  0.00     0.101 A 
ATOM      5  C   UNL d   1      33.236  22.386 -21.830  0.00  0.00     0.043 A 
ATOM      6  C   UNL d   1      33.235  21.463 -20.469  0.00  0.00     0.043 A 
ATOM      7  C   UNL d   1      33.235  22.286 -20.397  0.00  0.00     0.124 A 
ATOM      8  C   UNL d   1      33.235  22.751 -21.083  0.00  0.00     0.124 A 
ATOM      9  C   UNL d   1      33.239  20.386 -22.688  0.00  0.00     0.099 A 
ATOM     10  C   UNL d   1      33.239  19.931 -22.017  0.00  0.00     0.099 A 
ATOM     11  N   UNL d   1      33.233  22.639 -19.670  0.00  0.00    -0.146 N 
ATOM     12  N   UNL d   1      33.234  23.544 -21.028  0.00  0.00    -0.146 N 
ATOM     13  C   UNL d   1      33.240  19.109 -22.077  0.00  0.00     0.021 A 
ATOM     14  C   UNL d   1      33.240  20.027 -23.431  0.00  0.00     0.021 A 
ATOM     15  C   UNL d   1      33.241  19.198 -23.493  0.00  0.00     0.002 A 
ATOM     16  C   UNL d   1      33.241  18.744 -22.823  0.00  0.00     0.002 A 
ENDROOT
TORSDOF 0
ENDMDL
MODEL 4
REMARK VINA RESULT:      -2.7      4.033      5.321
REMARK  0 active torsions:
REMARK  status: ('A' for Active; 'I' for Inactive)
ROOT
ATOM      1  N   UNL d   1      33.106  20.019 -21.330  0.00  0.00    -0.242 NA
ATOM      2  N   UNL d   1      33.240  20.914 -22.693  0.00  0.00    -0.242 NA
ATOM      3  C   UNL d   1      33.207  20.084 -22.743  0.00  0.00     0.101 A 
ATOM      4  C   UNL d   1      33.140  19.641 -22.069  0.00  0.00     0.101 A 
ATOM      5  C   UNL d   1      33.241  19.725 -23.473  0.00  0.00     0.043 A 
ATOM      6  C   UNL d   1      33.106  18.825 -22.103  0.00  0.00     0.043 A 
ATOM      7  C   UNL d   1      33.140  18.443 -22.834  0.00  0.00     0.124 A 
ATOM      8  C   UNL d   1      33.208  18.896 -23.524  0.00  0.00     0.124 A 
ATOM      9  C   UNL d   1      33.205  21.285 -21.955  0.00  0.00     0.099 A 
ATOM     10  C   UNL d   1      33.139  20.842 -21.280  0.00  0.00     0.099 A 
ATOM     11  N   UNL d   1      33.107  17.636 -22.883  0.00  0.00    -0.146 N 
ATOM     12  N   UNL d   1      33.241  18.540 -24.234  0.00  0.00    -0.146 N 
ATOM     13  C   UNL d   1      33.105  21.213 -20.545  0.00  0.00     0.021 A 
ATOM     14  C   UNL d   1      33.239  22.108 -21.908  0.00  0.00     0.021 A 
ATOM     15  C   UNL d   1      33.204  22.484 -21.168  0.00  0.00     0.002 A 
ATOM     16  C   UNL d   1      33.138  22.041 -20.493  0.00  0.00     0.002 A 
ENDROOT
TORSDOF 0
ENDMDL
MODEL 5
REMARK VINA RESULT:      -2.5      3.238      4.530
REMARK  0 active torsions:
REMARK  status: ('A' for Active; 'I' for Inactive)
ROOT
ATOM      1  N   UNL d   1      33.239  19.483 -23.826  0.00  0.00    -0.242 NA
ATOM      2  N   UNL d   1      33.087  18.596 -22.460  0.00  0.00    -0.242 NA
ATOM      3  C   UNL d   1      33.125  19.425 -22.413  0.00  0.00     0.101 A 
ATOM      4  C   UNL d   1      33.200  19.864 -23.090  0.00  0.00     0.101 A 
ATOM      5  C   UNL d   1      33.086  19.789 -21.686  0.00  0.00     0.043 A 
ATOM      6  C   UNL d   1      33.238  20.681 -23.060  0.00  0.00     0.043 A 
ATOM      7  C   UNL d   1      33.200  21.067 -22.331  0.00  0.00     0.124 A 
ATOM      8  C   UNL d   1      33.123  20.618 -21.639  0.00  0.00     0.124 A 
ATOM      9  C   UNL d   1      33.127  18.221 -23.195  0.00  0.00     0.099 A 
ATOM     10  C   UNL d   1      33.202  18.660 -23.872  0.00  0.00     0.099 A 
ATOM     11  N   UNL d   1      33.236  21.873 -22.286  0.00  0.00    -0.146 N 
ATOM     12  N   UNL d   1      33.085  20.978 -20.931  0.00  0.00    -0.146 N 
ATOM     13  C   UNL d   1      33.241  18.284 -24.604  0.00  0.00     0.021 A 
ATOM     14  C   UNL d   1      33.089  17.397 -23.238  0.00  0.00     0.021 A 
ATOM     15  C   UNL d   1      33.128  17.017 -23.976  0.00  0.00     0.002 A 
ATOM     16  C   UNL d   1      33.204  17.456 -24.653  0.00  0.00     0.002 A 
ENDROOT
TORSDOF 0
ENDMDL
MODEL 6
REMARK VINA RESULT:      -2.1      6.275      7.155
REMARK  0 active torsions:
REMARK  status: ('A' for Active; 'I' for Inactive)
ROOT
ATOM      1  N   UNL d   1      33.206  21.943 -22.731  0.00  0.00    -0.242 NA
ATOM      2  N   UNL d   1      32.684  23.479 -22.520  0.00  0.00    -0.242 NA
ATOM      3  C   UNL d   1      32.800  22.987 -21.860  0.00  0.00     0.101 A 
ATOM      4  C   UNL d   1      33.058  22.226 -21.964  0.00  0.00     0.101 A 
ATOM      5  C   UNL d   1      32.651  23.275 -21.113  0.00  0.00     0.043 A 
ATOM      6  C   UNL d   1      33.176  21.730 -21.325  0.00  0.00     0.043 A 
ATOM      7  C   UNL d   1      33.031  22.005 -20.560  0.00  0.00     0.124 A 
ATOM      8  C   UNL d   1      32.767  22.783 -20.453  0.00  0.00     0.124 A 
ATOM      9  C   UNL d   1      32.833  23.193 -23.281  0.00  0.00     0.099 A 
ATOM     10  C   UNL d   1      33.091  22.432 -23.385  0.00  0.00     0.099 A 
ATOM     11  N   UNL d   1      33.143  21.526 -19.918  0.00  0.00    -0.146 N 
ATOM     12  N   UNL d   1      32.623  23.060 -19.722  0.00  0.00    -0.146 N 
ATOM     13  C   UNL d   1      33.239  22.148 -24.144  0.00  0.00     0.021 A 
ATOM     14  C   UNL d   1      32.717  23.684 -23.934  0.00  0.00     0.021 A 
ATOM     15  C   UNL d   1      32.866  23.399 -24.701  0.00  0.00     0.002 A 
ATOM     16  C   UNL d   1      33.125  22.638 -24.805  0.00  0.00     0.002 A 
ENDROOT
TORSDOF 0
ENDMDL
MODEL 7
REMARK VINA RESULT:      -1.9      6.112      6.915
REMARK  0 active torsions:
REMARK  status: ('A' for Active; 'I' for Inactive)
ROOT
ATOM      1  N   UNL d   1      33.095  21.790 -22.268  0.00  0.00    -0.242 NA
ATOM      2  N   UNL d   1      33.087  23.416 -22.095  0.00  0.00    -0.242 NA
ATOM      3  C   UNL d   1      33.123  23.081 -22.855  0.00  0.00     0.101 A 
ATOM      4  C   UNL d   1      33.127  22.275 -22.940  0.00  0.00     0.101 A 
ATOM      5  C   UNL d   1      33.154  23.567 -23.507  0.00  0.00     0.043 A 
ATOM      6  C   UNL d   1      33.162  21.931 -23.681  0.00  0.00     0.043 A 
ATOM      7  C   UNL d   1      33.194  22.408 -24.355  0.00  0.00     0.124 A 
ATOM      8  C   UNL d   1      33.190  23.231 -24.267  0.00  0.00     0.124 A 
ATOM      9  C   UNL d   1      33.056  22.929 -21.428  0.00  0.00     0.099 A 
ATOM     10  C   UNL d   1      33.060  22.124 -21.514  0.00  0.00     0.099 A 
ATOM     11  N   UNL d   1      33.229  22.081 -25.093  0.00  0.00    -0.146 N 
ATOM     12  N   UNL d   1      33.221  23.701 -24.908  0.00  0.00    -0.146 N 
ATOM     13  C   UNL d   1      33.028  21.639 -20.848  0.00  0.00     0.021 A 
ATOM     14  C   UNL d   1      33.020  23.266 -20.676  0.00  0.00     0.021 A 
ATOM     15  C   UNL d   1      32.988  22.778 -20.003  0.00  0.00     0.002 A 
ATOM     16  C   UNL d   1      32.992  21.972 -20.089  0.00  0.00     0.002 A 
ENDROOT
TORSDOF 0
ENDMDL
MODEL 8
REMARK VINA RESULT:      -1.8      7.029      7.962
REMARK  0 active torsions:
REMARK  status: ('A' for Active; 'I' for Inactive)
ROOT
ATOM      1  N   UNL d   1      32.899  23.653 -19.929  0.00  0.00    -0.242 NA
ATOM      2  N   UNL d   1      33.048  22.024 -19.896  0.00  0.00    -0.242 NA
ATOM      3  C   UNL d   1      32.938  22.415 -20.621  0.00  0.00     0.101 A 
ATOM      4  C   UNL d   1      32.864  23.221 -20.638  0.00  0.00     0.101 A 
ATOM      5  C   UNL d   1      32.905  21.982 -21.310  0.00  0.00     0.043 A 
ATOM      6  C   UNL d   1      32.756  23.620 -21.344  0.00  0.00     0.043 A 
ATOM      7  C   UNL d   1      32.720  23.197 -22.053  0.00  0.00     0.124 A 
ATOM      8  C   UNL d   1      32.795  22.373 -22.036  0.00  0.00     0.124 A 
ATOM      9  C   UNL d   1      33.082  22.457 -19.193  0.00  0.00     0.099 A 
ATOM     10  C   UNL d   1      33.008  23.264 -19.210  0.00  0.00     0.099 A 
ATOM     11  N   UNL d   1      32.613  23.578 -22.758  0.00  0.00    -0.146 N 
ATOM     12  N   UNL d   1      32.763  21.954 -22.711  0.00  0.00    -0.146 N 
ATOM     13  C   UNL d   1      33.043  23.695 -18.508  0.00  0.00     0.021 A 
ATOM     14  C   UNL d   1      33.191  22.066 -18.475  0.00  0.00     0.021 A 
ATOM     15  C   UNL d   1      33.226  22.500 -17.766  0.00  0.00     0.002 A 
ATOM     16  C   UNL d   1      33.153  23.306 -17.783  0.00  0.00     0.002 A 
ENDROOT
TORSDOF 0
ENDMDL
MODEL 9
REMARK VINA RESULT:      -1.5      0.152      1.300
REMARK  0 active torsions:
REMARK  status: ('A' for Active; 'I' for Inactive)
ROOT
ATOM      1  N   UNL d   1      29.988  17.151 -24.379  0.00  0.00    -0.242 NA
ATOM      2  N   UNL d   1      30.759  16.053 -23.443  0.00  0.00    -0.242 NA
ATOM      3  C   UNL d   1      31.198  16.625 -23.856  0.00  0.00     0.101 A 
ATOM      4  C   UNL d   1      30.816  17.169 -24.319  0.00  0.00     0.101 A 
ATOM      5  C   UNL d   1      32.009  16.633 -23.790  0.00  0.00     0.043 A 
ATOM      6  C   UNL d   1      31.235  17.738 -24.732  0.00  0.00     0.043 A 
ATOM      7  C   UNL d   1      32.059  17.762 -24.677  0.00  0.00     0.124 A 
ATOM      8  C   UNL d   1      32.448  17.206 -24.204  0.00  0.00     0.124 A 
ATOM      9  C   UNL d   1      29.935  16.039 -23.505  0.00  0.00     0.099 A 
ATOM     10  C   UNL d   1      29.554  16.583 -23.968  0.00  0.00     0.099 A 
ATOM     11  N   UNL d   1      32.485  18.319 -25.079  0.00  0.00    -0.146 N 
ATOM     12  N   UNL d   1      33.241  17.218 -24.143  0.00  0.00    -0.146 N 
ATOM     13  C   UNL d   1      28.732  16.568 -24.029  0.00  0.00     0.021 A 
ATOM     14  C   UNL d   1      29.502  15.469 -23.093  0.00  0.00     0.021 A 
ATOM     15  C   UNL d   1      28.673  15.452 -23.154  0.00  0.00     0.002 A 
ATOM     16  C   UNL d   1      28.292  15.996 -23.617  0.00  0.00     0.002 A 
ENDROOT
TORSDOF 0
ENDMDL
