MODEL 1
REMARK VINA RESULT:      15.9      0.000      0.000
REMARK  3 active torsions:
REMARK  status: ('A' for Active; 'I' for Inactive)
REMARK    1  A    between atoms: C_6  and  C_1 
REMARK    2  A    between atoms: C_7  and  C_5 
REMARK    3  A    between atoms: O_15  and  C_12 
ROOT
ATOM      1  C   UNL d   1     -55.016-102.124 -36.501  0.00  0.00     0.169 A 
ATOM      2  C   UNL d   1     -55.355-102.705 -36.861  0.00  0.00     0.048 A 
ATOM      3  N   UNL d   1     -54.777-101.549 -37.656  0.00  0.00    -0.148 NA
ATOM      4  N   UNL d   1     -54.730-101.552 -36.900  0.00  0.00    -0.142 NA
ATOM      5  C   UNL d   1     -55.116-102.130 -38.016  0.00  0.00     0.105 A 
ENDROOT
BRANCH   5   6
ATOM      6  C   UNL d   1     -55.268-102.316 -38.799  0.00  0.00     0.020 A 
ATOM      7  C   UNL d   1     -54.711-102.133 -39.384  0.00  0.00     0.004 A 
ATOM      8  C   UNL d   1     -54.863-102.320 -40.173  0.00  0.00     0.024 A 
ATOM      9  C   UNL d   1     -55.572-102.692 -40.382  0.00  0.00     0.094 A 
ATOM     10  C   UNL d   1     -56.129-102.875 -39.797  0.00  0.00     0.024 A 
ATOM     11  C   UNL d   1     -55.974-102.686 -39.006  0.00  0.00     0.004 A 
BRANCH   9  12
ATOM     12  O   UNL d   1     -55.724-102.879 -41.166  0.00  0.00    -0.328 OA
ATOM     13  C   UNL d   1     -55.167-102.706 -41.747  0.00  0.00     0.181 C 
ENDBRANCH   9  12
ENDBRANCH   5   6
BRANCH   1  14
ATOM     14  C   UNL d   1     -54.969-102.128 -35.745  0.00  0.00     0.231 C 
ATOM     15  O   UNL d   1     -55.184-102.747 -35.357  0.00  0.00    -0.643 OA
ATOM     16  O   UNL d   1     -54.712-101.523 -35.374  0.00  0.00    -0.643 OA
ENDBRANCH   1  14
TORSDOF 3
ENDMDL
