MODEL 1
REMARK VINA RESULT:      -2.3      0.000      0.000
REMARK  2 active torsions:
REMARK  status: ('A' for Active; 'I' for Inactive)
REMARK    1  A    between atoms: N_4  and  C_2 
REMARK       I    between atoms: C_3  and  N_4 
REMARK    2  A    between atoms: C_5  and  C_3 
ROOT
ATOM      1  C   UNL d   1      31.691  17.694 -24.809  0.00  0.00     0.282 C 
ATOM      2  N   UNL d   1      30.891  17.592 -24.988  0.00  0.00    -0.182 NA
ATOM      3  O   UNL d   1      32.089  18.359 -25.097  0.00  0.00    -0.265 OA
ENDROOT
BRANCH   1   4
ATOM      4  C   UNL d   1      32.079  17.129 -24.345  0.00  0.00     0.069 A 
ATOM      5  C   UNL d   1      32.342  17.344 -23.599  0.00  0.00     0.063 A 
ATOM      6  C   UNL d   1      32.730  16.783 -23.132  0.00  0.00     0.023 A 
ATOM      7 CL   UNL d   1      32.229  18.101 -23.310  0.00  0.00    -0.082 Cl
ATOM      8  C   UNL d   1      32.847  16.018 -23.420  0.00  0.00     0.059 A 
ATOM      9  C   UNL d   1      32.579  15.815 -24.167  0.00  0.00     0.012 A 
ATOM     10 CL   UNL d   1      33.241  15.453 -22.941  0.00  0.00    -0.082 Cl
ATOM     11  C   UNL d   1      32.195  16.378 -24.623  0.00  0.00     0.006 A 
ENDBRANCH   1   4
BRANCH   2  12
ATOM     12  C   UNL d   1      30.488  16.934 -24.705  0.00  0.00     0.204 A 
ATOM     13  N   UNL d   1      30.047  16.901 -24.005  0.00  0.00    -0.203 NA
ATOM     14  C   UNL d   1      29.734  16.132 -23.929  0.00  0.00     0.174 A 
ATOM     15  S   UNL d   1      29.991  15.703 -24.592  0.00  0.00    -0.018 SA
ATOM     16  S   UNL d   1      29.260  15.855 -23.314  0.00  0.00    -0.050 SA
ATOM     17  S   UNL d   1      30.472  16.207 -25.090  0.00  0.00    -0.010 SA
ENDBRANCH   2  12
TORSDOF 2
ENDMDL
MODEL 2
REMARK VINA RESULT:      -2.2      1.390      2.015
REMARK  2 active torsions:
REMARK  status: ('A' for Active; 'I' for Inactive)
REMARK    1  A    between atoms: N_4  and  C_2 
REMARK       I    between atoms: C_3  and  N_4 
REMARK    2  A    between atoms: C_5  and  C_3 
ROOT
ATOM      1  C   UNL d   1      32.625  16.482 -23.503  0.00  0.00     0.282 C 
ATOM      2  N   UNL d   1      31.933  16.037 -23.582  0.00  0.00    -0.182 NA
ATOM      3  O   UNL d   1      33.241  16.192 -23.033  0.00  0.00    -0.265 OA
ENDROOT
BRANCH   1   4
ATOM      4  C   UNL d   1      32.689  17.208 -23.895  0.00  0.00     0.069 A 
ATOM      5  C   UNL d   1      32.738  17.894 -23.450  0.00  0.00     0.063 A 
ATOM      6  C   UNL d   1      32.801  18.621 -23.837  0.00  0.00     0.023 A 
ATOM      7 CL   UNL d   1      32.724  17.872 -22.632  0.00  0.00    -0.082 Cl
ATOM      8  C   UNL d   1      32.815  18.648 -24.663  0.00  0.00     0.059 A 
ATOM      9  C   UNL d   1      32.766  17.955 -25.097  0.00  0.00     0.012 A 
ATOM     10 CL   UNL d   1      32.880  19.389 -25.051  0.00  0.00    -0.082 Cl
ATOM     11  C   UNL d   1      32.703  17.238 -24.704  0.00  0.00     0.006 A 
ENDBRANCH   1   4
BRANCH   2  12
ATOM     12  C   UNL d   1      31.316  16.318 -24.047  0.00  0.00     0.204 A 
ATOM     13  N   UNL d   1      30.658  16.739 -23.774  0.00  0.00    -0.203 NA
ATOM     14  C   UNL d   1      30.171  16.916 -24.427  0.00  0.00     0.174 A 
ATOM     15  S   UNL d   1      30.544  16.597 -25.097  0.00  0.00    -0.018 SA
ATOM     16  S   UNL d   1      29.458  17.329 -24.408  0.00  0.00    -0.050 SA
ATOM     17  S   UNL d   1      31.274  16.215 -24.862  0.00  0.00    -0.010 SA
ENDBRANCH   2  12
TORSDOF 2
ENDMDL
MODEL 3
REMARK VINA RESULT:      -2.2      1.140      1.718
REMARK  2 active torsions:
REMARK  status: ('A' for Active; 'I' for Inactive)
REMARK    1  A    between atoms: N_4  and  C_2 
REMARK       I    between atoms: C_3  and  N_4 
REMARK    2  A    between atoms: C_5  and  C_3 
ROOT
ATOM      1  C   UNL d   1      32.445  15.863 -24.758  0.00  0.00     0.282 C 
ATOM      2  N   UNL d   1      31.731  15.466 -24.885  0.00  0.00    -0.182 NA
ATOM      3  O   UNL d   1      33.138  15.567 -25.097  0.00  0.00    -0.265 OA
ENDROOT
BRANCH   1   4
ATOM      4  C   UNL d   1      32.452  16.548 -24.294  0.00  0.00     0.069 A 
ATOM      5  C   UNL d   1      32.834  16.530 -23.570  0.00  0.00     0.063 A 
ATOM      6  C   UNL d   1      32.844  17.212 -23.103  0.00  0.00     0.023 A 
ATOM      7 CL   UNL d   1      33.205  15.852 -23.301  0.00  0.00    -0.082 Cl
ATOM      8  C   UNL d   1      32.471  17.899 -23.370  0.00  0.00     0.059 A 
ATOM      9  C   UNL d   1      32.092  17.904 -24.096  0.00  0.00     0.012 A 
ATOM     10 CL   UNL d   1      32.484  18.588 -22.891  0.00  0.00    -0.082 Cl
ATOM     11  C   UNL d   1      32.087  17.223 -24.552  0.00  0.00     0.006 A 
ENDBRANCH   1   4
BRANCH   2  12
ATOM     12  C   UNL d   1      31.037  15.754 -24.551  0.00  0.00     0.204 A 
ATOM     13  N   UNL d   1      30.701  15.498 -23.839  0.00  0.00    -0.203 NA
ATOM     14  C   UNL d   1      30.003  15.935 -23.707  0.00  0.00     0.174 A 
ATOM     15  S   UNL d   1      29.923  16.456 -24.349  0.00  0.00    -0.018 SA
ATOM     16  S   UNL d   1      29.494  15.860 -23.063  0.00  0.00    -0.050 SA
ATOM     17  S   UNL d   1      30.578  16.346 -24.890  0.00  0.00    -0.010 SA
ENDBRANCH   2  12
TORSDOF 2
ENDMDL
MODEL 4
REMARK VINA RESULT:      -1.8      2.194      3.215
REMARK  2 active torsions:
REMARK  status: ('A' for Active; 'I' for Inactive)
REMARK    1  A    between atoms: N_4  and  C_2 
REMARK       I    between atoms: C_3  and  N_4 
REMARK    2  A    between atoms: C_5  and  C_3 
ROOT
ATOM      1  C   UNL d   1      29.192  17.821 -24.819  0.00  0.00     0.282 C 
ATOM      2  N   UNL d   1      30.005  17.742 -24.945  0.00  0.00    -0.182 NA
ATOM      3  O   UNL d   1      28.803  18.496 -25.097  0.00  0.00    -0.265 OA
ENDROOT
BRANCH   1   4
ATOM      4  C   UNL d   1      28.782  17.224 -24.418  0.00  0.00     0.069 A 
ATOM      5  C   UNL d   1      28.414  17.406 -23.709  0.00  0.00     0.063 A 
ATOM      6  C   UNL d   1      28.004  16.814 -23.305  0.00  0.00     0.023 A 
ATOM      7 CL   UNL d   1      28.444  18.162 -23.396  0.00  0.00    -0.082 Cl
ATOM      8  C   UNL d   1      27.971  16.050 -23.617  0.00  0.00     0.059 A 
ATOM      9  C   UNL d   1      28.343  15.880 -24.326  0.00  0.00     0.012 A 
ATOM     10 CL   UNL d   1      27.553  15.453 -23.201  0.00  0.00    -0.082 Cl
ATOM     11  C   UNL d   1      28.748  16.475 -24.720  0.00  0.00     0.006 A 
ENDBRANCH   1   4
BRANCH   2  12
ATOM     12  C   UNL d   1      30.399  17.073 -24.672  0.00  0.00     0.204 A 
ATOM     13  N   UNL d   1      30.791  17.007 -23.946  0.00  0.00    -0.203 NA
ATOM     14  C   UNL d   1      31.112  16.240 -23.891  0.00  0.00     0.174 A 
ATOM     15  S   UNL d   1      30.908  15.845 -24.592  0.00  0.00    -0.018 SA
ATOM     16  S   UNL d   1      31.546  15.935 -23.260  0.00  0.00    -0.050 SA
ATOM     17  S   UNL d   1      30.454  16.370 -25.094  0.00  0.00    -0.010 SA
ENDBRANCH   2  12
TORSDOF 2
ENDMDL
MODEL 5
REMARK VINA RESULT:      -1.6      1.022      1.199
REMARK  2 active torsions:
REMARK  status: ('A' for Active; 'I' for Inactive)
REMARK    1  A    between atoms: N_4  and  C_2 
REMARK       I    between atoms: C_3  and  N_4 
REMARK    2  A    between atoms: C_5  and  C_3 
ROOT
ATOM      1  C   UNL d   1      30.310  17.739 -24.823  0.00  0.00     0.282 C 
ATOM      2  N   UNL d   1      29.500  17.574 -24.800  0.00  0.00    -0.182 NA
ATOM      3  O   UNL d   1      30.565  18.477 -25.095  0.00  0.00    -0.265 OA
ENDROOT
BRANCH   1   4
ATOM      4  C   UNL d   1      30.849  17.162 -24.573  0.00  0.00     0.069 A 
ATOM      5  C   UNL d   1      31.372  17.347 -23.971  0.00  0.00     0.063 A 
ATOM      6  C   UNL d   1      31.912  16.775 -23.718  0.00  0.00     0.023 A 
ATOM      7 CL   UNL d   1      31.370  18.084 -23.616  0.00  0.00    -0.082 Cl
ATOM      8  C   UNL d   1      31.918  16.029 -24.073  0.00  0.00     0.059 A 
ATOM      9  C   UNL d   1      31.390  15.857 -24.674  0.00  0.00     0.012 A 
ATOM     10 CL   UNL d   1      32.469  15.453 -23.812  0.00  0.00    -0.082 Cl
ATOM     11  C   UNL d   1      30.858  16.431 -24.919  0.00  0.00     0.006 A 
ENDBRANCH   1   4
BRANCH   2  12
ATOM     12  C   UNL d   1      29.238  16.842 -24.531  0.00  0.00     0.204 A 
ATOM     13  N   UNL d   1      29.020  16.664 -23.753  0.00  0.00    -0.203 NA
ATOM     14  C   UNL d   1      28.790  15.863 -23.723  0.00  0.00     0.174 A 
ATOM     15  S   UNL d   1      28.873  15.562 -24.492  0.00  0.00    -0.018 SA
ATOM     16  S   UNL d   1      28.532  15.453 -23.056  0.00  0.00    -0.050 SA
ATOM     17  S   UNL d   1      29.158  16.180 -25.012  0.00  0.00    -0.010 SA
ENDBRANCH   2  12
TORSDOF 2
ENDMDL
MODEL 6
REMARK VINA RESULT:      -1.0      2.174      2.818
REMARK  2 active torsions:
REMARK  status: ('A' for Active; 'I' for Inactive)
REMARK    1  A    between atoms: N_4  and  C_2 
REMARK       I    between atoms: C_3  and  N_4 
REMARK    2  A    between atoms: C_5  and  C_3 
ROOT
ATOM      1  C   UNL d   1      32.480  18.250 -23.400  0.00  0.00     0.282 C 
ATOM      2  N   UNL d   1      33.142  17.762 -23.315  0.00  0.00    -0.182 NA
ATOM      3  O   UNL d   1      32.513  19.028 -23.120  0.00  0.00    -0.265 OA
ENDROOT
BRANCH   1   4
ATOM      4  C   UNL d   1      31.799  17.953 -23.764  0.00  0.00     0.069 A 
ATOM      5  C   UNL d   1      31.596  18.229 -24.508  0.00  0.00     0.063 A 
ATOM      6  C   UNL d   1      30.917  17.935 -24.875  0.00  0.00     0.023 A 
ATOM      7 CL   UNL d   1      32.053  18.789 -24.893  0.00  0.00    -0.082 Cl
ATOM      8  C   UNL d   1      30.453  17.370 -24.490  0.00  0.00     0.059 A 
ATOM      9  C   UNL d   1      30.666  17.102 -23.746  0.00  0.00     0.012 A 
ATOM     10 CL   UNL d   1      29.764  17.075 -24.868  0.00  0.00    -0.082 Cl
ATOM     11  C   UNL d   1      31.342  17.400 -23.390  0.00  0.00     0.006 A 
ENDBRANCH   1   4
BRANCH   2  12
ATOM     12  C   UNL d   1      33.117  16.988 -23.592  0.00  0.00     0.204 A 
ATOM     13  N   UNL d   1      33.237  16.751 -24.376  0.00  0.00    -0.203 NA
ATOM     14  C   UNL d   1      33.163  15.921 -24.413  0.00  0.00     0.174 A 
ATOM     15  S   UNL d   1      32.998  15.662 -23.642  0.00  0.00    -0.018 SA
ATOM     16  S   UNL d   1      33.241  15.453 -25.087  0.00  0.00    -0.050 SA
ATOM     17  S   UNL d   1      32.967  16.336 -23.114  0.00  0.00    -0.010 SA
ENDBRANCH   2  12
TORSDOF 2
ENDMDL
MODEL 7
REMARK VINA RESULT:      -0.0      1.922      2.463
REMARK  2 active torsions:
REMARK  status: ('A' for Active; 'I' for Inactive)
REMARK    1  A    between atoms: N_4  and  C_2 
REMARK       I    between atoms: C_3  and  N_4 
REMARK    2  A    between atoms: C_5  and  C_3 
ROOT
ATOM      1  C   UNL d   1      29.604  15.899 -22.976  0.00  0.00     0.282 C 
ATOM      2  N   UNL d   1      28.962  16.393 -23.140  0.00  0.00    -0.182 NA
ATOM      3  O   UNL d   1      29.604  15.453 -22.280  0.00  0.00    -0.265 OA
ENDROOT
BRANCH   1   4
ATOM      4  C   UNL d   1      30.234  15.861 -23.511  0.00  0.00     0.069 A 
ATOM      5  C   UNL d   1      30.984  16.068 -23.254  0.00  0.00     0.063 A 
ATOM      6  C   UNL d   1      31.616  16.032 -23.784  0.00  0.00     0.023 A 
ATOM      7 CL   UNL d   1      31.117  16.310 -22.483  0.00  0.00    -0.082 Cl
ATOM      8  C   UNL d   1      31.487  15.788 -24.563  0.00  0.00     0.059 A 
ATOM      9  C   UNL d   1      30.733  15.583 -24.808  0.00  0.00     0.012 A 
ATOM     10 CL   UNL d   1      32.133  15.753 -25.097  0.00  0.00    -0.082 Cl
ATOM     11  C   UNL d   1      30.111  15.623 -24.275  0.00  0.00     0.006 A 
ENDBRANCH   1   4
BRANCH   2  12
ATOM     12  C   UNL d   1      28.954  16.840 -23.830  0.00  0.00     0.204 A 
ATOM     13  N   UNL d   1      29.223  17.619 -23.903  0.00  0.00    -0.203 NA
ATOM     14  C   UNL d   1      29.114  17.860 -24.694  0.00  0.00     0.174 A 
ATOM     15  S   UNL d   1      28.778  17.216 -25.096  0.00  0.00    -0.018 SA
ATOM     16  S   UNL d   1      29.306  18.596 -25.012  0.00  0.00    -0.050 SA
ATOM     17  S   UNL d   1      28.673  16.563 -24.551  0.00  0.00    -0.010 SA
ENDBRANCH   2  12
TORSDOF 2
ENDMDL
