MODEL 1
REMARK VINA RESULT:      32.3      0.000      0.000
REMARK  4 active torsions:
REMARK  status: ('A' for Active; 'I' for Inactive)
REMARK    1  A    between atoms: N_2  and  S_1 
REMARK    2  A    between atoms: C_4  and  S_1 
REMARK    3  A    between atoms: C_11  and  C_3 
REMARK    4  A    between atoms: O_17  and  C_9 
ROOT
ATOM      1  S   UNL d   1      14.300  12.824  -1.947  0.00  0.00     0.273 S 
ATOM      2  O   UNL d   1      13.565  12.510  -1.719  0.00  0.00    -0.200 OA
ATOM      3  O   UNL d   1      15.027  13.134  -2.172  0.00  0.00    -0.200 OA
ENDROOT
BRANCH   1   4
ATOM      4  N   UNL d   1      14.628  12.571  -1.237  0.00  0.00    -0.213 N 
ATOM      5  C   UNL d   1      14.885  13.052  -0.621  0.00  0.00     0.157 A 
ATOM      6  N   UNL d   1      15.174  12.570  -0.018  0.00  0.00    -0.224 NA
ATOM      7  C   UNL d   1      15.096  11.780  -0.264  0.00  0.00     0.120 A 
ATOM      8  C   UNL d   1      14.758  11.781  -1.016  0.00  0.00     0.114 A 
BRANCH   5   9
ATOM      9  C   UNL d   1      14.857  13.879  -0.611  0.00  0.00     0.035 A 
ATOM     10  C   UNL d   1      14.355  14.270  -0.092  0.00  0.00     0.003 A 
ATOM     11  C   UNL d   1      14.323  15.097  -0.078  0.00  0.00     0.000 A 
ATOM     12  C   UNL d   1      14.808  15.534  -0.599  0.00  0.00     0.000 A 
ATOM     13  C   UNL d   1      15.310  15.143  -1.117  0.00  0.00     0.000 A 
ATOM     14  C   UNL d   1      15.338  14.316  -1.128  0.00  0.00     0.003 A 
ENDBRANCH   5   9
ENDBRANCH   1   4
BRANCH   1  15
ATOM     15  C   UNL d   1      13.968  13.080  -2.664  0.00  0.00     0.106 A 
ATOM     16  C   UNL d   1      13.531  12.552  -3.133  0.00  0.00     0.039 A 
ATOM     17  C   UNL d   1      13.203  12.805  -3.843  0.00  0.00     0.122 A 
ATOM     18  C   UNL d   1      13.310  13.589  -4.088  0.00  0.00     0.162 A 
ATOM     19  C   UNL d   1      13.743  14.114  -3.625  0.00  0.00     0.032 A 
ATOM     20  F   UNL d   1      12.982  13.842  -4.799  0.00  0.00    -0.202 F 
ATOM     21  C   UNL d   1      14.070  13.857  -2.916  0.00  0.00     0.015 A 
BRANCH  17  22
ATOM     22  O   UNL d   1      12.770  12.279  -4.306  0.00  0.00    -0.326 OA
ATOM     23  C   UNL d   1      13.155  11.786  -4.838  0.00  0.00     0.181 C 
ENDBRANCH  17  22
ENDBRANCH   1  15
TORSDOF 4
ENDMDL
MODEL 2
REMARK VINA RESULT:      34.0      1.275      2.023
REMARK  4 active torsions:
REMARK  status: ('A' for Active; 'I' for Inactive)
REMARK    1  A    between atoms: N_2  and  S_1 
REMARK    2  A    between atoms: C_4  and  S_1 
REMARK    3  A    between atoms: C_11  and  C_3 
REMARK    4  A    between atoms: O_17  and  C_9 
ROOT
ATOM      1  S   UNL d   1      13.473  12.253  -2.336  0.00  0.00     0.273 S 
ATOM      2  O   UNL d   1      14.183  12.671  -2.232  0.00  0.00    -0.200 OA
ATOM      3  O   UNL d   1      12.770  11.839  -2.439  0.00  0.00    -0.200 OA
ENDROOT
BRANCH   1   4
ATOM      4  N   UNL d   1      13.442  12.105  -1.528  0.00  0.00    -0.213 N 
ATOM      5  C   UNL d   1      14.069  12.164  -0.999  0.00  0.00     0.157 A 
ATOM      6  N   UNL d   1      13.793  11.967  -0.247  0.00  0.00    -0.224 NA
ATOM      7  C   UNL d   1      12.985  11.783  -0.312  0.00  0.00     0.120 A 
ATOM      8  C   UNL d   1      12.769  11.869  -1.103  0.00  0.00     0.114 A 
BRANCH   5   9
ATOM      9  C   UNL d   1      14.843  12.384  -1.190  0.00  0.00     0.035 A 
ATOM     10  C   UNL d   1      15.345  11.853  -1.562  0.00  0.00     0.003 A 
ATOM     11  C   UNL d   1      16.120  12.068  -1.755  0.00  0.00     0.000 A 
ATOM     12  C   UNL d   1      16.390  12.836  -1.568  0.00  0.00     0.000 A 
ATOM     13  C   UNL d   1      15.888  13.368  -1.196  0.00  0.00     0.000 A 
ATOM     14  C   UNL d   1      15.114  13.148  -1.005  0.00  0.00     0.003 A 
ENDBRANCH   5   9
ENDBRANCH   1   4
BRANCH   1  15
ATOM     15  C   UNL d   1      13.505  12.403  -3.153  0.00  0.00     0.106 A 
ATOM     16  C   UNL d   1      13.481  13.184  -3.434  0.00  0.00     0.039 A 
ATOM     17  C   UNL d   1      13.513  13.333  -4.242  0.00  0.00     0.122 A 
ATOM     18  C   UNL d   1      13.567  12.700  -4.774  0.00  0.00     0.162 A 
ATOM     19  C   UNL d   1      13.591  11.925  -4.497  0.00  0.00     0.032 A 
ATOM     20  F   UNL d   1      13.599  12.849  -5.583  0.00  0.00    -0.202 F 
ATOM     21  C   UNL d   1      13.559  11.780  -3.688  0.00  0.00     0.015 A 
BRANCH  17  22
ATOM     22  O   UNL d   1      13.490  14.108  -4.518  0.00  0.00    -0.326 OA
ATOM     23  C   UNL d   1      13.132  14.695  -4.069  0.00  0.00     0.181 C 
ENDBRANCH  17  22
ENDBRANCH   1  15
TORSDOF 4
ENDMDL
