MODEL 1
REMARK VINA RESULT:      -3.1      0.000      0.000
REMARK  3 active torsions:
REMARK  status: ('A' for Active; 'I' for Inactive)
REMARK    1  A    between atoms: C_7  and  C_1 
REMARK    2  A    between atoms: N_8  and  C_7 
REMARK    3  A    between atoms: C_11  and  N_8 
ROOT
ATOM      1  C   UNL d   1      33.239  20.355 -22.142  0.00  0.00     0.145 A 
ATOM      2  C   UNL d   1      33.240  20.358 -22.960  0.00  0.00     0.304 A 
ATOM      3  C   UNL d   1      33.238  19.639 -21.732  0.00  0.00     0.304 A 
ATOM      4  O   UNL d   1      33.240  19.645 -23.378  0.00  0.00    -0.277 OA
ATOM      5  O   UNL d   1      33.239  18.926 -22.150  0.00  0.00    -0.277 OA
ATOM      6  C   UNL d   1      33.239  18.933 -22.974  0.00  0.00     0.203 A 
ATOM      7  O   UNL d   1      33.241  21.101 -23.371  0.00  0.00    -0.259 OA
ATOM      8  O   UNL d   1      33.238  19.644 -20.882  0.00  0.00    -0.259 OA
ATOM      9  C   UNL d   1      33.239  18.124 -22.760  0.00  0.00     0.062 C 
ATOM     10  C   UNL d   1      33.240  18.762 -23.788  0.00  0.00     0.062 C 
ENDROOT
BRANCH   1  11
ATOM     11  C   UNL d   1      33.239  21.074 -21.721  0.00  0.00     0.111 C 
BRANCH  11  12
ATOM     12  N   UNL d   1      32.552  21.328 -21.342  0.00  0.00    -0.225 NA
BRANCH  12  13
ATOM     13  C   UNL d   1      32.524  22.087 -21.000  0.00  0.00     0.163 A 
ATOM     14  N   UNL d   1      32.004  22.652 -21.294  0.00  0.00    -0.225 NA
ATOM     15  C   UNL d   1      31.976  23.408 -20.953  0.00  0.00     0.101 A 
ATOM     16  C   UNL d   1      32.467  23.592 -20.320  0.00  0.00     0.021 A 
ATOM     17  C   UNL d   1      32.989  23.026 -20.023  0.00  0.00     0.005 A 
ATOM     18  C   UNL d   1      33.017  22.270 -20.365  0.00  0.00     0.039 A 
ENDBRANCH  12  13
ENDBRANCH  11  12
ENDBRANCH   1  11
TORSDOF 3
ENDMDL
MODEL 2
REMARK VINA RESULT:      -3.0      0.470      1.433
REMARK  3 active torsions:
REMARK  status: ('A' for Active; 'I' for Inactive)
REMARK    1  A    between atoms: C_7  and  C_1 
REMARK    2  A    between atoms: N_8  and  C_7 
REMARK    3  A    between atoms: C_11  and  N_8 
ROOT
ATOM      1  C   UNL d   1      33.191  20.518 -22.005  0.00  0.00     0.145 A 
ATOM      2  C   UNL d   1      33.165  19.768 -21.677  0.00  0.00     0.304 A 
ATOM      3  C   UNL d   1      33.214  20.608 -22.825  0.00  0.00     0.304 A 
ATOM      4  O   UNL d   1      33.161  19.102 -22.165  0.00  0.00    -0.277 OA
ATOM      5  O   UNL d   1      33.210  19.942 -23.313  0.00  0.00    -0.277 OA
ATOM      6  C   UNL d   1      33.184  19.188 -22.979  0.00  0.00     0.203 A 
ATOM      7  O   UNL d   1      33.142  19.687 -20.832  0.00  0.00    -0.259 OA
ATOM      8  O   UNL d   1      33.241  21.390 -23.158  0.00  0.00    -0.259 OA
ATOM      9  C   UNL d   1      33.202  19.062 -23.807  0.00  0.00     0.062 C 
ATOM     10  C   UNL d   1      33.160  18.373 -22.812  0.00  0.00     0.062 C 
ENDROOT
BRANCH   1  11
ATOM     11  C   UNL d   1      33.195  21.190 -21.513  0.00  0.00     0.111 C 
BRANCH  11  12
ATOM     12  N   UNL d   1      32.482  21.543 -21.295  0.00  0.00    -0.225 NA
BRANCH  12  13
ATOM     13  C   UNL d   1      32.487  22.230 -20.824  0.00  0.00     0.163 A 
ATOM     14  N   UNL d   1      32.914  22.243 -20.121  0.00  0.00    -0.225 NA
ATOM     15  C   UNL d   1      32.919  22.928 -19.652  0.00  0.00     0.101 A 
ATOM     16  C   UNL d   1      32.496  23.592 -19.889  0.00  0.00     0.021 A 
ATOM     17  C   UNL d   1      32.067  23.580 -20.593  0.00  0.00     0.005 A 
ATOM     18  C   UNL d   1      32.062  22.895 -21.063  0.00  0.00     0.039 A 
ENDBRANCH  12  13
ENDBRANCH  11  12
ENDBRANCH   1  11
TORSDOF 3
ENDMDL
MODEL 3
REMARK VINA RESULT:      -2.7      4.447      5.866
REMARK  3 active torsions:
REMARK  status: ('A' for Active; 'I' for Inactive)
REMARK    1  A    between atoms: C_7  and  C_1 
REMARK    2  A    between atoms: N_8  and  C_7 
REMARK    3  A    between atoms: C_11  and  N_8 
ROOT
ATOM      1  C   UNL d   1      29.957  16.580 -24.054  0.00  0.00     0.145 A 
ATOM      2  C   UNL d   1      29.932  15.969 -23.510  0.00  0.00     0.304 A 
ATOM      3  C   UNL d   1      29.256  16.931 -24.311  0.00  0.00     0.304 A 
ATOM      4  O   UNL d   1      29.207  15.703 -23.217  0.00  0.00    -0.277 OA
ATOM      5  O   UNL d   1      28.531  16.665 -24.018  0.00  0.00    -0.277 OA
ATOM      6  C   UNL d   1      28.510  16.050 -23.470  0.00  0.00     0.203 A 
ATOM      7  O   UNL d   1      30.660  15.615 -23.253  0.00  0.00    -0.259 OA
ATOM      8  O   UNL d   1      29.290  17.565 -24.876  0.00  0.00    -0.259 OA
ATOM      9  C   UNL d   1      27.710  16.261 -23.595  0.00  0.00     0.062 C 
ATOM     10  C   UNL d   1      28.312  15.453 -22.925  0.00  0.00     0.062 C 
ENDROOT
BRANCH   1  11
ATOM     11  C   UNL d   1      30.688  16.848 -24.350  0.00  0.00     0.111 C 
BRANCH  11  12
ATOM     12  N   UNL d   1      31.172  17.323 -23.880  0.00  0.00    -0.225 NA
BRANCH  12  13
ATOM     13  C   UNL d   1      31.865  17.656 -24.202  0.00  0.00     0.163 A 
ATOM     14  N   UNL d   1      32.292  17.244 -24.771  0.00  0.00    -0.225 NA
ATOM     15  C   UNL d   1      32.983  17.576 -25.091  0.00  0.00     0.101 A 
ATOM     16  C   UNL d   1      33.238  18.316 -24.839  0.00  0.00     0.021 A 
ATOM     17  C   UNL d   1      32.810  18.729 -24.268  0.00  0.00     0.005 A 
ATOM     18  C   UNL d   1      32.120  18.398 -23.948  0.00  0.00     0.039 A 
ENDBRANCH  12  13
ENDBRANCH  11  12
ENDBRANCH   1  11
TORSDOF 3
ENDMDL
MODEL 4
REMARK VINA RESULT:      -2.6      0.613      1.400
REMARK  3 active torsions:
REMARK  status: ('A' for Active; 'I' for Inactive)
REMARK    1  A    between atoms: C_7  and  C_1 
REMARK    2  A    between atoms: N_8  and  C_7 
REMARK    3  A    between atoms: C_11  and  N_8 
ROOT
ATOM      1  C   UNL d   1      33.238  19.820 -22.509  0.00  0.00     0.145 A 
ATOM      2  C   UNL d   1      33.239  19.116 -22.092  0.00  0.00     0.304 A 
ATOM      3  C   UNL d   1      33.236  19.811 -23.333  0.00  0.00     0.304 A 
ATOM      4  O   UNL d   1      33.237  18.395 -22.496  0.00  0.00    -0.277 OA
ATOM      5  O   UNL d   1      33.234  19.091 -23.737  0.00  0.00    -0.277 OA
ATOM      6  C   UNL d   1      33.235  18.383 -23.314  0.00  0.00     0.203 A 
ATOM      7  O   UNL d   1      33.241  19.137 -21.243  0.00  0.00    -0.259 OA
ATOM      8  O   UNL d   1      33.235  20.547 -23.759  0.00  0.00    -0.259 OA
ATOM      9  C   UNL d   1      33.233  18.158 -24.121  0.00  0.00     0.062 C 
ATOM     10  C   UNL d   1      33.236  17.594 -23.050  0.00  0.00     0.062 C 
ENDROOT
BRANCH   1  11
ATOM     11  C   UNL d   1      33.239  20.547 -22.102  0.00  0.00     0.111 C 
BRANCH  11  12
ATOM     12  N   UNL d   1      32.576  20.776 -21.668  0.00  0.00    -0.225 NA
BRANCH  12  13
ATOM     13  C   UNL d   1      32.557  21.526 -21.305  0.00  0.00     0.163 A 
ATOM     14  N   UNL d   1      32.175  22.152 -21.676  0.00  0.00    -0.225 NA
ATOM     15  C   UNL d   1      32.156  22.899 -21.315  0.00  0.00     0.101 A 
ATOM     16  C   UNL d   1      32.518  23.012 -20.585  0.00  0.00     0.021 A 
ATOM     17  C   UNL d   1      32.900  22.385 -20.211  0.00  0.00     0.005 A 
ATOM     18  C   UNL d   1      32.920  21.638 -20.573  0.00  0.00     0.039 A 
ENDBRANCH  12  13
ENDBRANCH  11  12
ENDBRANCH   1  11
TORSDOF 3
ENDMDL
MODEL 5
REMARK VINA RESULT:      -2.6      1.277      4.149
REMARK  3 active torsions:
REMARK  status: ('A' for Active; 'I' for Inactive)
REMARK    1  A    between atoms: C_7  and  C_1 
REMARK    2  A    between atoms: N_8  and  C_7 
REMARK    3  A    between atoms: C_11  and  N_8 
ROOT
ATOM      1  C   UNL d   1      33.048  20.749 -21.879  0.00  0.00     0.145 A 
ATOM      2  C   UNL d   1      32.869  20.717 -21.081  0.00  0.00     0.304 A 
ATOM      3  C   UNL d   1      33.039  21.473 -22.275  0.00  0.00     0.304 A 
ATOM      4  O   UNL d   1      32.678  21.408 -20.671  0.00  0.00    -0.277 OA
ATOM      5  O   UNL d   1      32.849  22.164 -21.865  0.00  0.00    -0.277 OA
ATOM      6  C   UNL d   1      32.669  22.128 -21.061  0.00  0.00     0.203 A 
ATOM      7  O   UNL d   1      32.881  19.966 -20.685  0.00  0.00    -0.259 OA
ATOM      8  O   UNL d   1      33.226  21.498 -23.104  0.00  0.00    -0.259 OA
ATOM      9  C   UNL d   1      32.604  22.937 -21.266  0.00  0.00     0.062 C 
ATOM     10  C   UNL d   1      32.466  22.269 -20.266  0.00  0.00     0.062 C 
ENDROOT
BRANCH   1  11
ATOM     11  C   UNL d   1      33.240  20.052 -22.293  0.00  0.00     0.111 C 
BRANCH  11  12
ATOM     12  N   UNL d   1      32.639  19.567 -22.582  0.00  0.00    -0.225 NA
BRANCH  12  13
ATOM     13  C   UNL d   1      32.830  18.882 -23.015  0.00  0.00     0.163 A 
ATOM     14  N   UNL d   1      32.957  18.170 -22.624  0.00  0.00    -0.225 NA
ATOM     15  C   UNL d   1      33.147  17.487 -23.056  0.00  0.00     0.101 A 
ATOM     16  C   UNL d   1      33.210  17.523 -23.875  0.00  0.00     0.021 A 
ATOM     17  C   UNL d   1      33.083  18.237 -24.269  0.00  0.00     0.005 A 
ATOM     18  C   UNL d   1      32.893  18.919 -23.837  0.00  0.00     0.039 A 
ENDBRANCH  12  13
ENDBRANCH  11  12
ENDBRANCH   1  11
TORSDOF 3
ENDMDL
MODEL 6
REMARK VINA RESULT:      -1.9      4.823      6.271
REMARK  3 active torsions:
REMARK  status: ('A' for Active; 'I' for Inactive)
REMARK    1  A    between atoms: C_7  and  C_1 
REMARK    2  A    between atoms: N_8  and  C_7 
REMARK    3  A    between atoms: C_11  and  N_8 
ROOT
ATOM      1  C   UNL d   1      30.942  16.898 -24.815  0.00  0.00     0.145 A 
ATOM      2  C   UNL d   1      31.634  16.462 -24.774  0.00  0.00     0.304 A 
ATOM      3  C   UNL d   1      30.975  17.713 -24.936  0.00  0.00     0.304 A 
ATOM      4  O   UNL d   1      32.366  16.837 -24.853  0.00  0.00    -0.277 OA
ATOM      5  O   UNL d   1      31.707  18.088 -25.014  0.00  0.00    -0.277 OA
ATOM      6  C   UNL d   1      32.402  17.646 -24.973  0.00  0.00     0.203 A 
ATOM      7  O   UNL d   1      31.588  15.623 -24.650  0.00  0.00    -0.259 OA
ATOM      8  O   UNL d   1      30.252  18.158 -24.977  0.00  0.00    -0.259 OA
ATOM      9  C   UNL d   1      32.649  18.436 -25.096  0.00  0.00     0.062 C 
ATOM     10  C   UNL d   1      33.182  17.359 -24.956  0.00  0.00     0.062 C 
ENDROOT
BRANCH   1  11
ATOM     11  C   UNL d   1      30.204  16.519 -24.736  0.00  0.00     0.111 C 
BRANCH  11  12
ATOM     12  N   UNL d   1      29.960  16.247 -23.997  0.00  0.00    -0.225 NA
BRANCH  12  13
ATOM     13  C   UNL d   1      29.168  16.013 -23.881  0.00  0.00     0.163 A 
ATOM     14  N   UNL d   1      28.742  15.686 -24.503  0.00  0.00    -0.225 NA
ATOM     15  C   UNL d   1      27.954  15.453 -24.389  0.00  0.00     0.101 A 
ATOM     16  C   UNL d   1      27.599  15.549 -23.653  0.00  0.00     0.021 A 
ATOM     17  C   UNL d   1      28.026  15.877 -23.028  0.00  0.00     0.005 A 
ATOM     18  C   UNL d   1      28.814  16.111 -23.143  0.00  0.00     0.039 A 
ENDBRANCH  12  13
ENDBRANCH  11  12
ENDBRANCH   1  11
TORSDOF 3
ENDMDL
MODEL 7
REMARK VINA RESULT:      -1.0      1.591      2.535
REMARK  3 active torsions:
REMARK  status: ('A' for Active; 'I' for Inactive)
REMARK    1  A    between atoms: C_7  and  C_1 
REMARK    2  A    between atoms: N_8  and  C_7 
REMARK    3  A    between atoms: C_11  and  N_8 
ROOT
ATOM      1  C   UNL d   1      32.761  21.899 -21.329  0.00  0.00     0.145 A 
ATOM      2  C   UNL d   1      32.953  21.146 -21.586  0.00  0.00     0.304 A 
ATOM      3  C   UNL d   1      32.706  22.518 -21.872  0.00  0.00     0.304 A 
ATOM      4  O   UNL d   1      33.091  21.003 -22.387  0.00  0.00    -0.277 OA
ATOM      5  O   UNL d   1      32.845  22.375 -22.673  0.00  0.00    -0.277 OA
ATOM      6  C   UNL d   1      33.038  21.615 -22.929  0.00  0.00     0.203 A 
ATOM      7  O   UNL d   1      33.006  20.517 -21.017  0.00  0.00    -0.259 OA
ATOM      8  O   UNL d   1      32.507  23.297 -21.598  0.00  0.00    -0.259 OA
ATOM      9  C   UNL d   1      33.034  22.086 -23.621  0.00  0.00     0.062 C 
ATOM     10  C   UNL d   1      33.238  20.925 -23.347  0.00  0.00     0.062 C 
ENDROOT
BRANCH   1  11
ATOM     11  C   UNL d   1      32.621  22.043 -20.520  0.00  0.00     0.111 C 
BRANCH  11  12
ATOM     12  N   UNL d   1      33.240  22.286 -20.033  0.00  0.00    -0.225 NA
BRANCH  12  13
ATOM     13  C   UNL d   1      33.078  22.576 -19.269  0.00  0.00     0.163 A 
ATOM     14  N   UNL d   1      32.802  23.344 -19.171  0.00  0.00    -0.225 NA
ATOM     15  C   UNL d   1      32.640  23.633 -18.410  0.00  0.00     0.101 A 
ATOM     16  C   UNL d   1      32.756  23.151 -17.754  0.00  0.00     0.021 A 
ATOM     17  C   UNL d   1      33.033  22.380 -17.851  0.00  0.00     0.005 A 
ATOM     18  C   UNL d   1      33.195  22.091 -18.612  0.00  0.00     0.039 A 
ENDBRANCH  12  13
ENDBRANCH  11  12
ENDBRANCH   1  11
TORSDOF 3
ENDMDL
MODEL 8
REMARK VINA RESULT:      -0.6      2.230      3.586
REMARK  3 active torsions:
REMARK  status: ('A' for Active; 'I' for Inactive)
REMARK    1  A    between atoms: C_7  and  C_1 
REMARK    2  A    between atoms: N_8  and  C_7 
REMARK    3  A    between atoms: C_11  and  N_8 
ROOT
ATOM      1  C   UNL d   1      32.361  17.649 -23.835  0.00  0.00     0.145 A 
ATOM      2  C   UNL d   1      32.335  16.937 -23.431  0.00  0.00     0.304 A 
ATOM      3  C   UNL d   1      31.930  17.742 -24.532  0.00  0.00     0.304 A 
ATOM      4  O   UNL d   1      31.878  16.312 -23.720  0.00  0.00    -0.277 OA
ATOM      5  O   UNL d   1      31.473  17.117 -24.821  0.00  0.00    -0.277 OA
ATOM      6  C   UNL d   1      31.450  16.402 -24.411  0.00  0.00     0.203 A 
ATOM      7  O   UNL d   1      32.783  16.853 -22.714  0.00  0.00    -0.259 OA
ATOM      8  O   UNL d   1      31.962  18.484 -24.946  0.00  0.00    -0.259 OA
ATOM      9  C   UNL d   1      30.954  16.292 -25.077  0.00  0.00     0.062 C 
ATOM     10  C   UNL d   1      31.316  15.631 -24.130  0.00  0.00     0.062 C 
ENDROOT
BRANCH   1  11
ATOM     11  C   UNL d   1      32.821  18.279 -23.544  0.00  0.00     0.111 C 
BRANCH  11  12
ATOM     12  N   UNL d   1      32.687  18.569 -22.784  0.00  0.00    -0.225 NA
BRANCH  12  13
ATOM     13  C   UNL d   1      32.833  19.372 -22.614  0.00  0.00     0.163 A 
ATOM     14  N   UNL d   1      32.717  19.658 -21.853  0.00  0.00    -0.225 NA
ATOM     15  C   UNL d   1      32.863  20.458 -21.684  0.00  0.00     0.101 A 
ATOM     16  C   UNL d   1      33.124  20.963 -22.278  0.00  0.00     0.021 A 
ATOM     17  C   UNL d   1      33.241  20.676 -23.042  0.00  0.00     0.005 A 
ATOM     18  C   UNL d   1      33.095  19.877 -23.211  0.00  0.00     0.039 A 
ENDBRANCH  12  13
ENDBRANCH  11  12
ENDBRANCH   1  11
TORSDOF 3
ENDMDL
