MODEL 1
REMARK VINA RESULT:      -2.9      0.000      0.000
REMARK  8 active torsions:
REMARK  status: ('A' for Active; 'I' for Inactive)
REMARK    1  A    between atoms: C_2  and  C_8 
REMARK    2  A    between atoms: O_17  and  C_2 
REMARK    3  A    between atoms: C_15  and  C_3 
REMARK    4  A    between atoms: C_20  and  C_4 
REMARK    5  A    between atoms: C_5  and  C_16 
REMARK       I    between atoms: N_9  and  C_5 
REMARK    6  A    between atoms: C_14  and  N_9 
REMARK    7  A    between atoms: C_16  and  C_15 
REMARK    8  A    between atoms: C_21  and  O_17 
ROOT
ATOM      1  C   UNL d   1      32.499  16.400 -24.388  0.00  0.00     0.279 C 
ATOM      2  N   UNL d   1      33.173  16.750 -24.088  0.00  0.00    -0.208 NA
ATOM      3  O   UNL d   1      32.531  15.627 -24.693  0.00  0.00    -0.265 OA
ENDROOT
BRANCH   2   4
ATOM      4  C   UNL d   1      33.142  17.519 -23.785  0.00  0.00     0.085 A 
ATOM      5  C   UNL d   1      33.241  18.160 -24.290  0.00  0.00     0.019 A 
ATOM      6  C   UNL d   1      33.209  18.924 -23.988  0.00  0.00     0.007 A 
ATOM      7  C   UNL d   1      33.078  19.043 -23.182  0.00  0.00     0.064 A 
ATOM      8  C   UNL d   1      32.978  18.402 -22.676  0.00  0.00     0.007 A 
ATOM      9  C   UNL d   1      33.012  17.630 -22.988  0.00  0.00     0.019 A 
BRANCH   7  10
ATOM     10  C   UNL d   1      33.046  19.816 -22.878  0.00  0.00     0.300 C 
ATOM     11  O   UNL d   1      33.241  20.453 -23.361  0.00  0.00    -0.259 OA
BRANCH  10  12
ATOM     12  O   UNL d   1      32.821  19.941 -22.102  0.00  0.00    -0.271 OA
BRANCH  12  13
ATOM     13  C   UNL d   1      32.956  20.673 -21.745  0.00  0.00     0.126 C 
ATOM     14  C   UNL d   1      32.740  20.794 -20.956  0.00  0.00     0.029 C 
ENDBRANCH  12  13
ENDBRANCH  10  12
ENDBRANCH   7  10
ENDBRANCH   2   4
BRANCH   1  15
ATOM     15  C   UNL d   1      31.784  16.813 -24.390  0.00  0.00     0.065 C 
BRANCH  15  16
ATOM     16  C   UNL d   1      31.115  16.482 -24.741  0.00  0.00     0.030 C 
BRANCH  16  17
ATOM     17  C   UNL d   1      30.377  16.828 -24.631  0.00  0.00     0.100 A 
ATOM     18  O   UNL d   1      29.831  16.649 -24.029  0.00  0.00    -0.307 OA
ATOM     19  C   UNL d   1      29.174  17.124 -24.129  0.00  0.00     0.100 A 
ATOM     20  C   UNL d   1      29.299  17.603 -24.791  0.00  0.00     0.027 A 
ATOM     21  C   UNL d   1      30.042  17.417 -25.097  0.00  0.00     0.027 A 
BRANCH  19  22
ATOM     22  C   UNL d   1      28.506  17.122 -23.651  0.00  0.00     0.025 C 
ATOM     23  C   UNL d   1      28.074  16.422 -23.549  0.00  0.00     0.002 C 
ENDBRANCH  19  22
ENDBRANCH  16  17
ENDBRANCH  15  16
ENDBRANCH   1  15
TORSDOF 8
ENDMDL
MODEL 2
REMARK VINA RESULT:      -1.9      1.137      4.522
REMARK  8 active torsions:
REMARK  status: ('A' for Active; 'I' for Inactive)
REMARK    1  A    between atoms: C_2  and  C_8 
REMARK    2  A    between atoms: O_17  and  C_2 
REMARK    3  A    between atoms: C_15  and  C_3 
REMARK    4  A    between atoms: C_20  and  C_4 
REMARK    5  A    between atoms: C_5  and  C_16 
REMARK       I    between atoms: N_9  and  C_5 
REMARK    6  A    between atoms: C_14  and  N_9 
REMARK    7  A    between atoms: C_16  and  C_15 
REMARK    8  A    between atoms: C_21  and  O_17 
ROOT
ATOM      1  C   UNL d   1      32.678  18.937 -24.651  0.00  0.00     0.279 C 
ATOM      2  N   UNL d   1      32.294  18.368 -25.094  0.00  0.00    -0.208 NA
ATOM      3  O   UNL d   1      33.120  19.532 -25.026  0.00  0.00    -0.265 OA
ENDROOT
BRANCH   2   4
ATOM      4  C   UNL d   1      31.855  17.777 -24.719  0.00  0.00     0.085 A 
ATOM      5  C   UNL d   1      32.213  17.061 -24.528  0.00  0.00     0.019 A 
ATOM      6  C   UNL d   1      31.776  16.474 -24.156  0.00  0.00     0.007 A 
ATOM      7  C   UNL d   1      30.981  16.605 -23.975  0.00  0.00     0.064 A 
ATOM      8  C   UNL d   1      30.622  17.320 -24.165  0.00  0.00     0.007 A 
ATOM      9  C   UNL d   1      31.070  17.912 -24.543  0.00  0.00     0.019 A 
BRANCH   7  10
ATOM     10  C   UNL d   1      30.540  16.010 -23.598  0.00  0.00     0.300 C 
ATOM     11  O   UNL d   1      30.882  15.568 -22.995  0.00  0.00    -0.259 OA
BRANCH  10  12
ATOM     12  O   UNL d   1      29.768  15.866 -23.828  0.00  0.00    -0.271 OA
BRANCH  12  13
ATOM     13  C   UNL d   1      29.256  15.460 -23.324  0.00  0.00     0.126 C 
ATOM     14  C   UNL d   1      28.497  15.756 -23.180  0.00  0.00     0.029 C 
ENDBRANCH  12  13
ENDBRANCH  10  12
ENDBRANCH   7  10
ENDBRANCH   2   4
BRANCH   1  15
ATOM     15  C   UNL d   1      32.628  18.922 -23.826  0.00  0.00     0.065 C 
BRANCH  15  16
ATOM     16  C   UNL d   1      33.240  19.231 -23.367  0.00  0.00     0.030 C 
BRANCH  16  17
ATOM     17  C   UNL d   1      33.077  19.578 -22.640  0.00  0.00     0.100 A 
ATOM     18  O   UNL d   1      32.765  20.340 -22.514  0.00  0.00    -0.307 OA
ATOM     19  C   UNL d   1      32.692  20.457 -21.709  0.00  0.00     0.100 A 
ATOM     20  C   UNL d   1      32.954  19.776 -21.323  0.00  0.00     0.027 A 
ATOM     21  C   UNL d   1      33.190  19.237 -21.902  0.00  0.00     0.027 A 
BRANCH  19  22
ATOM     22  C   UNL d   1      32.405  21.138 -21.350  0.00  0.00     0.025 C 
ATOM     23  C   UNL d   1      32.400  21.199 -20.524  0.00  0.00     0.002 C 
ENDBRANCH  19  22
ENDBRANCH  16  17
ENDBRANCH  15  16
ENDBRANCH   1  15
TORSDOF 8
ENDMDL
