MODEL 1
REMARK VINA RESULT:      -4.1      0.000      0.000
REMARK  6 active torsions:
REMARK  status: ('A' for Active; 'I' for Inactive)
REMARK    1  A    between atoms: C_6  and  N_1 
REMARK    2  A    between atoms: C_13  and  C_6 
REMARK    3  A    between atoms: C_8  and  C_9 
REMARK    4  A    between atoms: C_16  and  C_13 
REMARK    5  A    between atoms: O_14  and  C_16 
REMARK    6  A    between atoms: C_15  and  O_14 
ROOT
ATOM      1  C   UNL d   1      32.906  18.464 -23.053  0.00  0.00     0.237 C 
ATOM      2  O   UNL d   1      33.239  17.922 -22.514  0.00  0.00    -0.283 OA
ENDROOT
BRANCH   1   3
ATOM      3  C   UNL d   1      32.713  18.215 -23.822  0.00  0.00     0.117 C 
BRANCH   3   4
ATOM      4  N   UNL d   1      32.089  17.686 -23.945  0.00  0.00    -0.344 N 
ATOM      5  C   UNL d   1      31.511  17.852 -24.521  0.00  0.00     0.086 A 
ATOM      6  C   UNL d   1      30.889  17.327 -24.644  0.00  0.00     0.035 A 
ATOM      7  C   UNL d   1      30.940  18.020 -25.093  0.00  0.00     0.027 C 
ATOM      8  C   UNL d   1      32.134  18.381 -24.399  0.00  0.00     0.027 C 
ATOM      9  C   UNL d   1      30.836  16.630 -24.195  0.00  0.00     0.191 A 
ATOM     10  C   UNL d   1      31.414  16.465 -23.619  0.00  0.00     0.035 A 
ATOM     11  O   UNL d   1      30.214  16.105 -24.318  0.00  0.00    -0.287 OA
ATOM     12  C   UNL d   1      32.040  16.997 -23.497  0.00  0.00     0.086 A 
ATOM     13  C   UNL d   1      32.661  17.522 -23.374  0.00  0.00     0.027 C 
ATOM     14  C   UNL d   1      31.990  16.308 -23.050  0.00  0.00     0.027 C 
ENDBRANCH   3   4
ENDBRANCH   1   3
BRANCH   1  15
ATOM     15  C   UNL d   1      32.768  19.239 -22.833  0.00  0.00     0.166 C 
BRANCH  15  16
ATOM     16  O   UNL d   1      33.153  19.562 -22.172  0.00  0.00    -0.302 OA
BRANCH  16  17
ATOM     17  C   UNL d   1      32.964  20.332 -21.906  0.00  0.00     0.100 A 
ATOM     18  C   UNL d   1      33.204  20.994 -22.335  0.00  0.00     0.025 A 
ATOM     19  C   UNL d   1      33.015  21.749 -22.068  0.00  0.00     0.005 A 
ATOM     20  C   UNL d   1      32.585  21.849 -21.371  0.00  0.00     0.039 A 
ATOM     21  C   UNL d   1      32.344  21.183 -20.940  0.00  0.00     0.005 A 
ATOM     22  C   UNL d   1      32.535  20.425 -21.210  0.00  0.00     0.025 A 
BRANCH  20  23
ATOM     23  C   UNL d   1      32.400  22.608 -21.112  0.00  0.00     0.196 C 
ATOM     24  O   UNL d   1      31.752  23.014 -21.422  0.00  0.00    -0.287 OA
ATOM     25  C   UNL d   1      32.872  22.965 -20.534  0.00  0.00     0.045 C 
ENDBRANCH  20  23
ENDBRANCH  16  17
ENDBRANCH  15  16
ENDBRANCH   1  15
TORSDOF 6
ENDMDL
MODEL 2
REMARK VINA RESULT:      -2.8      1.309      5.308
REMARK  6 active torsions:
REMARK  status: ('A' for Active; 'I' for Inactive)
REMARK    1  A    between atoms: C_6  and  N_1 
REMARK    2  A    between atoms: C_13  and  C_6 
REMARK    3  A    between atoms: C_8  and  C_9 
REMARK    4  A    between atoms: C_16  and  C_13 
REMARK    5  A    between atoms: O_14  and  C_16 
REMARK    6  A    between atoms: C_15  and  O_14 
ROOT
ATOM      1  C   UNL d   1      33.084  20.528 -22.740  0.00  0.00     0.237 C 
ATOM      2  O   UNL d   1      33.087  21.062 -23.380  0.00  0.00    -0.283 OA
ENDROOT
BRANCH   1   3
ATOM      3  C   UNL d   1      33.236  20.804 -21.971  0.00  0.00     0.117 C 
BRANCH   3   4
ATOM      4  N   UNL d   1      32.869  21.493 -21.695  0.00  0.00    -0.344 N 
ATOM      5  C   UNL d   1      32.497  21.495 -20.950  0.00  0.00     0.086 A 
ATOM      6  C   UNL d   1      32.132  22.178 -20.674  0.00  0.00     0.035 A 
ATOM      7  C   UNL d   1      32.129  21.492 -20.211  0.00  0.00     0.027 C 
ATOM      8  C   UNL d   1      32.863  20.807 -21.225  0.00  0.00     0.027 C 
ATOM      9  C   UNL d   1      32.133  22.868 -21.136  0.00  0.00     0.191 A 
ATOM     10  C   UNL d   1      32.505  22.866 -21.881  0.00  0.00     0.035 A 
ATOM     11  O   UNL d   1      31.767  23.553 -20.860  0.00  0.00    -0.287 OA
ATOM     12  C   UNL d   1      32.873  22.174 -22.157  0.00  0.00     0.086 A 
ATOM     13  C   UNL d   1      33.238  21.490 -22.433  0.00  0.00     0.027 C 
ATOM     14  C   UNL d   1      32.876  22.856 -22.618  0.00  0.00     0.027 C 
ENDBRANCH   3   4
ENDBRANCH   1   3
BRANCH   1  15
ATOM     15  C   UNL d   1      32.931  19.733 -22.860  0.00  0.00     0.166 C 
BRANCH  15  16
ATOM     16  O   UNL d   1      33.202  19.356 -23.548  0.00  0.00    -0.302 OA
BRANCH  16  17
ATOM     17  C   UNL d   1      32.924  18.591 -23.748  0.00  0.00     0.100 A 
ATOM     18  C   UNL d   1      32.563  18.454 -24.476  0.00  0.00     0.025 A 
ATOM     19  C   UNL d   1      32.292  17.701 -24.667  0.00  0.00     0.005 A 
ATOM     20  C   UNL d   1      32.381  17.079 -24.132  0.00  0.00     0.039 A 
ATOM     21  C   UNL d   1      32.745  17.217 -23.399  0.00  0.00     0.005 A 
ATOM     22  C   UNL d   1      33.016  17.976 -23.210  0.00  0.00     0.025 A 
BRANCH  20  23
ATOM     23  C   UNL d   1      32.107  16.328 -24.331  0.00  0.00     0.196 C 
ATOM     24  O   UNL d   1      32.552  15.833 -24.818  0.00  0.00    -0.287 OA
ATOM     25  C   UNL d   1      31.377  16.072 -24.037  0.00  0.00     0.045 C 
ENDBRANCH  20  23
ENDBRANCH  16  17
ENDBRANCH  15  16
ENDBRANCH   1  15
TORSDOF 6
ENDMDL
