MODEL 1
REMARK VINA RESULT:      -4.8      0.000      0.000
REMARK  3 active torsions:
REMARK  status: ('A' for Active; 'I' for Inactive)
REMARK    1  A    between atoms: C_7  and  C_3 
REMARK       I    between atoms: N_10  and  C_7 
REMARK    2  A    between atoms: C_18  and  C_9 
REMARK    3  A    between atoms: C_12  and  N_10 
ROOT
ATOM      1  C   UNL d   1      58.609  -0.069  30.059  0.00  0.00     0.059 A 
ATOM      2  C   UNL d   1      58.569  -0.854  29.805  0.00  0.00     0.013 A 
ATOM      3  C   UNL d   1      57.537  -0.309  30.966  0.00  0.00     0.088 A 
ATOM      4  S   UNL d   1      58.094   0.203  30.638  0.00  0.00    -0.075 SA
ATOM      5  S   UNL d   1      59.166   0.443  29.732  0.00  0.00    -0.080 SA
ATOM      6  C   UNL d   1      57.498  -1.094  30.712  0.00  0.00     0.012 A 
ATOM      7  C   UNL d   1      59.637  -0.615  28.902  0.00  0.00     0.007 A 
ATOM      8  C   UNL d   1      59.677   0.170  29.156  0.00  0.00     0.030 A 
ENDROOT
BRANCH   3   9
ATOM      9  C   UNL d   1      57.022  -0.037  31.545  0.00  0.00     0.285 C 
ATOM     10  N   UNL d   1      56.911  -0.474  32.239  0.00  0.00    -0.208 NA
ATOM     11  O   UNL d   1      56.616   0.673  31.437  0.00  0.00    -0.265 OA
BRANCH  10  12
ATOM     12  C   UNL d   1      56.394  -0.203  32.822  0.00  0.00     0.085 A 
ATOM     13  C   UNL d   1      55.655  -0.541  32.898  0.00  0.00     0.019 A 
ATOM     14  C   UNL d   1      55.143  -0.269  33.478  0.00  0.00     0.002 A 
ATOM     15  C   UNL d   1      55.377   0.349  33.987  0.00  0.00     0.000 A 
ATOM     16  C   UNL d   1      56.126   0.682  33.900  0.00  0.00     0.002 A 
ATOM     17  C   UNL d   1      54.863   0.624  34.573  0.00  0.00     0.000 C 
ATOM     18  C   UNL d   1      56.633   0.409  33.321  0.00  0.00     0.019 A 
ENDBRANCH  10  12
ENDBRANCH   3   9
BRANCH   8  19
ATOM     19  C   UNL d   1      60.237   0.677  28.823  0.00  0.00     0.006 C 
ATOM     20  C   UNL d   1      61.033   0.482  28.839  0.00  0.00     0.001 C 
ENDBRANCH   8  19
TORSDOF 3
ENDMDL
MODEL 2
REMARK VINA RESULT:      -3.0      1.302      5.134
REMARK  3 active torsions:
REMARK  status: ('A' for Active; 'I' for Inactive)
REMARK    1  A    between atoms: C_7  and  C_3 
REMARK       I    between atoms: N_10  and  C_7 
REMARK    2  A    between atoms: C_18  and  C_9 
REMARK    3  A    between atoms: C_12  and  N_10 
ROOT
ATOM      1  C   UNL d   1      56.359   0.447  33.029  0.00  0.00     0.059 A 
ATOM      2  C   UNL d   1      55.637   0.642  32.679  0.00  0.00     0.013 A 
ATOM      3  C   UNL d   1      56.976   0.431  31.745  0.00  0.00     0.088 A 
ATOM      4  S   UNL d   1      57.027   0.342  32.563  0.00  0.00    -0.075 SA
ATOM      5  S   UNL d   1      56.411   0.359  33.847  0.00  0.00    -0.080 SA
ATOM      6  C   UNL d   1      56.254   0.625  31.396  0.00  0.00     0.012 A 
ATOM      7  C   UNL d   1      55.022   0.658  33.958  0.00  0.00     0.007 A 
ATOM      8  C   UNL d   1      55.745   0.464  34.308  0.00  0.00     0.030 A 
ENDROOT
BRANCH   3   9
ATOM      9  C   UNL d   1      57.644   0.326  31.280  0.00  0.00     0.285 C 
ATOM     10  N   UNL d   1      57.603  -0.139  30.596  0.00  0.00    -0.208 NA
ATOM     11  O   UNL d   1      58.357   0.682  31.492  0.00  0.00    -0.265 OA
BRANCH  10  12
ATOM     12  C   UNL d   1      58.273  -0.246  30.126  0.00  0.00     0.085 A 
ATOM     13  C   UNL d   1      58.757   0.390  29.959  0.00  0.00     0.019 A 
ATOM     14  C   UNL d   1      59.422   0.281  29.492  0.00  0.00     0.002 A 
ATOM     15  C   UNL d   1      59.603  -0.475  29.191  0.00  0.00     0.000 A 
ATOM     16  C   UNL d   1      59.107  -1.109  29.367  0.00  0.00     0.002 A 
ATOM     17  C   UNL d   1      60.273  -0.588  28.720  0.00  0.00     0.000 C 
ATOM     18  C   UNL d   1      58.445  -0.997  29.832  0.00  0.00     0.019 A 
ENDBRANCH  10  12
ENDBRANCH   3   9
BRANCH   8  19
ATOM     19  C   UNL d   1      55.790   0.376  35.128  0.00  0.00     0.006 C 
ATOM     20  C   UNL d   1      55.200   0.680  35.610  0.00  0.00     0.001 C 
ENDBRANCH   8  19
TORSDOF 3
ENDMDL
MODEL 3
REMARK VINA RESULT:      -2.2      9.658     10.012
REMARK  3 active torsions:
REMARK  status: ('A' for Active; 'I' for Inactive)
REMARK    1  A    between atoms: C_7  and  C_3 
REMARK       I    between atoms: N_10  and  C_7 
REMARK    2  A    between atoms: C_18  and  C_9 
REMARK    3  A    between atoms: C_12  and  N_10 
ROOT
ATOM      1  C   UNL d   1      58.157  -9.612  31.290  0.00  0.00     0.059 A 
ATOM      2  C   UNL d   1      57.382  -9.818  31.490  0.00  0.00     0.013 A 
ATOM      3  C   UNL d   1      58.513  -9.612  32.669  0.00  0.00     0.088 A 
ATOM      4  S   UNL d   1      58.721  -9.509  31.877  0.00  0.00    -0.075 SA
ATOM      5  S   UNL d   1      58.364  -9.509  30.499  0.00  0.00    -0.080 SA
ATOM      6  C   UNL d   1      57.739  -9.818  32.869  0.00  0.00     0.012 A 
ATOM      7  C   UNL d   1      57.027  -9.818  30.117  0.00  0.00     0.007 A 
ATOM      8  C   UNL d   1      57.801  -9.612  29.916  0.00  0.00     0.030 A 
ENDROOT
BRANCH   3   9
ATOM      9  C   UNL d   1      59.078  -9.509  33.256  0.00  0.00     0.285 C 
ATOM     10  N   UNL d   1      58.886  -9.095  33.947  0.00  0.00    -0.208 NA
ATOM     11  O   UNL d   1      59.837  -9.818  33.160  0.00  0.00    -0.265 OA
BRANCH  10  12
ATOM     12  C   UNL d   1      59.451  -8.991  34.539  0.00  0.00     0.085 A 
ATOM     13  C   UNL d   1      60.046  -8.441  34.438  0.00  0.00     0.019 A 
ATOM     14  C   UNL d   1      60.607  -8.339  35.028  0.00  0.00     0.002 A 
ATOM     15  C   UNL d   1      60.569  -8.795  35.725  0.00  0.00     0.000 A 
ATOM     16  C   UNL d   1      59.964  -9.346  35.815  0.00  0.00     0.002 A 
ATOM     17  C   UNL d   1      61.133  -8.693  36.321  0.00  0.00     0.000 C 
ATOM     18  C   UNL d   1      59.406  -9.446  35.225  0.00  0.00     0.019 A 
ENDBRANCH  10  12
ENDBRANCH   3   9
BRANCH   8  19
ATOM     19  C   UNL d   1      58.002  -9.510  29.121  0.00  0.00     0.006 C 
ATOM     20  C   UNL d   1      57.445  -9.639  28.534  0.00  0.00     0.001 C 
ENDBRANCH   8  19
TORSDOF 3
ENDMDL
MODEL 4
REMARK VINA RESULT:      -1.9      1.640      2.199
REMARK  3 active torsions:
REMARK  status: ('A' for Active; 'I' for Inactive)
REMARK    1  A    between atoms: C_7  and  C_3 
REMARK       I    between atoms: N_10  and  C_7 
REMARK    2  A    between atoms: C_18  and  C_9 
REMARK    3  A    between atoms: C_12  and  N_10 
ROOT
ATOM      1  C   UNL d   1      58.898  -1.844  29.751  0.00  0.00     0.059 A 
ATOM      2  C   UNL d   1      59.414  -1.349  29.339  0.00  0.00     0.013 A 
ATOM      3  C   UNL d   1      58.213  -0.706  30.263  0.00  0.00     0.088 A 
ATOM      4  S   UNL d   1      58.300  -1.524  30.212  0.00  0.00    -0.075 SA
ATOM      5  S   UNL d   1      58.984  -2.663  29.701  0.00  0.00    -0.080 SA
ATOM      6  C   UNL d   1      58.729  -0.210  29.850  0.00  0.00     0.012 A 
ATOM      7  C   UNL d   1      60.097  -2.483  28.829  0.00  0.00     0.007 A 
ATOM      8  C   UNL d   1      59.581  -2.979  29.241  0.00  0.00     0.030 A 
ENDROOT
BRANCH   3   9
ATOM      9  C   UNL d   1      57.615  -0.385  30.724  0.00  0.00     0.285 C 
ATOM     10  N   UNL d   1      57.446  -0.708  31.467  0.00  0.00    -0.208 NA
ATOM     11  O   UNL d   1      57.180   0.260  30.448  0.00  0.00    -0.265 OA
BRANCH  10  12
ATOM     12  C   UNL d   1      56.844  -0.388  31.932  0.00  0.00     0.085 A 
ATOM     13  C   UNL d   1      56.565   0.362  31.772  0.00  0.00     0.019 A 
ATOM     14  C   UNL d   1      55.967   0.678  32.236  0.00  0.00     0.002 A 
ATOM     15  C   UNL d   1      55.647   0.236  32.867  0.00  0.00     0.000 A 
ATOM     16  C   UNL d   1      55.938  -0.520  33.018  0.00  0.00     0.002 A 
ATOM     17  C   UNL d   1      55.044   0.553  33.336  0.00  0.00     0.000 C 
ATOM     18  C   UNL d   1      56.534  -0.833  32.554  0.00  0.00     0.019 A 
ENDBRANCH  10  12
ENDBRANCH   3   9
BRANCH   8  19
ATOM     19  C   UNL d   1      59.672  -3.798  29.186  0.00  0.00     0.006 C 
ATOM     20  C   UNL d   1      59.802  -4.153  28.458  0.00  0.00     0.001 C 
ENDBRANCH   8  19
TORSDOF 3
ENDMDL
