MODEL 1
REMARK VINA RESULT:      -0.9      0.000      0.000
REMARK  11 active torsions:
REMARK  status: ('A' for Active; 'I' for Inactive)
REMARK    1  A    between atoms: S_2  and  N_15 
REMARK    2  A    between atoms: C_10  and  S_2 
REMARK    3  A    between atoms: C_14  and  C_4 
REMARK    4  A    between atoms: N_16  and  C_8 
REMARK    5  A    between atoms: C_19  and  C_14 
REMARK    6  A    between atoms: N_15  and  C_19 
REMARK    7  A    between atoms: C_24  and  N_16 
REMARK    8  A    between atoms: N_20  and  C_25 
REMARK    9  A    between atoms: C_26  and  N_20 
REMARK   10  A    between atoms: C_27  and  N_20 
REMARK   11  A    between atoms: C_25  and  C_24 
ROOT
ATOM      1  N   UNL d   1      58.121   0.152  30.196  0.00  0.00    -0.190 N 
ATOM      2  C   UNL d   1      57.473   0.477  29.805  0.00  0.00     0.187 A 
ATOM      3  C   UNL d   1      58.714   0.005  29.631  0.00  0.00     0.188 A 
ATOM      4  N   UNL d   1      58.091   0.033  31.011  0.00  0.00    -0.143 NA
ATOM      5  N   UNL d   1      57.668   0.529  28.994  0.00  0.00    -0.127 NA
ATOM      6  N   UNL d   1      58.427   0.239  28.898  0.00  0.00    -0.127 NA
ATOM      7  C   UNL d   1      57.413   0.238  31.434  0.00  0.00     0.182 A 
ATOM      8  C   UNL d   1      56.794   0.682  30.229  0.00  0.00     0.044 A 
ATOM      9  C   UNL d   1      56.765   0.562  31.043  0.00  0.00     0.044 A 
ENDROOT
BRANCH   3  10
ATOM     10  C   UNL d   1      59.454  -0.317  29.778  0.00  0.00     0.062 C 
BRANCH  10  11
ATOM     11  C   UNL d   1      59.830  -0.770  29.205  0.00  0.00     0.115 C 
BRANCH  11  12
ATOM     12  N   UNL d   1      60.566  -1.102  29.373  0.00  0.00    -0.157 NA
BRANCH  12  13
ATOM     13  S   UNL d   1      60.679  -1.912  29.309  0.00  0.00     0.285 S 
ATOM     14  O   UNL d   1      60.604  -1.991  30.130  0.00  0.00    -0.198 OA
ATOM     15  O   UNL d   1      60.755  -1.844  28.488  0.00  0.00    -0.198 OA
BRANCH  13  16
ATOM     16  C   UNL d   1      60.791  -2.725  29.252  0.00  0.00     0.105 A 
ATOM     17  C   UNL d   1      60.893  -3.182  29.940  0.00  0.00     0.013 A 
ATOM     18  C   UNL d   1      61.004  -3.987  29.880  0.00  0.00     0.001 A 
ATOM     19  C   UNL d   1      61.016  -4.352  29.138  0.00  0.00     0.000 A 
ATOM     20  C   UNL d   1      60.917  -3.914  28.461  0.00  0.00     0.001 A 
ATOM     21  C   UNL d   1      61.130  -5.177  29.088  0.00  0.00     0.000 C 
ATOM     22  C   UNL d   1      60.804  -3.100  28.504  0.00  0.00     0.013 A 
ENDBRANCH  13  16
ENDBRANCH  12  13
ENDBRANCH  11  12
ENDBRANCH  10  11
ENDBRANCH   3  10
BRANCH   7  23
ATOM     23  N   UNL d   1      57.373   0.122  32.255  0.00  0.00    -0.222 NA
BRANCH  23  24
ATOM     24  C   UNL d   1      56.718  -0.298  32.574  0.00  0.00     0.120 C 
BRANCH  24  25
ATOM     25  C   UNL d   1      56.242   0.062  33.137  0.00  0.00     0.101 C 
BRANCH  25  26
ATOM     26  N   UNL d   1      55.760  -0.398  33.627  0.00  0.00    -0.301 N 
BRANCH  26  27
ATOM     27  C   UNL d   1      55.409  -1.093  33.345  0.00  0.00     0.080 C 
ATOM     28  C   UNL d   1      55.604  -1.823  33.698  0.00  0.00     0.021 C 
ENDBRANCH  26  27
BRANCH  26  29
ATOM     29  C   UNL d   1      55.623  -0.163  34.415  0.00  0.00     0.080 C 
ATOM     30  C   UNL d   1      55.130   0.488  34.563  0.00  0.00     0.021 C 
ENDBRANCH  26  29
ENDBRANCH  25  26
ENDBRANCH  24  25
ENDBRANCH  23  24
ENDBRANCH   7  23
TORSDOF 11
ENDMDL
MODEL 2
REMARK VINA RESULT:       0.2      1.963      2.712
REMARK  11 active torsions:
REMARK  status: ('A' for Active; 'I' for Inactive)
REMARK    1  A    between atoms: S_2  and  N_15 
REMARK    2  A    between atoms: C_10  and  S_2 
REMARK    3  A    between atoms: C_14  and  C_4 
REMARK    4  A    between atoms: N_16  and  C_8 
REMARK    5  A    between atoms: C_19  and  C_14 
REMARK    6  A    between atoms: N_15  and  C_19 
REMARK    7  A    between atoms: C_24  and  N_16 
REMARK    8  A    between atoms: N_20  and  C_25 
REMARK    9  A    between atoms: C_26  and  N_20 
REMARK   10  A    between atoms: C_27  and  N_20 
REMARK   11  A    between atoms: C_25  and  C_24 
ROOT
ATOM      1  N   UNL d   1      59.613  -0.893  29.384  0.00  0.00    -0.190 N 
ATOM      2  C   UNL d   1      60.288  -0.506  29.654  0.00  0.00     0.187 A 
ATOM      3  C   UNL d   1      59.854  -1.503  28.872  0.00  0.00     0.188 A 
ATOM      4  N   UNL d   1      58.869  -0.644  29.637  0.00  0.00    -0.143 NA
ATOM      5  N   UNL d   1      60.949  -0.880  29.305  0.00  0.00    -0.127 NA
ATOM      6  N   UNL d   1      60.674  -1.487  28.829  0.00  0.00    -0.127 NA
ATOM      7  C   UNL d   1      58.801  -0.008  30.159  0.00  0.00     0.182 A 
ATOM      8  C   UNL d   1      60.220   0.130  30.176  0.00  0.00     0.044 A 
ATOM      9  C   UNL d   1      59.477   0.379  30.428  0.00  0.00     0.044 A 
ENDROOT
BRANCH   3  10
ATOM     10  C   UNL d   1      59.361  -2.028  28.478  0.00  0.00     0.062 C 
BRANCH  10  11
ATOM     11  C   UNL d   1      59.195  -2.763  28.804  0.00  0.00     0.115 C 
BRANCH  11  12
ATOM     12  N   UNL d   1      58.505  -3.157  28.580  0.00  0.00    -0.157 NA
BRANCH  12  13
ATOM     13  S   UNL d   1      58.486  -3.976  28.555  0.00  0.00     0.285 S 
ATOM     14  O   UNL d   1      59.309  -3.997  28.469  0.00  0.00    -0.198 OA
ATOM     15  O   UNL d   1      57.663  -3.966  28.642  0.00  0.00    -0.198 OA
BRANCH  13  16
ATOM     16  C   UNL d   1      58.473  -4.799  28.530  0.00  0.00     0.105 A 
ATOM     17  C   UNL d   1      59.185  -5.228  28.556  0.00  0.00     0.013 A 
ATOM     18  C   UNL d   1      59.170  -6.043  28.531  0.00  0.00     0.001 A 
ATOM     19  C   UNL d   1      58.448  -6.443  28.480  0.00  0.00     0.000 A 
ATOM     20  C   UNL d   1      57.747  -6.033  28.455  0.00  0.00     0.001 A 
ATOM     21  C   UNL d   1      58.443  -7.278  28.455  0.00  0.00     0.000 C 
ATOM     22  C   UNL d   1      57.746  -5.210  28.479  0.00  0.00     0.013 A 
ENDBRANCH  13  16
ENDBRANCH  12  13
ENDBRANCH  11  12
ENDBRANCH  10  11
ENDBRANCH   3  10
BRANCH   7  23
ATOM     23  N   UNL d   1      58.056   0.250  30.420  0.00  0.00    -0.222 NA
BRANCH  23  24
ATOM     24  C   UNL d   1      57.755  -0.045  31.147  0.00  0.00     0.120 C 
BRANCH  24  25
ATOM     25  C   UNL d   1      56.946  -0.133  31.244  0.00  0.00     0.101 C 
BRANCH  25  26
ATOM     26  N   UNL d   1      56.636  -0.312  31.989  0.00  0.00    -0.301 N 
BRANCH  26  27
ATOM     27  C   UNL d   1      56.289  -1.049  32.139  0.00  0.00     0.080 C 
ATOM     28  C   UNL d   1      55.962  -1.203  32.891  0.00  0.00     0.021 C 
ENDBRANCH  26  27
BRANCH  26  29
ATOM     29  C   UNL d   1      56.671   0.253  32.601  0.00  0.00     0.080 C 
ATOM     30  C   UNL d   1      56.074   0.263  33.178  0.00  0.00     0.021 C 
ENDBRANCH  26  29
ENDBRANCH  25  26
ENDBRANCH  24  25
ENDBRANCH  23  24
ENDBRANCH   7  23
TORSDOF 11
ENDMDL
