MODEL 1
REMARK VINA RESULT:      54.1      0.000      0.000
REMARK  5 active torsions:
REMARK  status: ('A' for Active; 'I' for Inactive)
REMARK    1  A    between atoms: C_2  and  C_1 
REMARK    2  A    between atoms: N_13  and  C_7 
REMARK    3  A    between atoms: C_12  and  C_21 
REMARK    4  A    between atoms: C_21  and  N_13 
REMARK    5  A    between atoms: O_24  and  C_22 
ROOT
ATOM      1  C   UNL d   1     -55.657-100.720 -44.107  0.00  0.00     0.089 A 
ATOM      2  C   UNL d   1     -55.325-101.299 -44.589  0.00  0.00     0.302 A 
ATOM      3  C   UNL d   1     -55.675-100.826 -43.284  0.00  0.00     0.009 A 
ATOM      4  O   UNL d   1     -55.008-101.986 -44.249  0.00  0.00    -0.273 OA
ATOM      5  C   UNL d   1     -55.358-101.511 -42.950  0.00  0.00     0.025 A 
ATOM      6  C   UNL d   1     -55.026-102.090 -43.431  0.00  0.00     0.103 A 
ATOM      7  O   UNL d   1     -55.303-101.203 -45.415  0.00  0.00    -0.259 OA
ATOM      8  C   UNL d   1     -55.378-101.611 -42.135  0.00  0.00     0.026 A 
ATOM      9  C   UNL d   1     -54.711-102.771 -43.100  0.00  0.00     0.027 A 
ATOM     10  C   UNL d   1     -55.058-102.303 -41.804  0.00  0.00     0.094 A 
ATOM     11  C   UNL d   1     -54.729-102.876 -42.281  0.00  0.00     0.026 A 
ENDROOT
BRANCH   1  12
ATOM     12  C   UNL d   1     -55.974-100.034 -44.443  0.00  0.00     0.140 A 
ATOM     13  S   UNL d   1     -56.751 -99.901 -44.700  0.00  0.00    -0.026 SA
ATOM     14  C   UNL d   1     -56.789 -99.132 -44.992  0.00  0.00     0.216 A 
ATOM     15  N   UNL d   1     -56.040 -98.796 -44.914  0.00  0.00    -0.121 NA
ATOM     16  N   UNL d   1     -55.541 -99.355 -44.576  0.00  0.00    -0.139 NA
BRANCH  14  17
ATOM     17  N   UNL d   1     -57.455 -98.756 -45.307  0.00  0.00    -0.216 NA
BRANCH  17  18
ATOM     18  C   UNL d   1     -58.210 -99.025 -45.106  0.00  0.00     0.126 C 
BRANCH  18  19
ATOM     19  C   UNL d   1     -58.496 -98.922 -44.334  0.00  0.00     0.119 A 
ATOM     20  O   UNL d   1     -58.121 -98.844 -43.603  0.00  0.00    -0.304 OA
ATOM     21  C   UNL d   1     -58.695 -98.756 -43.028  0.00  0.00     0.123 A 
ATOM     22  C   UNL d   1     -59.422 -98.778 -43.388  0.00  0.00     0.029 A 
ATOM     23  C   UNL d   1     -59.308 -98.881 -44.205  0.00  0.00     0.028 A 
ENDBRANCH  18  19
ENDBRANCH  17  18
ENDBRANCH  14  17
ENDBRANCH   1  12
BRANCH  10  24
ATOM     24  O   UNL d   1     -55.080-102.397 -40.985  0.00  0.00    -0.328 OA
ATOM     25  C   UNL d   1     -55.006-101.744 -40.481  0.00  0.00     0.181 C 
ENDBRANCH  10  24
TORSDOF 5
ENDMDL
