MODEL 1
REMARK VINA RESULT:      -3.1      0.000      0.000
REMARK  4 active torsions:
REMARK  status: ('A' for Active; 'I' for Inactive)
REMARK    1  A    between atoms: N_5  and  C_1 
REMARK    2  A    between atoms: C_9  and  C_4 
REMARK    3  A    between atoms: C_8  and  N_5 
REMARK    4  A    between atoms: O_12  and  C_9 
ROOT
ATOM      1  N   UNL d   1      57.661  -0.925  30.571  0.00  0.00    -0.222 NA
ENDROOT
BRANCH   1   2
ATOM      2  C   UNL d   1      57.583  -0.583  31.328  0.00  0.00     0.186 A 
ATOM      3  O   UNL d   1      58.102  -0.057  31.682  0.00  0.00    -0.255 OA
ATOM      4  C   UNL d   1      57.841   0.153  32.417  0.00  0.00     0.301 A 
ATOM      5  O   UNL d   1      58.224   0.682  32.949  0.00  0.00    -0.259 OA
ATOM      6  C   UNL d   1      57.131  -0.246  32.546  0.00  0.00     0.067 A 
ATOM      7  C   UNL d   1      56.971  -0.702  31.872  0.00  0.00     0.046 A 
ATOM      8  C   UNL d   1      56.606  -0.261  33.182  0.00  0.00     0.005 A 
ATOM      9  C   UNL d   1      56.289  -1.167  31.842  0.00  0.00     0.004 A 
ATOM     10  C   UNL d   1      55.767  -1.178  32.480  0.00  0.00     0.000 A 
ATOM     11  C   UNL d   1      55.927  -0.722  33.154  0.00  0.00     0.000 A 
ENDBRANCH   1   2
BRANCH   1  12
ATOM     12  C   UNL d   1      58.086  -0.541  29.940  0.00  0.00     0.089 A 
ATOM     13  C   UNL d   1      58.492  -0.953  29.416  0.00  0.00     0.081 A 
ATOM     14  C   UNL d   1      58.900  -0.572  28.812  0.00  0.00     0.007 A 
ATOM     15  C   UNL d   1      58.871   0.262  28.769  0.00  0.00     0.000 A 
ATOM     16  C   UNL d   1      58.438   0.680  29.328  0.00  0.00     0.002 A 
ATOM     17  C   UNL d   1      58.040   0.288  29.922  0.00  0.00     0.019 A 
BRANCH  13  18
ATOM     18  C   UNL d   1      58.494  -1.775  29.497  0.00  0.00     0.297 C 
ATOM     19  O   UNL d   1      57.798  -2.198  29.413  0.00  0.00    -0.259 OA
BRANCH  18  20
ATOM     20  O   UNL d   1      59.203  -2.164  29.661  0.00  0.00    -0.296 OA
ATOM     21  C   UNL d   1      59.315  -2.936  29.366  0.00  0.00     0.185 C 
ENDBRANCH  18  20
ENDBRANCH  13  18
ENDBRANCH   1  12
TORSDOF 4
ENDMDL
MODEL 2
REMARK VINA RESULT:      -2.8      1.420      2.225
REMARK  4 active torsions:
REMARK  status: ('A' for Active; 'I' for Inactive)
REMARK    1  A    between atoms: N_5  and  C_1 
REMARK    2  A    between atoms: C_9  and  C_4 
REMARK    3  A    between atoms: C_8  and  N_5 
REMARK    4  A    between atoms: O_12  and  C_9 
ROOT
ATOM      1  N   UNL d   1      56.968   0.070  31.495  0.00  0.00    -0.222 NA
ENDROOT
BRANCH   1   2
ATOM      2  C   UNL d   1      56.590  -0.375  32.092  0.00  0.00     0.186 A 
ATOM      3  O   UNL d   1      56.756  -1.150  32.303  0.00  0.00    -0.255 OA
ATOM      4  C   UNL d   1      56.274  -1.392  32.904  0.00  0.00     0.301 A 
ATOM      5  O   UNL d   1      56.279  -2.151  33.270  0.00  0.00    -0.259 OA
ATOM      6  C   UNL d   1      55.780  -0.758  33.092  0.00  0.00     0.067 A 
ATOM      7  C   UNL d   1      55.976  -0.129  32.589  0.00  0.00     0.046 A 
ATOM      8  C   UNL d   1      55.180  -0.664  33.649  0.00  0.00     0.005 A 
ATOM      9  C   UNL d   1      55.569   0.588  32.648  0.00  0.00     0.004 A 
ATOM     10  C   UNL d   1      54.969   0.678  33.207  0.00  0.00     0.000 A 
ATOM     11  C   UNL d   1      54.774   0.048  33.710  0.00  0.00     0.000 A 
ENDBRANCH   1   2
BRANCH   1  12
ATOM     12  C   UNL d   1      57.793   0.278  31.538  0.00  0.00     0.089 A 
ATOM     13  C   UNL d   1      58.236   0.313  30.896  0.00  0.00     0.081 A 
ATOM     14  C   UNL d   1      59.032   0.514  30.949  0.00  0.00     0.007 A 
ATOM     15  C   UNL d   1      59.357   0.681  31.701  0.00  0.00     0.000 A 
ATOM     16  C   UNL d   1      58.877   0.640  32.366  0.00  0.00     0.002 A 
ATOM     17  C   UNL d   1      58.090   0.438  32.297  0.00  0.00     0.019 A 
BRANCH  13  18
ATOM     18  C   UNL d   1      57.874   0.140  30.174  0.00  0.00     0.297 C 
ATOM     19  O   UNL d   1      57.181   0.521  29.961  0.00  0.00    -0.259 OA
BRANCH  18  20
ATOM     20  O   UNL d   1      58.217  -0.418  29.673  0.00  0.00    -0.296 OA
ATOM     21  C   UNL d   1      57.978  -0.440  28.874  0.00  0.00     0.185 C 
ENDBRANCH  18  20
ENDBRANCH  13  18
ENDBRANCH   1  12
TORSDOF 4
ENDMDL
MODEL 3
REMARK VINA RESULT:      -2.6      1.223      3.646
REMARK  4 active torsions:
REMARK  status: ('A' for Active; 'I' for Inactive)
REMARK    1  A    between atoms: N_5  and  C_1 
REMARK    2  A    between atoms: C_9  and  C_4 
REMARK    3  A    between atoms: C_8  and  N_5 
REMARK    4  A    between atoms: O_12  and  C_9 
ROOT
ATOM      1  N   UNL d   1      57.403  -0.778  31.054  0.00  0.00    -0.222 NA
ENDROOT
BRANCH   1   2
ATOM      2  C   UNL d   1      57.782  -0.613  30.329  0.00  0.00     0.186 A 
ATOM      3  O   UNL d   1      57.811   0.111  29.946  0.00  0.00    -0.255 OA
ATOM      4  C   UNL d   1      58.228   0.055  29.257  0.00  0.00     0.301 A 
ATOM      5  O   UNL d   1      58.377   0.681  28.714  0.00  0.00    -0.259 OA
ATOM      6  C   UNL d   1      58.479  -0.728  29.187  0.00  0.00     0.067 A 
ATOM      7  C   UNL d   1      58.203  -1.141  29.851  0.00  0.00     0.046 A 
ATOM      8  C   UNL d   1      58.920  -1.123  28.614  0.00  0.00     0.005 A 
ATOM      9  C   UNL d   1      58.370  -1.946  29.934  0.00  0.00     0.004 A 
ATOM     10  C   UNL d   1      58.812  -2.338  29.358  0.00  0.00     0.000 A 
ATOM     11  C   UNL d   1      59.088  -1.924  28.695  0.00  0.00     0.000 A 
ENDBRANCH   1   2
BRANCH   1  12
ATOM     12  C   UNL d   1      57.505  -0.285  31.742  0.00  0.00     0.089 A 
ATOM     13  C   UNL d   1      56.989  -0.297  32.328  0.00  0.00     0.081 A 
ATOM     14  C   UNL d   1      57.097   0.183  32.988  0.00  0.00     0.007 A 
ATOM     15  C   UNL d   1      57.767   0.682  33.018  0.00  0.00     0.000 A 
ATOM     16  C   UNL d   1      58.299   0.682  32.393  0.00  0.00     0.002 A 
ATOM     17  C   UNL d   1      58.178   0.200  31.746  0.00  0.00     0.019 A 
BRANCH  13  18
ATOM     18  C   UNL d   1      56.342  -0.805  32.256  0.00  0.00     0.297 C 
ATOM     19  O   UNL d   1      55.707  -0.597  31.784  0.00  0.00    -0.259 OA
BRANCH  18  20
ATOM     20  O   UNL d   1      56.344  -1.523  32.664  0.00  0.00    -0.296 OA
ATOM     21  C   UNL d   1      55.654  -1.754  33.071  0.00  0.00     0.185 C 
ENDBRANCH  18  20
ENDBRANCH  13  18
ENDBRANCH   1  12
TORSDOF 4
ENDMDL
MODEL 4
REMARK VINA RESULT:      -1.9      8.412      9.203
REMARK  4 active torsions:
REMARK  status: ('A' for Active; 'I' for Inactive)
REMARK    1  A    between atoms: N_5  and  C_1 
REMARK    2  A    between atoms: C_9  and  C_4 
REMARK    3  A    between atoms: C_8  and  N_5 
REMARK    4  A    between atoms: O_12  and  C_9 
ROOT
ATOM      1  N   UNL d   1      59.294  -9.061  33.838  0.00  0.00    -0.222 NA
ENDROOT
BRANCH   1   2
ATOM      2  C   UNL d   1      59.682  -8.947  34.568  0.00  0.00     0.186 A 
ATOM      3  O   UNL d   1      60.206  -9.465  34.928  0.00  0.00    -0.255 OA
ATOM      4  C   UNL d   1      60.468  -9.164  35.630  0.00  0.00     0.301 A 
ATOM      5  O   UNL d   1      61.011  -9.534  36.158  0.00  0.00    -0.259 OA
ATOM      6  C   UNL d   1      60.106  -8.430  35.732  0.00  0.00     0.067 A 
ATOM      7  C   UNL d   1      59.620  -8.296  35.074  0.00  0.00     0.046 A 
ATOM      8  C   UNL d   1      60.150  -7.864  36.329  0.00  0.00     0.005 A 
ATOM      9  C   UNL d   1      59.182  -7.597  35.022  0.00  0.00     0.004 A 
ATOM     10  C   UNL d   1      59.228  -7.034  35.621  0.00  0.00     0.000 A 
ATOM     11  C   UNL d   1      59.715  -7.168  36.279  0.00  0.00     0.000 A 
ENDBRANCH   1   2
BRANCH   1  12
ATOM     12  C   UNL d   1      59.706  -9.326  33.141  0.00  0.00     0.089 A 
ATOM     13  C   UNL d   1      59.318  -9.547  32.500  0.00  0.00     0.081 A 
ATOM     14  C   UNL d   1      59.726  -9.801  31.833  0.00  0.00     0.007 A 
ATOM     15  C   UNL d   1      60.561  -9.818  31.852  0.00  0.00     0.000 A 
ATOM     16  C   UNL d   1      60.954  -9.582  32.535  0.00  0.00     0.002 A 
ATOM     17  C   UNL d   1      60.535  -9.333  33.188  0.00  0.00     0.019 A 
BRANCH  13  18
ATOM     18  C   UNL d   1      58.493  -9.514  32.525  0.00  0.00     0.297 C 
ATOM     19  O   UNL d   1      58.089  -9.809  33.173  0.00  0.00    -0.259 OA
BRANCH  18  20
ATOM     20  O   UNL d   1      58.083  -9.180  31.891  0.00  0.00    -0.296 OA
ATOM     21  C   UNL d   1      57.250  -9.233  31.880  0.00  0.00     0.185 C 
ENDBRANCH  18  20
ENDBRANCH  13  18
ENDBRANCH   1  12
TORSDOF 4
ENDMDL
MODEL 5
REMARK VINA RESULT:      -1.5      1.629      2.781
REMARK  4 active torsions:
REMARK  status: ('A' for Active; 'I' for Inactive)
REMARK    1  A    between atoms: N_5  and  C_1 
REMARK    2  A    between atoms: C_9  and  C_4 
REMARK    3  A    between atoms: C_8  and  N_5 
REMARK    4  A    between atoms: O_12  and  C_9 
ROOT
ATOM      1  N   UNL d   1      58.703  -2.196  29.446  0.00  0.00    -0.222 NA
ENDROOT
BRANCH   1   2
ATOM      2  C   UNL d   1      58.604  -1.372  29.534  0.00  0.00     0.186 A 
ATOM      3  O   UNL d   1      58.898  -0.788  29.040  0.00  0.00    -0.255 OA
ATOM      4  C   UNL d   1      58.687  -0.055  29.305  0.00  0.00     0.301 A 
ATOM      5  O   UNL d   1      58.886   0.680  28.944  0.00  0.00    -0.259 OA
ATOM      6  C   UNL d   1      58.243  -0.162  29.992  0.00  0.00     0.067 A 
ATOM      7  C   UNL d   1      58.191  -0.977  30.134  0.00  0.00     0.046 A 
ATOM      8  C   UNL d   1      57.878   0.366  30.508  0.00  0.00     0.005 A 
ATOM      9  C   UNL d   1      57.775  -1.256  30.791  0.00  0.00     0.004 A 
ATOM     10  C   UNL d   1      57.412  -0.724  31.305  0.00  0.00     0.000 A 
ATOM     11  C   UNL d   1      57.464   0.091  31.163  0.00  0.00     0.000 A 
ENDBRANCH   1   2
BRANCH   1  12
ATOM     12  C   UNL d   1      59.424  -2.536  29.144  0.00  0.00     0.089 A 
ATOM     13  C   UNL d   1      59.424  -3.227  28.780  0.00  0.00     0.081 A 
ATOM     14  C   UNL d   1      60.126  -3.546  28.493  0.00  0.00     0.007 A 
ATOM     15  C   UNL d   1      60.837  -3.119  28.597  0.00  0.00     0.000 A 
ATOM     16  C   UNL d   1      60.818  -2.393  28.982  0.00  0.00     0.002 A 
ATOM     17  C   UNL d   1      60.115  -2.090  29.261  0.00  0.00     0.019 A 
BRANCH  13  18
ATOM     18  C   UNL d   1      58.700  -3.615  28.699  0.00  0.00     0.297 C 
ATOM     19  O   UNL d   1      58.036  -3.200  28.459  0.00  0.00    -0.259 OA
BRANCH  18  20
ATOM     20  O   UNL d   1      58.653  -4.423  28.862  0.00  0.00    -0.296 OA
ATOM     21  C   UNL d   1      58.001  -4.853  28.570  0.00  0.00     0.185 C 
ENDBRANCH  18  20
ENDBRANCH  13  18
ENDBRANCH   1  12
TORSDOF 4
ENDMDL
