MODEL 1
REMARK VINA RESULT:       0.9      0.000      0.000
REMARK  1 active torsions:
REMARK  status: ('A' for Active; 'I' for Inactive)
REMARK    1  A    between atoms: C_10  and  C_4 
ROOT
ATOM      1  C   UNL d   1     -41.413-121.406 -51.734  0.00  0.00     0.111 A 
ATOM      2  C   UNL d   1     -41.543-122.573 -52.569  0.00  0.00     0.062 A 
ATOM      3  C   UNL d   1     -41.267-120.948 -52.381  0.00  0.00     0.213 A 
ATOM      4  C   UNL d   1     -41.556-122.243 -51.817  0.00  0.00     0.018 A 
ATOM      5  C   UNL d   1     -41.389-122.083 -53.249  0.00  0.00     0.105 A 
ATOM      6  O   UNL d   1     -41.257-121.310 -53.166  0.00  0.00    -0.287 OA
ATOM      7  C   UNL d   1     -41.426-121.077 -50.986  0.00  0.00     0.105 C 
ATOM      8  C   UNL d   1     -41.678-123.378 -52.685  0.00  0.00     0.198 A 
ATOM      9  N   UNL d   1     -41.439-120.742 -50.223  0.00  0.00    -0.191 NA
ATOM     10  N   UNL d   1     -41.123-120.113 -52.314  0.00  0.00    -0.120 N 
ATOM     11  O   UNL d   1     -41.823-123.816 -52.004  0.00  0.00    -0.286 OA
ATOM     12  C   UNL d   1     -41.375-122.419 -54.011  0.00  0.00     0.025 A 
ATOM     13  C   UNL d   1     -41.665-123.706 -53.433  0.00  0.00     0.042 A 
ATOM     14  C   UNL d   1     -41.517-123.248 -54.104  0.00  0.00     0.005 A 
ENDROOT
BRANCH   4  15
ATOM     15  C   UNL d   1     -41.705-122.721 -51.178  0.00  0.00     0.001 A 
ATOM     16  C   UNL d   1     -41.123-123.231 -50.877  0.00  0.00     0.000 A 
ATOM     17  C   UNL d   1     -41.284-123.713 -50.228  0.00  0.00     0.000 A 
ATOM     18  C   UNL d   1     -42.021-123.700 -49.864  0.00  0.00     0.000 A 
ATOM     19  C   UNL d   1     -42.605-123.191 -50.164  0.00  0.00     0.000 A 
ATOM     20  C   UNL d   1     -42.442-122.709 -50.814  0.00  0.00     0.000 A 
ENDBRANCH   4  15
TORSDOF 1
ENDMDL
MODEL 2
REMARK VINA RESULT:       3.0      0.793      1.161
REMARK  1 active torsions:
REMARK  status: ('A' for Active; 'I' for Inactive)
REMARK    1  A    between atoms: C_10  and  C_4 
ROOT
ATOM      1  C   UNL d   1     -41.483-121.414 -52.726  0.00  0.00     0.111 A 
ATOM      2  C   UNL d   1     -41.824-122.597 -53.477  0.00  0.00     0.062 A 
ATOM      3  C   UNL d   1     -41.477-120.976 -53.404  0.00  0.00     0.213 A 
ATOM      4  C   UNL d   1     -41.660-122.248 -52.751  0.00  0.00     0.018 A 
ATOM      5  C   UNL d   1     -41.816-122.128 -54.188  0.00  0.00     0.105 A 
ATOM      6  O   UNL d   1     -41.652-121.356 -54.160  0.00  0.00    -0.287 OA
ATOM      7  C   UNL d   1     -41.320-121.067 -52.005  0.00  0.00     0.105 C 
ATOM      8  C   UNL d   1     -41.999-123.400 -53.536  0.00  0.00     0.198 A 
ATOM      9  N   UNL d   1     -41.154-120.714 -51.269  0.00  0.00    -0.191 NA
ATOM     10  N   UNL d   1     -41.303-120.144 -53.395  0.00  0.00    -0.120 N 
ATOM     11  O   UNL d   1     -41.997-123.817 -52.827  0.00  0.00    -0.286 OA
ATOM     12  C   UNL d   1     -41.982-122.481 -54.924  0.00  0.00     0.025 A 
ATOM     13  C   UNL d   1     -42.162-123.746 -54.257  0.00  0.00     0.042 A 
ATOM     14  C   UNL d   1     -42.159-123.308 -54.957  0.00  0.00     0.005 A 
ENDROOT
BRANCH   4  15
ATOM     15  C   UNL d   1     -41.672-122.707 -52.081  0.00  0.00     0.001 A 
ATOM     16  C   UNL d   1     -42.225-122.574 -51.477  0.00  0.00     0.000 A 
ATOM     17  C   UNL d   1     -42.227-123.046 -50.801  0.00  0.00     0.000 A 
ATOM     18  C   UNL d   1     -41.685-123.657 -50.709  0.00  0.00     0.000 A 
ATOM     19  C   UNL d   1     -41.131-123.792 -51.313  0.00  0.00     0.000 A 
ATOM     20  C   UNL d   1     -41.129-123.319 -51.989  0.00  0.00     0.000 A 
ENDBRANCH   4  15
TORSDOF 1
ENDMDL
