MODEL 1
REMARK VINA RESULT:      64.1      0.000      0.000
REMARK  7 active torsions:
REMARK  status: ('A' for Active; 'I' for Inactive)
REMARK    1  A    between atoms: S_10  and  C_5 
REMARK    2  A    between atoms: C_11  and  N_8 
REMARK    3  A    between atoms: C_15  and  S_10 
REMARK    4  A    between atoms: C_19  and  C_11 
REMARK    5  A    between atoms: C_14  and  C_15 
REMARK    6  A    between atoms: C_17  and  C_14 
REMARK    7  A    between atoms: C_20  and  C_19 
ROOT
ATOM      1  C   UNL d   1     -51.390  26.668  33.378  0.00  0.00     0.174 A 
ATOM      2  C   UNL d   1     -51.129  25.886  33.361  0.00  0.00     0.159 A 
ATOM      3  N   UNL d   1     -50.736  27.159  33.413  0.00  0.00    -0.203 NA
ATOM      4  N   UNL d   1     -52.214  26.836  33.358  0.00  0.00    -0.239 N 
ATOM      5  C   UNL d   1     -50.081  26.644  33.416  0.00  0.00     0.181 A 
ATOM      6  C   UNL d   1     -52.750  26.249  33.324  0.00  0.00     0.358 A 
ATOM      7  N   UNL d   1     -52.478  25.436  33.306  0.00  0.00    -0.152 NA
ATOM      8  N   UNL d   1     -50.319  25.911  33.385  0.00  0.00    -0.279 N 
ATOM      9  C   UNL d   1     -51.686  25.257  33.324  0.00  0.00     0.302 A 
ATOM     10  O   UNL d   1     -53.558  26.440  33.306  0.00  0.00    -0.244 OA
ATOM     11  O   UNL d   1     -51.450  24.466  33.306  0.00  0.00    -0.263 OA
ATOM     12  C   UNL d   1     -52.501  27.610  33.374  0.00  0.00     0.105 C 
ENDROOT
BRANCH   5  13
ATOM     13  S   UNL d   1     -49.282  26.887  33.447  0.00  0.00    -0.046 SA
BRANCH  13  14
ATOM     14  C   UNL d   1     -49.072  27.587  33.824  0.00  0.00     0.080 C 
BRANCH  14  15
ATOM     15  C   UNL d   1     -48.814  27.575  34.614  0.00  0.00     0.202 C 
ATOM     16  O   UNL d   1     -48.978  26.926  35.070  0.00  0.00    -0.286 OA
BRANCH  15  17
ATOM     17  C   UNL d   1     -48.398  28.218  34.920  0.00  0.00     0.040 A 
ATOM     18  C   UNL d   1     -48.696  28.649  35.542  0.00  0.00     0.003 A 
ATOM     19  C   UNL d   1     -48.281  29.291  35.848  0.00  0.00     0.000 A 
ATOM     20  C   UNL d   1     -47.542  29.511  35.522  0.00  0.00     0.000 A 
ATOM     21  C   UNL d   1     -47.254  29.066  34.894  0.00  0.00     0.000 A 
ATOM     22  C   UNL d   1     -47.670  28.427  34.592  0.00  0.00     0.003 A 
ENDBRANCH  15  17
ENDBRANCH  14  15
ENDBRANCH  13  14
ENDBRANCH   5  13
BRANCH   8  23
ATOM     23  C   UNL d   1     -49.799  25.238  33.379  0.00  0.00     0.082 C 
BRANCH  23  24
ATOM     24  C   UNL d   1     -49.990  24.540  33.773  0.00  0.00     0.019 C 
BRANCH  24  25
ATOM     25  C   UNL d   1     -49.583  23.871  33.652  0.00  0.00     0.002 C 
ATOM     26  C   UNL d   1     -49.963  23.214  33.330  0.00  0.00     0.000 C 
ATOM     27  C   UNL d   1     -48.811  23.821  33.834  0.00  0.00     0.000 C 
ENDBRANCH  24  25
ENDBRANCH  23  24
ENDBRANCH   8  23
TORSDOF 7
ENDMDL
MODEL 2
REMARK VINA RESULT:      66.2      3.094      5.858
REMARK  7 active torsions:
REMARK  status: ('A' for Active; 'I' for Inactive)
REMARK    1  A    between atoms: S_10  and  C_5 
REMARK    2  A    between atoms: C_11  and  N_8 
REMARK    3  A    between atoms: C_15  and  S_10 
REMARK    4  A    between atoms: C_19  and  C_11 
REMARK    5  A    between atoms: C_14  and  C_15 
REMARK    6  A    between atoms: C_17  and  C_14 
REMARK    7  A    between atoms: C_20  and  C_19 
ROOT
ATOM      1  C   UNL d   1     -48.287  31.326  34.279  0.00  0.00     0.174 A 
ATOM      2  C   UNL d   1     -47.703  31.240  34.856  0.00  0.00     0.159 A 
ATOM      3  N   UNL d   1     -48.674  30.610  34.193  0.00  0.00    -0.203 NA
ATOM      4  N   UNL d   1     -48.393  32.067  33.897  0.00  0.00    -0.239 N 
ATOM      5  C   UNL d   1     -48.302  30.098  34.735  0.00  0.00     0.181 A 
ATOM      6  C   UNL d   1     -47.936  32.692  34.084  0.00  0.00     0.358 A 
ATOM      7  N   UNL d   1     -47.330  32.602  34.683  0.00  0.00    -0.152 NA
ATOM      8  N   UNL d   1     -47.743  30.472  35.113  0.00  0.00    -0.279 N 
ATOM      9  C   UNL d   1     -47.214  31.893  35.062  0.00  0.00     0.302 A 
ATOM     10  O   UNL d   1     -48.060  33.415  33.692  0.00  0.00    -0.244 OA
ATOM     11  O   UNL d   1     -46.624  31.832  35.635  0.00  0.00    -0.263 OA
ATOM     12  C   UNL d   1     -48.969  32.180  33.317  0.00  0.00     0.105 C 
ENDROOT
BRANCH   5  13
ATOM     13  S   UNL d   1     -48.505  29.296  34.852  0.00  0.00    -0.046 SA
BRANCH  13  14
ATOM     14  C   UNL d   1     -49.040  28.922  34.352  0.00  0.00     0.080 C 
BRANCH  14  15
ATOM     15  C   UNL d   1     -49.037  28.095  34.279  0.00  0.00     0.202 C 
ATOM     16  O   UNL d   1     -48.384  27.682  34.524  0.00  0.00    -0.286 OA
BRANCH  15  17
ATOM     17  C   UNL d   1     -49.693  27.708  33.963  0.00  0.00     0.040 A 
ATOM     18  C   UNL d   1     -49.724  26.896  33.935  0.00  0.00     0.003 A 
ATOM     19  C   UNL d   1     -50.379  26.509  33.618  0.00  0.00     0.000 A 
ATOM     20  C   UNL d   1     -51.026  26.948  33.320  0.00  0.00     0.000 A 
ATOM     21  C   UNL d   1     -50.979  27.768  33.355  0.00  0.00     0.000 A 
ATOM     22  C   UNL d   1     -50.326  28.150  33.671  0.00  0.00     0.003 A 
ENDBRANCH  15  17
ENDBRANCH  14  15
ENDBRANCH  13  14
ENDBRANCH   5  13
BRANCH   8  23
ATOM     23  C   UNL d   1     -47.248  30.119  35.709  0.00  0.00     0.082 C 
BRANCH  23  24
ATOM     24  C   UNL d   1     -47.526  29.969  36.469  0.00  0.00     0.019 C 
BRANCH  24  25
ATOM     25  C   UNL d   1     -47.038  29.745  37.052  0.00  0.00     0.002 C 
ATOM     26  C   UNL d   1     -47.239  29.902  37.836  0.00  0.00     0.000 C 
ATOM     27  C   UNL d   1     -46.356  29.369  36.894  0.00  0.00     0.000 C 
ENDBRANCH  24  25
ENDBRANCH  23  24
ENDBRANCH   8  23
TORSDOF 7
ENDMDL
