MODEL 1
REMARK VINA RESULT:      19.4      0.000      0.000
REMARK  3 active torsions:
REMARK  status: ('A' for Active; 'I' for Inactive)
REMARK       I    between atoms: C_2  and  N_1 
REMARK    1  A    between atoms: C_3  and  C_2 
REMARK    2  A    between atoms: S_5  and  C_3 
REMARK    3  A    between atoms: C_7  and  S_5 
ROOT
ATOM      1  C   UNL d   1      13.049  12.473  -3.188  0.00  0.00     0.125 C 
ENDROOT
BRANCH   1   2
ATOM      2  C   UNL d   1      13.038  12.604  -4.003  0.00  0.00     0.259 C 
ATOM      3  N   UNL d   1      12.985  13.379  -4.300  0.00  0.00    -0.268 N 
ATOM      4  C   UNL d   1      12.945  14.012  -3.771  0.00  0.00     0.110 A 
ATOM      5  C   UNL d   1      12.974  13.520  -5.112  0.00  0.00     0.110 A 
ATOM      6  C   UNL d   1      12.893  14.784  -4.056  0.00  0.00     0.142 A 
ATOM      7  O   UNL d   1      12.881  14.925  -4.868  0.00  0.00    -0.300 OA
ATOM      8  C   UNL d   1      12.921  14.293  -5.397  0.00  0.00     0.142 A 
ATOM      9  O   UNL d   1      13.078  11.967  -4.532  0.00  0.00    -0.267 OA
ENDBRANCH   1   2
BRANCH   1  10
ATOM     10  S   UNL d   1      13.373  11.779  -2.901  0.00  0.00    -0.095 SA
BRANCH  10  11
ATOM     11  C   UNL d   1      13.769  11.780  -2.177  0.00  0.00     0.029 A 
ATOM     12  C   UNL d   1      13.341  11.779  -1.473  0.00  0.00     0.007 A 
ATOM     13  C   UNL d   1      13.738  11.781  -0.749  0.00  0.00     0.012 A 
ATOM     14  C   UNL d   1      14.562  11.783  -0.731  0.00  0.00     0.058 A 
ATOM     15  C   UNL d   1      14.991  11.784  -1.436  0.00  0.00     0.012 A 
ATOM     16 CL   UNL d   1      14.971  11.784  -0.014  0.00  0.00    -0.082 Cl
ATOM     17  C   UNL d   1      14.594  11.783  -2.159  0.00  0.00     0.007 A 
ENDBRANCH  10  11
ENDBRANCH   1  10
TORSDOF 3
ENDMDL
