MODEL 1
REMARK VINA RESULT:      -4.1      0.000      0.000
REMARK  6 active torsions:
REMARK  status: ('A' for Active; 'I' for Inactive)
REMARK    1  A    between atoms: C_13  and  C_4 
REMARK    2  A    between atoms: C_20  and  C_7 
REMARK    3  A    between atoms: C_8  and  C_12 
REMARK       I    between atoms: N_9  and  C_8 
REMARK    4  A    between atoms: C_11  and  N_9 
REMARK       I    between atoms: C_12  and  N_19 
REMARK    5  A    between atoms: N_19  and  C_23 
REMARK    6  A    between atoms: C_23  and  C_20 
ROOT
ATOM      1  C   UNL d   1      32.699  18.031 -23.427  0.00  0.00     0.041 C 
ENDROOT
BRANCH   1   2
ATOM      2  C   UNL d   1      32.627  17.211 -23.370  0.00  0.00     0.093 A 
ATOM      3  N   UNL d   1      31.934  16.776 -23.448  0.00  0.00    -0.205 N 
ATOM      4  C   UNL d   1      32.111  15.974 -23.351  0.00  0.00     0.197 A 
ATOM      5  N   UNL d   1      31.115  16.838 -23.588  0.00  0.00    -0.144 NA
ATOM      6  N   UNL d   1      31.409  15.545 -23.430  0.00  0.00    -0.200 NA
ATOM      7  S   UNL d   1      32.922  15.913 -23.212  0.00  0.00    -0.046 SA
ATOM      8  C   UNL d   1      30.796  16.074 -23.576  0.00  0.00     0.184 A 
ATOM      9  C   UNL d   1      33.240  16.677 -23.224  0.00  0.00     0.058 A 
BRANCH   8  10
ATOM     10  C   UNL d   1      30.004  15.877 -23.690  0.00  0.00     0.038 A 
ATOM     11  C   UNL d   1      29.720  15.740 -24.449  0.00  0.00     0.003 A 
ATOM     12  C   UNL d   1      30.226  15.801 -25.092  0.00  0.00     0.000 C 
ATOM     13  C   UNL d   1      28.924  15.541 -24.563  0.00  0.00     0.000 A 
ATOM     14  C   UNL d   1      28.420  15.482 -23.906  0.00  0.00     0.000 A 
ATOM     15  C   UNL d   1      28.704  15.619 -23.148  0.00  0.00     0.000 A 
ATOM     16  C   UNL d   1      29.501  15.818 -23.035  0.00  0.00     0.003 A 
ENDBRANCH   8  10
ENDBRANCH   1   2
BRANCH   1  17
ATOM     17  C   UNL d   1      33.166  18.443 -22.888  0.00  0.00     0.104 C 
BRANCH  17  18
ATOM     18  N   UNL d   1      33.110  19.255 -22.835  0.00  0.00    -0.202 NA
ATOM     19  C   UNL d   1      33.140  19.624 -22.100  0.00  0.00     0.337 C 
ATOM     20  O   UNL d   1      33.227  19.171 -21.417  0.00  0.00    -0.260 OA
BRANCH  19  21
ATOM     21  C   UNL d   1      33.083  20.437 -22.046  0.00  0.00     0.337 C 
ATOM     22  N   UNL d   1      32.941  20.807 -21.317  0.00  0.00    -0.204 NA
ATOM     23  O   UNL d   1      33.168  20.911 -22.733  0.00  0.00    -0.260 OA
BRANCH  22  24
ATOM     24  C   UNL d   1      32.884  21.628 -21.263  0.00  0.00     0.085 A 
ATOM     25  C   UNL d   1      32.982  22.000 -20.523  0.00  0.00     0.018 A 
ATOM     26  C   UNL d   1      32.930  22.808 -20.446  0.00  0.00     0.002 A 
ATOM     27  C   UNL d   1      33.136  21.548 -19.854  0.00  0.00     0.002 C 
ATOM     28  C   UNL d   1      32.774  23.281 -21.122  0.00  0.00     0.000 A 
ATOM     29  C   UNL d   1      32.675  22.905 -21.870  0.00  0.00     0.002 A 
ATOM     30  C   UNL d   1      32.732  22.075 -21.928  0.00  0.00     0.019 A 
ATOM     31  C   UNL d   1      32.522  23.355 -22.535  0.00  0.00     0.000 C 
ENDBRANCH  22  24
ENDBRANCH  19  21
ENDBRANCH  17  18
ENDBRANCH   1  17
TORSDOF 6
ENDMDL
MODEL 2
REMARK VINA RESULT:      -1.2      1.841      6.570
REMARK  6 active torsions:
REMARK  status: ('A' for Active; 'I' for Inactive)
REMARK    1  A    between atoms: C_13  and  C_4 
REMARK    2  A    between atoms: C_20  and  C_7 
REMARK    3  A    between atoms: C_8  and  C_12 
REMARK       I    between atoms: N_9  and  C_8 
REMARK    4  A    between atoms: C_11  and  N_9 
REMARK       I    between atoms: C_12  and  N_19 
REMARK    5  A    between atoms: N_19  and  C_23 
REMARK    6  A    between atoms: C_23  and  C_20 
ROOT
ATOM      1  C   UNL d   1      33.239  20.187 -22.674  0.00  0.00     0.041 C 
ENDROOT
BRANCH   1   2
ATOM      2  C   UNL d   1      33.185  21.007 -22.745  0.00  0.00     0.093 A 
ATOM      3  N   UNL d   1      33.075  21.544 -22.132  0.00  0.00    -0.205 N 
ATOM      4  C   UNL d   1      33.054  22.307 -22.448  0.00  0.00     0.197 A 
ATOM      5  N   UNL d   1      32.977  21.609 -21.308  0.00  0.00    -0.144 NA
ATOM      6  N   UNL d   1      32.943  22.840 -21.826  0.00  0.00    -0.200 NA
ATOM      7  S   UNL d   1      33.152  22.242 -23.265  0.00  0.00    -0.046 SA
ATOM      8  C   UNL d   1      32.895  22.412 -21.124  0.00  0.00     0.184 A 
ATOM      9  C   UNL d   1      33.233  21.439 -23.448  0.00  0.00     0.058 A 
BRANCH   8  10
ATOM     10  C   UNL d   1      32.786  22.731 -20.371  0.00  0.00     0.038 A 
ATOM     11  C   UNL d   1      32.230  22.402 -19.864  0.00  0.00     0.003 A 
ATOM     12  C   UNL d   1      31.784  21.757 -20.107  0.00  0.00     0.000 C 
ATOM     13  C   UNL d   1      32.120  22.722 -19.107  0.00  0.00     0.000 A 
ATOM     14  C   UNL d   1      32.575  23.374 -18.871  0.00  0.00     0.000 A 
ATOM     15  C   UNL d   1      33.131  23.702 -19.378  0.00  0.00     0.000 A 
ATOM     16  C   UNL d   1      33.240  23.381 -20.135  0.00  0.00     0.003 A 
ENDBRANCH   8  10
ENDBRANCH   1   2
BRANCH   1  17
ATOM     17  C   UNL d   1      33.241  19.713 -23.348  0.00  0.00     0.104 C 
BRANCH  17  18
ATOM     18  N   UNL d   1      32.725  19.084 -23.407  0.00  0.00    -0.202 NA
ATOM     19  C   UNL d   1      32.607  18.713 -24.132  0.00  0.00     0.337 C 
ATOM     20  O   UNL d   1      33.013  18.979 -24.799  0.00  0.00    -0.260 OA
BRANCH  19  21
ATOM     21  C   UNL d   1      32.090  18.083 -24.192  0.00  0.00     0.337 C 
ATOM     22  N   UNL d   1      31.271  18.197 -24.115  0.00  0.00    -0.204 NA
ATOM     23  O   UNL d   1      32.383  17.310 -24.331  0.00  0.00    -0.260 OA
BRANCH  22  24
ATOM     24  C   UNL d   1      30.749  17.561 -24.175  0.00  0.00     0.085 A 
ATOM     25  C   UNL d   1      30.068  17.630 -24.652  0.00  0.00     0.018 A 
ATOM     26  C   UNL d   1      29.539  17.017 -24.726  0.00  0.00     0.002 A 
ATOM     27  C   UNL d   1      29.922  18.330 -25.057  0.00  0.00     0.002 C 
ATOM     28  C   UNL d   1      29.678  16.297 -24.316  0.00  0.00     0.000 A 
ATOM     29  C   UNL d   1      30.367  16.227 -23.835  0.00  0.00     0.002 A 
ATOM     30  C   UNL d   1      30.897  16.867 -23.772  0.00  0.00     0.019 A 
ATOM     31  C   UNL d   1      30.511  15.530 -23.432  0.00  0.00     0.000 C 
ENDBRANCH  22  24
ENDBRANCH  19  21
ENDBRANCH  17  18
ENDBRANCH   1  17
TORSDOF 6
ENDMDL
