MODEL 1
REMARK VINA RESULT:      -8.7      0.000      0.000
REMARK  4 active torsions:
REMARK  status: ('A' for Active; 'I' for Inactive)
REMARK    1  A    between atoms: N_5  and  S_1 
REMARK    2  A    between atoms: C_8  and  S_1 
REMARK    3  A    between atoms: C_18  and  N_2 
REMARK    4  A    between atoms: C_10  and  N_5 
ROOT
ATOM      1  N   UNL d   1     -45.456  12.665  22.745  0.00  0.00    -0.273 N 
ATOM      2  C   UNL d   1     -45.577  11.933  23.106  0.00  0.00     0.265 A 
ATOM      3  C   UNL d   1     -46.188  13.063  22.670  0.00  0.00     0.067 A 
ATOM      4  C   UNL d   1     -46.767  12.558  22.995  0.00  0.00     0.021 A 
ATOM      5  C   UNL d   1     -46.402  11.872  23.260  0.00  0.00     0.058 A 
ATOM      6  C   UNL d   1     -47.930  13.338  22.807  0.00  0.00     0.105 A 
ATOM      7  C   UNL d   1     -47.559  12.651  23.071  0.00  0.00     0.014 A 
ATOM      8  C   UNL d   1     -46.389  13.787  22.362  0.00  0.00     0.018 A 
ATOM      9  C   UNL d   1     -47.510  13.919  22.471  0.00  0.00     0.014 A 
ATOM     10  O   UNL d   1     -44.968  11.371  23.276  0.00  0.00    -0.267 OA
ATOM     11  C   UNL d   1     -46.828  11.279  23.602  0.00  0.00     0.005 A 
ATOM     12  C   UNL d   1     -48.020  12.048  23.423  0.00  0.00     0.001 A 
ATOM     13  C   UNL d   1     -47.684  11.352  23.698  0.00  0.00     0.000 A 
ENDROOT
BRANCH   6  14
ATOM     14  S   UNL d   1     -48.742  13.420  22.892  0.00  0.00     0.287 S 
ATOM     15  O   UNL d   1     -48.657  13.578  23.693  0.00  0.00    -0.198 OA
ATOM     16  O   UNL d   1     -48.870  13.260  22.067  0.00  0.00    -0.198 OA
BRANCH  14  17
ATOM     17  N   UNL d   1     -49.569  13.503  22.979  0.00  0.00    -0.139 NA
BRANCH  17  18
ATOM     18  C   UNL d   1     -49.932  14.228  23.078  0.00  0.00     0.174 A 
ATOM     19  N   UNL d   1     -49.457  14.843  23.380  0.00  0.00    -0.225 NA
ATOM     20  C   UNL d   1     -49.780  15.590  23.496  0.00  0.00     0.101 A 
ATOM     21  C   UNL d   1     -50.583  15.722  23.310  0.00  0.00     0.021 A 
ATOM     22  C   UNL d   1     -51.064  15.108  23.008  0.00  0.00     0.005 A 
ATOM     23  C   UNL d   1     -50.736  14.361  22.892  0.00  0.00     0.037 A 
ATOM     24  C   UNL d   1     -50.884  13.417  22.591  0.00  0.00     0.003 C 
ENDBRANCH  17  18
ENDBRANCH  14  17
ENDBRANCH   6  14
BRANCH   1  25
ATOM     25  C   UNL d   1     -44.725  12.948  22.501  0.00  0.00     0.083 C 
ATOM     26  C   UNL d   1     -44.427  12.695  21.780  0.00  0.00     0.021 C 
ENDBRANCH   1  25
TORSDOF 4
ENDMDL
MODEL 2
REMARK VINA RESULT:      -8.4      1.258      4.767
REMARK  4 active torsions:
REMARK  status: ('A' for Active; 'I' for Inactive)
REMARK    1  A    between atoms: N_5  and  S_1 
REMARK    2  A    between atoms: C_8  and  S_1 
REMARK    3  A    between atoms: C_18  and  N_2 
REMARK    4  A    between atoms: C_10  and  N_5 
ROOT
ATOM      1  N   UNL d   1     -49.625  13.199  23.243  0.00  0.00    -0.273 N 
ATOM      2  C   UNL d   1     -49.527  13.999  23.067  0.00  0.00     0.265 A 
ATOM      3  C   UNL d   1     -48.882  12.815  23.220  0.00  0.00     0.067 A 
ATOM      4  C   UNL d   1     -48.319  13.399  23.023  0.00  0.00     0.021 A 
ATOM      5  C   UNL d   1     -48.706  14.118  22.930  0.00  0.00     0.058 A 
ATOM      6  C   UNL d   1     -47.135  12.629  23.017  0.00  0.00     0.105 A 
ATOM      7  C   UNL d   1     -47.526  13.349  22.924  0.00  0.00     0.014 A 
ATOM      8  C   UNL d   1     -48.660  12.044  23.346  0.00  0.00     0.018 A 
ATOM      9  C   UNL d   1     -47.536  11.974  23.206  0.00  0.00     0.014 A 
ATOM     10  O   UNL d   1     -50.152  14.568  23.036  0.00  0.00    -0.267 OA
ATOM     11  C   UNL d   1     -48.298  14.787  22.737  0.00  0.00     0.005 A 
ATOM     12  C   UNL d   1     -47.085  14.030  22.725  0.00  0.00     0.001 A 
ATOM     13  C   UNL d   1     -47.441  14.763  22.624  0.00  0.00     0.000 A 
ENDROOT
BRANCH   6  14
ATOM     14  S   UNL d   1     -46.322  12.593  22.913  0.00  0.00     0.287 S 
ATOM     15  O   UNL d   1     -46.197  12.801  23.698  0.00  0.00    -0.198 OA
ATOM     16  O   UNL d   1     -46.411  12.376  22.096  0.00  0.00    -0.198 OA
BRANCH  14  17
ATOM     17  N   UNL d   1     -45.494  12.555  22.807  0.00  0.00    -0.139 NA
BRANCH  17  18
ATOM     18  C   UNL d   1     -45.054  11.892  22.991  0.00  0.00     0.174 A 
ATOM     19  N   UNL d   1     -45.420  11.329  23.484  0.00  0.00    -0.225 NA
ATOM     20  C   UNL d   1     -45.016  10.646  23.695  0.00  0.00     0.101 A 
ATOM     21  C   UNL d   1     -44.240  10.525  23.411  0.00  0.00     0.021 A 
ATOM     22  C   UNL d   1     -43.868  11.087  22.916  0.00  0.00     0.005 A 
ATOM     23  C   UNL d   1     -44.277  11.771  22.706  0.00  0.00     0.037 A 
ATOM     24  C   UNL d   1     -44.264  12.635  22.200  0.00  0.00     0.003 C 
ENDBRANCH  17  18
ENDBRANCH  14  17
ENDBRANCH   6  14
BRANCH   1  25
ATOM     25  C   UNL d   1     -50.347  12.846  23.414  0.00  0.00     0.083 C 
ATOM     26  C   UNL d   1     -50.881  12.730  22.803  0.00  0.00     0.021 C 
ENDBRANCH   1  25
TORSDOF 4
ENDMDL
MODEL 3
REMARK VINA RESULT:      -8.2      1.174      4.466
REMARK  4 active torsions:
REMARK  status: ('A' for Active; 'I' for Inactive)
REMARK    1  A    between atoms: N_5  and  S_1 
REMARK    2  A    between atoms: C_8  and  S_1 
REMARK    3  A    between atoms: C_18  and  N_2 
REMARK    4  A    between atoms: C_10  and  N_5 
ROOT
ATOM      1  N   UNL d   1     -49.375  14.374  23.015  0.00  0.00    -0.273 N 
ATOM      2  C   UNL d   1     -49.777  13.709  23.292  0.00  0.00     0.265 A 
ATOM      3  C   UNL d   1     -48.564  14.190  22.919  0.00  0.00     0.067 A 
ATOM      4  C   UNL d   1     -48.474  13.391  23.144  0.00  0.00     0.021 A 
ATOM      5  C   UNL d   1     -49.207  13.096  23.371  0.00  0.00     0.058 A 
ATOM      6  C   UNL d   1     -47.088  13.216  22.938  0.00  0.00     0.105 A 
ATOM      7  C   UNL d   1     -47.824  12.923  23.165  0.00  0.00     0.014 A 
ATOM      8  C   UNL d   1     -47.929  14.628  22.667  0.00  0.00     0.018 A 
ATOM      9  C   UNL d   1     -47.009  13.965  22.696  0.00  0.00     0.014 A 
ATOM     10  O   UNL d   1     -50.607  13.678  23.456  0.00  0.00    -0.267 OA
ATOM     11  C   UNL d   1     -49.289  12.333  23.618  0.00  0.00     0.005 A 
ATOM     12  C   UNL d   1     -47.888  12.129  23.417  0.00  0.00     0.001 A 
ATOM     13  C   UNL d   1     -48.605  11.804  23.650  0.00  0.00     0.000 A 
ENDROOT
BRANCH   6  14
ATOM     14  S   UNL d   1     -46.431  12.725  22.964  0.00  0.00     0.287 S 
ATOM     15  O   UNL d   1     -46.650  12.369  22.258  0.00  0.00    -0.198 OA
ATOM     16  O   UNL d   1     -46.171  13.070  23.697  0.00  0.00    -0.198 OA
BRANCH  14  17
ATOM     17  N   UNL d   1     -45.761  12.225  22.990  0.00  0.00    -0.139 NA
BRANCH  17  18
ATOM     18  C   UNL d   1     -45.077  12.381  22.572  0.00  0.00     0.174 A 
ATOM     19  N   UNL d   1     -45.073  13.076  22.111  0.00  0.00    -0.225 NA
ATOM     20  C   UNL d   1     -44.406  13.272  21.674  0.00  0.00     0.101 A 
ATOM     21  C   UNL d   1     -43.739  12.771  21.697  0.00  0.00     0.021 A 
ATOM     22  C   UNL d   1     -43.738  12.073  22.158  0.00  0.00     0.005 A 
ATOM     23  C   UNL d   1     -44.409  11.879  22.595  0.00  0.00     0.037 A 
ATOM     24  C   UNL d   1     -44.842  11.231  23.224  0.00  0.00     0.003 C 
ENDBRANCH  17  18
ENDBRANCH  14  17
ENDBRANCH   6  14
BRANCH   1  25
ATOM     25  C   UNL d   1     -49.727  15.099  22.861  0.00  0.00     0.083 C 
ATOM     26  C   UNL d   1     -49.962  15.564  23.494  0.00  0.00     0.021 C 
ENDBRANCH   1  25
TORSDOF 4
ENDMDL
MODEL 4
REMARK VINA RESULT:      -6.5      8.677      9.805
REMARK  4 active torsions:
REMARK  status: ('A' for Active; 'I' for Inactive)
REMARK    1  A    between atoms: N_5  and  S_1 
REMARK    2  A    between atoms: C_8  and  S_1 
REMARK    3  A    between atoms: C_18  and  N_2 
REMARK    4  A    between atoms: C_10  and  N_5 
ROOT
ATOM      1  N   UNL d   1     -39.693  14.422  17.339  0.00  0.00    -0.273 N 
ATOM      2  C   UNL d   1     -40.298  14.983  17.323  0.00  0.00     0.265 A 
ATOM      3  C   UNL d   1     -39.433  14.313  18.126  0.00  0.00     0.067 A 
ATOM      4  C   UNL d   1     -39.895  14.822  18.601  0.00  0.00     0.021 A 
ATOM      5  C   UNL d   1     -40.420  15.230  18.118  0.00  0.00     0.058 A 
ATOM      6  C   UNL d   1     -39.364  14.543  19.879  0.00  0.00     0.105 A 
ATOM      7  C   UNL d   1     -39.889  14.949  19.392  0.00  0.00     0.014 A 
ATOM      8  C   UNL d   1     -38.863  13.838  18.455  0.00  0.00     0.018 A 
ATOM      9  C   UNL d   1     -38.855  14.018  19.575  0.00  0.00     0.014 A 
ATOM     10  O   UNL d   1     -40.701  15.240  16.625  0.00  0.00    -0.267 OA
ATOM     11  C   UNL d   1     -40.939  15.764  18.426  0.00  0.00     0.005 A 
ATOM     12  C   UNL d   1     -40.419  15.499  19.731  0.00  0.00     0.001 A 
ATOM     13  C   UNL d   1     -40.956  15.922  19.276  0.00  0.00     0.000 A 
ENDROOT
BRANCH   6  14
ATOM     14  S   UNL d   1     -39.369  14.683  20.687  0.00  0.00     0.287 S 
ATOM     15  O   UNL d   1     -40.006  14.174  20.787  0.00  0.00    -0.198 OA
ATOM     16  O   UNL d   1     -38.710  15.216  20.624  0.00  0.00    -0.198 OA
BRANCH  14  17
ATOM     17  N   UNL d   1     -39.374  14.826  21.511  0.00  0.00    -0.139 NA
BRANCH  17  18
ATOM     18  C   UNL d   1     -38.983  14.347  22.045  0.00  0.00     0.174 A 
ATOM     19  N   UNL d   1     -38.808  13.573  21.791  0.00  0.00    -0.225 NA
ATOM     20  C   UNL d   1     -38.416  13.056  22.295  0.00  0.00     0.101 A 
ATOM     21  C   UNL d   1     -38.197  13.315  23.058  0.00  0.00     0.021 A 
ATOM     22  C   UNL d   1     -38.370  14.091  23.318  0.00  0.00     0.005 A 
ATOM     23  C   UNL d   1     -38.763  14.607  22.809  0.00  0.00     0.037 A 
ATOM     24  C   UNL d   1     -39.148  15.522  22.674  0.00  0.00     0.003 C 
ENDBRANCH  17  18
ENDBRANCH  14  17
ENDBRANCH   6  14
BRANCH   1  25
ATOM     25  C   UNL d   1     -39.399  14.037  16.675  0.00  0.00     0.083 C 
ATOM     26  C   UNL d   1     -38.831  14.417  16.221  0.00  0.00     0.021 C 
ENDBRANCH   1  25
TORSDOF 4
ENDMDL
MODEL 5
REMARK VINA RESULT:      -6.3      8.845     10.164
REMARK  4 active torsions:
REMARK  status: ('A' for Active; 'I' for Inactive)
REMARK    1  A    between atoms: N_5  and  S_1 
REMARK    2  A    between atoms: C_8  and  S_1 
REMARK    3  A    between atoms: C_18  and  N_2 
REMARK    4  A    between atoms: C_10  and  N_5 
ROOT
ATOM      1  N   UNL d   1     -38.734  14.271  21.992  0.00  0.00    -0.273 N 
ATOM      2  C   UNL d   1     -39.271  14.881  22.140  0.00  0.00     0.265 A 
ATOM      3  C   UNL d   1     -38.699  14.124  21.169  0.00  0.00     0.067 A 
ATOM      4  C   UNL d   1     -39.228  14.659  20.809  0.00  0.00     0.021 A 
ATOM      5  C   UNL d   1     -39.577  15.120  21.394  0.00  0.00     0.058 A 
ATOM      6  C   UNL d   1     -39.071  14.309  19.450  0.00  0.00     0.105 A 
ATOM      7  C   UNL d   1     -39.419  14.768  20.039  0.00  0.00     0.014 A 
ATOM      8  C   UNL d   1     -38.271  13.595  20.725  0.00  0.00     0.018 A 
ATOM      9  C   UNL d   1     -38.542  13.750  19.635  0.00  0.00     0.014 A 
ATOM     10  O   UNL d   1     -39.457  15.186  22.906  0.00  0.00    -0.267 OA
ATOM     11  C   UNL d   1     -40.117  15.689  21.208  0.00  0.00     0.005 A 
ATOM     12  C   UNL d   1     -39.976  15.354  19.824  0.00  0.00     0.001 A 
ATOM     13  C   UNL d   1     -40.342  15.829  20.384  0.00  0.00     0.000 A 
ENDROOT
BRANCH   6  14
ATOM     14  S   UNL d   1     -39.276  14.432  18.665  0.00  0.00     0.287 S 
ATOM     15  O   UNL d   1     -38.698  15.009  18.589  0.00  0.00    -0.198 OA
ATOM     16  O   UNL d   1     -39.885  13.839  18.706  0.00  0.00    -0.198 OA
BRANCH  14  17
ATOM     17  N   UNL d   1     -39.485  14.557  17.866  0.00  0.00    -0.139 NA
BRANCH  17  18
ATOM     18  C   UNL d   1     -39.051  14.255  17.243  0.00  0.00     0.174 A 
ATOM     19  N   UNL d   1     -38.552  13.610  17.416  0.00  0.00    -0.225 NA
ATOM     20  C   UNL d   1     -38.097  13.274  16.821  0.00  0.00     0.101 A 
ATOM     21  C   UNL d   1     -38.140  13.585  16.047  0.00  0.00     0.021 A 
ATOM     22  C   UNL d   1     -38.639  14.232  15.868  0.00  0.00     0.005 A 
ATOM     23  C   UNL d   1     -39.095  14.566  16.468  0.00  0.00     0.037 A 
ATOM     24  C   UNL d   1     -39.764  15.267  16.723  0.00  0.00     0.003 C 
ENDBRANCH  17  18
ENDBRANCH  14  17
ENDBRANCH   6  14
BRANCH   1  25
ATOM     25  C   UNL d   1     -38.308  13.877  22.573  0.00  0.00     0.083 C 
ATOM     26  C   UNL d   1     -38.697  13.331  23.044  0.00  0.00     0.021 C 
ENDBRANCH   1  25
TORSDOF 4
ENDMDL
MODEL 6
REMARK VINA RESULT:      -5.7      9.108     10.612
REMARK  4 active torsions:
REMARK  status: ('A' for Active; 'I' for Inactive)
REMARK    1  A    between atoms: N_5  and  S_1 
REMARK    2  A    between atoms: C_8  and  S_1 
REMARK    3  A    between atoms: C_18  and  N_2 
REMARK    4  A    between atoms: C_10  and  N_5 
ROOT
ATOM      1  N   UNL d   1     -38.121  15.231  16.301  0.00  0.00    -0.273 N 
ATOM      2  C   UNL d   1     -38.155  14.440  16.068  0.00  0.00     0.265 A 
ATOM      3  C   UNL d   1     -38.288  15.288  17.118  0.00  0.00     0.067 A 
ATOM      4  C   UNL d   1     -38.427  14.510  17.387  0.00  0.00     0.021 A 
ATOM      5  C   UNL d   1     -38.348  13.993  16.754  0.00  0.00     0.058 A 
ATOM      6  C   UNL d   1     -38.691  14.749  18.755  0.00  0.00     0.105 A 
ATOM      7  C   UNL d   1     -38.611  14.234  18.116  0.00  0.00     0.014 A 
ATOM      8  C   UNL d   1     -38.328  15.921  17.627  0.00  0.00     0.018 A 
ATOM      9  C   UNL d   1     -38.588  15.528  18.658  0.00  0.00     0.014 A 
ATOM     10  O   UNL d   1     -38.018  14.161  15.281  0.00  0.00    -0.267 OA
ATOM     11  C   UNL d   1     -38.452  13.200  16.849  0.00  0.00     0.005 A 
ATOM     12  C   UNL d   1     -38.723  13.414  18.237  0.00  0.00     0.001 A 
ATOM     13  C   UNL d   1     -38.651  12.872  17.625  0.00  0.00     0.000 A 
ENDROOT
BRANCH   6  14
ATOM     14  S   UNL d   1     -38.880  14.452  19.495  0.00  0.00     0.287 S 
ATOM     15  O   UNL d   1     -38.085  14.414  19.699  0.00  0.00    -0.198 OA
ATOM     16  O   UNL d   1     -39.712  14.476  19.321  0.00  0.00    -0.198 OA
BRANCH  14  17
ATOM     17  N   UNL d   1     -39.072  14.149  20.250  0.00  0.00    -0.139 NA
BRANCH  17  18
ATOM     18  C   UNL d   1     -39.211  14.628  20.897  0.00  0.00     0.174 A 
ATOM     19  N   UNL d   1     -39.529  15.382  20.738  0.00  0.00    -0.225 NA
ATOM     20  C   UNL d   1     -39.685  15.899  21.358  0.00  0.00     0.101 A 
ATOM     21  C   UNL d   1     -39.522  15.660  22.141  0.00  0.00     0.021 A 
ATOM     22  C   UNL d   1     -39.203  14.904  22.305  0.00  0.00     0.005 A 
ATOM     23  C   UNL d   1     -39.048  14.389  21.681  0.00  0.00     0.037 A 
ATOM     24  C   UNL d   1     -38.708  13.489  21.400  0.00  0.00     0.003 C 
ENDBRANCH  17  18
ENDBRANCH  14  17
ENDBRANCH   6  14
BRANCH   1  25
ATOM     25  C   UNL d   1     -37.948  15.856  15.798  0.00  0.00     0.083 C 
ATOM     26  C   UNL d   1     -38.365  15.922  15.095  0.00  0.00     0.021 C 
ENDBRANCH   1  25
TORSDOF 4
ENDMDL
