MODEL 1
REMARK VINA RESULT:       9.4      0.000      0.000
REMARK  2 active torsions:
REMARK  status: ('A' for Active; 'I' for Inactive)
REMARK    1  A    between atoms: C_6  and  C_1 
REMARK    2  A    between atoms: O_15  and  C_12 
ROOT
ATOM      1  C   UNL d   1      46.575 -19.049  41.376  0.00  0.00     0.128 A 
ATOM      2  C   UNL d   1      46.592 -19.896  41.370  0.00  0.00     0.306 A 
ATOM      3  C   UNL d   1      46.522 -18.659  42.092  0.00  0.00     0.013 A 
ATOM      4  O   UNL d   1      46.556 -20.290  42.082  0.00  0.00    -0.273 OA
ATOM      5  C   UNL d   1      46.487 -19.059  42.784  0.00  0.00     0.025 A 
ATOM      6  C   UNL d   1      46.504 -19.906  42.779  0.00  0.00     0.103 A 
ATOM      7  O   UNL d   1      46.647 -20.304  40.641  0.00  0.00    -0.259 OA
ATOM      8  C   UNL d   1      46.433 -18.670  43.507  0.00  0.00     0.026 A 
ATOM      9  C   UNL d   1      46.467 -20.301  43.497  0.00  0.00     0.027 A 
ATOM     10  C   UNL d   1      46.396 -19.070  44.230  0.00  0.00     0.094 A 
ATOM     11  C   UNL d   1      46.413 -19.917  44.225  0.00  0.00     0.026 A 
ENDROOT
BRANCH   1  12
ATOM     12  C   UNL d   1      46.612 -18.624  40.652  0.00  0.00     0.216 C 
ATOM     13  O   UNL d   1      46.626 -19.030  39.937  0.00  0.00    -0.644 OA
ATOM     14  O   UNL d   1      46.635 -17.790  40.661  0.00  0.00    -0.644 OA
ENDBRANCH   1  12
BRANCH  10  15
ATOM     15  O   UNL d   1      46.342 -18.656  44.946  0.00  0.00    -0.328 OA
ATOM     16  C   UNL d   1      46.103 -17.869  44.955  0.00  0.00     0.181 C 
ENDBRANCH  10  15
TORSDOF 2
ENDMDL
MODEL 2
REMARK VINA RESULT:       9.7      7.193      7.545
REMARK  2 active torsions:
REMARK  status: ('A' for Active; 'I' for Inactive)
REMARK    1  A    between atoms: C_6  and  C_1 
REMARK    2  A    between atoms: O_15  and  C_12 
ROOT
ATOM      1  C   UNL d   1      43.401 -15.475  36.842  0.00  0.00     0.128 A 
ATOM      2  C   UNL d   1      43.663 -16.207  36.506  0.00  0.00     0.306 A 
ATOM      3  C   UNL d   1      43.954 -14.897  37.010  0.00  0.00     0.013 A 
ATOM      4  O   UNL d   1      44.458 -16.308  36.364  0.00  0.00    -0.273 OA
ATOM      5  C   UNL d   1      44.733 -15.010  36.865  0.00  0.00     0.025 A 
ATOM      6  C   UNL d   1      44.995 -15.742  36.529  0.00  0.00     0.103 A 
ATOM      7  O   UNL d   1      43.103 -16.805  36.330  0.00  0.00    -0.259 OA
ATOM      8  C   UNL d   1      45.293 -14.430  37.033  0.00  0.00     0.026 A 
ATOM      9  C   UNL d   1      45.796 -15.840  36.387  0.00  0.00     0.027 A 
ATOM     10  C   UNL d   1      46.101 -14.532  36.889  0.00  0.00     0.094 A 
ATOM     11  C   UNL d   1      46.362 -15.264  36.553  0.00  0.00     0.026 A 
ENDROOT
BRANCH   1  12
ATOM     12  C   UNL d   1      42.584 -15.351  36.996  0.00  0.00     0.216 C 
ATOM     13  O   UNL d   1      42.333 -15.164  37.756  0.00  0.00    -0.644 OA
ATOM     14  O   UNL d   1      42.030 -15.420  36.376  0.00  0.00    -0.644 OA
ENDBRANCH   1  12
BRANCH  10  15
ATOM     15  O   UNL d   1      46.646 -13.933  37.067  0.00  0.00    -0.328 OA
ATOM     16  C   UNL d   1      46.618 -13.547  37.792  0.00  0.00     0.181 C 
ENDBRANCH  10  15
TORSDOF 2
ENDMDL
MODEL 3
REMARK VINA RESULT:      12.0      4.585      5.896
REMARK  2 active torsions:
REMARK  status: ('A' for Active; 'I' for Inactive)
REMARK    1  A    between atoms: C_6  and  C_1 
REMARK    2  A    between atoms: O_15  and  C_12 
ROOT
ATOM      1  C   UNL d   1      44.950 -13.054  43.181  0.00  0.00     0.128 A 
ATOM      2  C   UNL d   1      45.745 -12.813  43.344  0.00  0.00     0.306 A 
ATOM      3  C   UNL d   1      44.685 -13.768  43.475  0.00  0.00     0.013 A 
ATOM      4  O   UNL d   1      46.217 -13.304  43.790  0.00  0.00    -0.273 OA
ATOM      5  C   UNL d   1      45.160 -14.242  43.913  0.00  0.00     0.025 A 
ATOM      6  C   UNL d   1      45.955 -14.000  44.076  0.00  0.00     0.103 A 
ATOM      7  O   UNL d   1      46.025 -12.082  43.046  0.00  0.00    -0.259 OA
ATOM      8  C   UNL d   1      44.896 -14.962  44.211  0.00  0.00     0.026 A 
ATOM      9  C   UNL d   1      46.427 -14.497  44.526  0.00  0.00     0.027 A 
ATOM     10  C   UNL d   1      45.375 -15.462  44.665  0.00  0.00     0.094 A 
ATOM     11  C   UNL d   1      46.170 -15.220  44.828  0.00  0.00     0.026 A 
ENDROOT
BRANCH   1  12
ATOM     12  C   UNL d   1      44.447 -12.561  42.722  0.00  0.00     0.216 C 
ATOM     13  O   UNL d   1      43.788 -12.211  43.067  0.00  0.00    -0.644 OA
ATOM     14  O   UNL d   1      44.620 -12.428  41.916  0.00  0.00    -0.644 OA
ENDBRANCH   1  12
BRANCH  10  15
ATOM     15  O   UNL d   1      45.087 -16.183  44.955  0.00  0.00    -0.328 OA
ATOM     16  C   UNL d   1      45.549 -16.862  44.914  0.00  0.00     0.181 C 
ENDBRANCH  10  15
TORSDOF 2
ENDMDL
