MODEL 1
REMARK VINA RESULT:      -2.9      0.000      0.000
REMARK  3 active torsions:
REMARK  status: ('A' for Active; 'I' for Inactive)
REMARK    1  A    between atoms: S_5  and  C_1 
REMARK    2  A    between atoms: N_3  and  C_2 
REMARK    3  A    between atoms: C_4  and  S_5 
ROOT
ATOM      1  C   UNL d   1      30.111  16.526 -23.854  0.00  0.00     0.140 A 
ATOM      2  C   UNL d   1      29.314  16.586 -23.832  0.00  0.00     0.188 A 
ATOM      3  N   UNL d   1      30.513  15.975 -23.415  0.00  0.00    -0.216 NA
ATOM      4  C   UNL d   1      28.877  16.064 -23.341  0.00  0.00     0.209 A 
ATOM      5  N   UNL d   1      29.268  15.519 -22.906  0.00  0.00    -0.202 NA
ATOM      6  C   UNL d   1      30.076  15.453 -22.924  0.00  0.00     0.201 A 
ATOM      7  N   UNL d   1      28.246  16.091 -23.305  0.00  0.00    -0.125 N 
ENDROOT
BRANCH   1   8
ATOM      8  S   UNL d   1      30.548  17.048 -24.345  0.00  0.00    -0.028 SA
BRANCH   8   9
ATOM      9  C   UNL d   1      31.395  17.110 -24.248  0.00  0.00     0.196 A 
ATOM     10  N   UNL d   1      31.710  17.634 -23.695  0.00  0.00    -0.221 NA
ATOM     11  C   UNL d   1      32.540  17.660 -23.636  0.00  0.00     0.085 A 
ATOM     12  C   UNL d   1      32.857  18.218 -23.047  0.00  0.00     0.021 C 
ATOM     13  C   UNL d   1      33.028  17.204 -24.088  0.00  0.00     0.038 A 
ATOM     14  C   UNL d   1      32.717  16.693 -24.629  0.00  0.00     0.085 A 
ATOM     15  N   UNL d   1      31.862  16.638 -24.718  0.00  0.00    -0.221 NA
ATOM     16  C   UNL d   1      33.216  16.226 -25.092  0.00  0.00     0.021 C 
ENDBRANCH   8   9
ENDBRANCH   1   8
BRANCH   2  17
ATOM     17  N   UNL d   1      28.913  17.138 -24.271  0.00  0.00    -0.108 N 
ATOM     18  O   UNL d   1      28.725  17.060 -25.097  0.00  0.00    -0.532 OA
ATOM     19  O   UNL d   1      28.629  17.862 -23.963  0.00  0.00    -0.532 OA
ENDBRANCH   2  17
TORSDOF 3
ENDMDL
MODEL 2
REMARK VINA RESULT:      -1.9      1.392      3.483
REMARK  3 active torsions:
REMARK  status: ('A' for Active; 'I' for Inactive)
REMARK    1  A    between atoms: S_5  and  C_1 
REMARK    2  A    between atoms: N_3  and  C_2 
REMARK    3  A    between atoms: C_4  and  S_5 
ROOT
ATOM      1  C   UNL d   1      31.231  16.742 -24.507  0.00  0.00     0.140 A 
ATOM      2  C   UNL d   1      31.839  17.248 -24.624  0.00  0.00     0.188 A 
ATOM      3  N   UNL d   1      31.310  15.943 -24.623  0.00  0.00    -0.216 NA
ATOM      4  C   UNL d   1      32.581  16.947 -24.874  0.00  0.00     0.209 A 
ATOM      5  N   UNL d   1      32.664  16.160 -24.989  0.00  0.00    -0.202 NA
ATOM      6  C   UNL d   1      32.052  15.641 -24.873  0.00  0.00     0.201 A 
ATOM      7  N   UNL d   1      33.078  17.326 -24.973  0.00  0.00    -0.125 N 
ENDROOT
BRANCH   1   8
ATOM      8  S   UNL d   1      30.489  17.043 -24.258  0.00  0.00    -0.028 SA
BRANCH   8   9
ATOM      9  C   UNL d   1      29.867  16.502 -24.030  0.00  0.00     0.196 A 
ATOM     10  N   UNL d   1      29.811  16.243 -23.250  0.00  0.00    -0.221 NA
ATOM     11  C   UNL d   1      29.190  15.717 -23.075  0.00  0.00     0.085 A 
ATOM     12  C   UNL d   1      29.144  15.453 -22.247  0.00  0.00     0.021 C 
ATOM     13  C   UNL d   1      28.661  15.462 -23.629  0.00  0.00     0.038 A 
ATOM     14  C   UNL d   1      28.719  15.717 -24.391  0.00  0.00     0.085 A 
ATOM     15  N   UNL d   1      29.349  16.262 -24.610  0.00  0.00    -0.221 NA
ATOM     16  C   UNL d   1      28.177  15.456 -24.958  0.00  0.00     0.021 C 
ENDBRANCH   8   9
ENDBRANCH   1   8
BRANCH   2  17
ATOM     17  N   UNL d   1      31.761  18.048 -24.508  0.00  0.00    -0.108 N 
ATOM     18  O   UNL d   1      31.947  18.455 -23.785  0.00  0.00    -0.532 OA
ATOM     19  O   UNL d   1      31.483  18.578 -25.092  0.00  0.00    -0.532 OA
ENDBRANCH   2  17
TORSDOF 3
ENDMDL
MODEL 3
REMARK VINA RESULT:      -1.4      1.323      2.034
REMARK  3 active torsions:
REMARK  status: ('A' for Active; 'I' for Inactive)
REMARK    1  A    between atoms: S_5  and  C_1 
REMARK    2  A    between atoms: N_3  and  C_2 
REMARK    3  A    between atoms: C_4  and  S_5 
ROOT
ATOM      1  C   UNL d   1      30.264  16.736 -24.299  0.00  0.00     0.140 A 
ATOM      2  C   UNL d   1      29.478  16.745 -24.446  0.00  0.00     0.188 A 
ATOM      3  N   UNL d   1      30.739  17.372 -24.467  0.00  0.00    -0.216 NA
ATOM      4  C   UNL d   1      29.131  17.430 -24.783  0.00  0.00     0.209 A 
ATOM      5  N   UNL d   1      29.595  18.060 -24.951  0.00  0.00    -0.202 NA
ATOM      6  C   UNL d   1      30.392  18.058 -24.805  0.00  0.00     0.201 A 
ATOM      7  N   UNL d   1      28.512  17.463 -24.909  0.00  0.00    -0.125 N 
ENDROOT
BRANCH   1   8
ATOM      8  S   UNL d   1      30.611  16.051 -23.961  0.00  0.00    -0.028 SA
BRANCH   8   9
ATOM      9  C   UNL d   1      31.461  15.999 -23.888  0.00  0.00     0.196 A 
ATOM     10  N   UNL d   1      31.916  15.751 -24.528  0.00  0.00    -0.221 NA
ATOM     11  C   UNL d   1      32.739  15.717 -24.410  0.00  0.00     0.085 A 
ATOM     12  C   UNL d   1      33.206  15.453 -25.096  0.00  0.00     0.021 C 
ATOM     13  C   UNL d   1      33.092  15.912 -23.711  0.00  0.00     0.038 A 
ATOM     14  C   UNL d   1      32.644  16.155 -23.086  0.00  0.00     0.085 A 
ATOM     15  N   UNL d   1      31.788  16.203 -23.171  0.00  0.00    -0.221 NA
ATOM     16  C   UNL d   1      33.005  16.355 -22.371  0.00  0.00     0.021 C 
ENDBRANCH   8   9
ENDBRANCH   1   8
BRANCH   2  17
ATOM     17  N   UNL d   1      29.003  16.109 -24.278  0.00  0.00    -0.108 N 
ATOM     18  O   UNL d   1      28.808  15.489 -24.827  0.00  0.00    -0.532 OA
ATOM     19  O   UNL d   1      28.641  15.981 -23.535  0.00  0.00    -0.532 OA
ENDBRANCH   2  17
TORSDOF 3
ENDMDL
MODEL 4
REMARK VINA RESULT:      -0.9      1.885      3.815
REMARK  3 active torsions:
REMARK  status: ('A' for Active; 'I' for Inactive)
REMARK    1  A    between atoms: S_5  and  C_1 
REMARK    2  A    between atoms: N_3  and  C_2 
REMARK    3  A    between atoms: C_4  and  S_5 
ROOT
ATOM      1  C   UNL d   1      31.541  16.663 -24.007  0.00  0.00     0.140 A 
ATOM      2  C   UNL d   1      32.328  16.789 -23.938  0.00  0.00     0.188 A 
ATOM      3  N   UNL d   1      31.013  17.275 -24.077  0.00  0.00    -0.216 NA
ATOM      4  C   UNL d   1      32.620  17.575 -23.939  0.00  0.00     0.209 A 
ATOM      5  N   UNL d   1      32.104  18.182 -24.008  0.00  0.00    -0.202 NA
ATOM      6  C   UNL d   1      31.305  18.062 -24.078  0.00  0.00     0.201 A 
ATOM      7  N   UNL d   1      33.237  17.702 -23.886  0.00  0.00    -0.125 N 
ENDROOT
BRANCH   1   8
ATOM      8  S   UNL d   1      31.250  15.876 -24.007  0.00  0.00    -0.028 SA
BRANCH   8   9
ATOM      9  C   UNL d   1      30.422  15.732 -23.851  0.00  0.00     0.196 A 
ATOM     10  N   UNL d   1      29.891  15.663 -24.477  0.00  0.00    -0.221 NA
ATOM     11  C   UNL d   1      29.094  15.523 -24.277  0.00  0.00     0.085 A 
ATOM     12  C   UNL d   1      28.546  15.453 -24.949  0.00  0.00     0.021 C 
ATOM     13  C   UNL d   1      28.838  15.454 -23.515  0.00  0.00     0.038 A 
ATOM     14  C   UNL d   1      29.360  15.522 -22.905  0.00  0.00     0.085 A 
ATOM     15  N   UNL d   1      30.193  15.668 -23.073  0.00  0.00    -0.221 NA
ATOM     16  C   UNL d   1      29.097  15.452 -22.125  0.00  0.00     0.021 C 
ENDBRANCH   8   9
ENDBRANCH   1   8
BRANCH   2  17
ATOM     17  N   UNL d   1      32.856  16.176 -23.868  0.00  0.00    -0.108 N 
ATOM     18  O   UNL d   1      33.210  15.762 -24.521  0.00  0.00    -0.532 OA
ATOM     19  O   UNL d   1      33.122  15.872 -23.136  0.00  0.00    -0.532 OA
ENDBRANCH   2  17
TORSDOF 3
ENDMDL
MODEL 5
REMARK VINA RESULT:      -0.0      3.903      5.489
REMARK  3 active torsions:
REMARK  status: ('A' for Active; 'I' for Inactive)
REMARK    1  A    between atoms: S_5  and  C_1 
REMARK    2  A    between atoms: N_3  and  C_2 
REMARK    3  A    between atoms: C_4  and  S_5 
ROOT
ATOM      1  C   UNL d   1      33.067  21.220 -22.210  0.00  0.00     0.140 A 
ATOM      2  C   UNL d   1      32.738  21.617 -21.598  0.00  0.00     0.188 A 
ATOM      3  N   UNL d   1      33.238  21.583 -22.915  0.00  0.00    -0.216 NA
ATOM      4  C   UNL d   1      32.564  22.433 -21.685  0.00  0.00     0.209 A 
ATOM      5  N   UNL d   1      32.731  22.796 -22.378  0.00  0.00    -0.202 NA
ATOM      6  C   UNL d   1      33.064  22.399 -23.002  0.00  0.00     0.201 A 
ATOM      7  N   UNL d   1      32.305  22.770 -21.217  0.00  0.00    -0.125 N 
ENDROOT
BRANCH   1   8
ATOM      8  S   UNL d   1      33.241  20.404 -22.123  0.00  0.00    -0.028 SA
BRANCH   8   9
ATOM      9  C   UNL d   1      33.121  19.873 -22.782  0.00  0.00     0.196 A 
ATOM     10  N   UNL d   1      33.240  20.140 -23.552  0.00  0.00    -0.221 NA
ATOM     11  C   UNL d   1      33.112  19.588 -24.162  0.00  0.00     0.085 A 
ATOM     12  C   UNL d   1      33.241  19.885 -24.971  0.00  0.00     0.021 C 
ATOM     13  C   UNL d   1      32.883  18.826 -24.026  0.00  0.00     0.038 A 
ATOM     14  C   UNL d   1      32.768  18.568 -23.270  0.00  0.00     0.085 A 
ATOM     15  N   UNL d   1      32.891  19.111 -22.613  0.00  0.00    -0.221 NA
ATOM     16  C   UNL d   1      32.534  17.789 -23.130  0.00  0.00     0.021 C 
ENDBRANCH   8   9
ENDBRANCH   1   8
BRANCH   2  17
ATOM     17  N   UNL d   1      32.568  21.254 -20.893  0.00  0.00    -0.108 N 
ATOM     18  O   UNL d   1      33.147  20.956 -20.346  0.00  0.00    -0.532 OA
ATOM     19  O   UNL d   1      31.791  21.125 -20.611  0.00  0.00    -0.532 OA
ENDBRANCH   2  17
TORSDOF 3
ENDMDL
