MODEL 1
REMARK VINA RESULT:      -5.6      0.000      0.000
REMARK  3 active torsions:
REMARK  status: ('A' for Active; 'I' for Inactive)
REMARK    1  A    between atoms: C_13  and  C_4 
REMARK    2  A    between atoms: O_15  and  C_13 
REMARK    3  A    between atoms: C_16  and  O_15 
ROOT
ATOM      1  C   UNL d   1      57.452   0.214  30.828  0.00  0.00     0.144 C 
ENDROOT
BRANCH   1   2
ATOM      2  C   UNL d   1      58.077   0.132  30.312  0.00  0.00     0.142 A 
ATOM      3  N   UNL d   1      58.207  -0.480  29.778  0.00  0.00    -0.057 NA
ATOM      4  C   UNL d   1      58.906  -0.343  29.365  0.00  0.00     0.735 A 
ATOM      5  N   UNL d   1      59.236   0.374  29.638  0.00  0.00    -0.136 N 
ATOM      6  N   UNL d   1      59.293  -0.766  28.778  0.00  0.00    -0.059 NA
ATOM      7  C   UNL d   1      58.712   0.652  30.221  0.00  0.00     0.120 A 
ATOM      8  C   UNL d   1      59.942   0.660  29.326  0.00  0.00     0.100 A 
ATOM      9  C   UNL d   1      60.334   0.258  28.751  0.00  0.00     0.041 A 
ATOM     10  C   UNL d   1      60.016  -0.478  28.456  0.00  0.00     0.119 A 
ENDBRANCH   1   2
BRANCH   1  11
ATOM     11  O   UNL d   1      57.517  -0.049  31.600  0.00  0.00    -0.303 OA
BRANCH  11  12
ATOM     12  C   UNL d   1      56.862  -0.050  32.101  0.00  0.00     0.100 A 
ATOM     13  C   UNL d   1      56.563  -0.762  32.365  0.00  0.00     0.025 A 
ATOM     14  C   UNL d   1      55.909  -0.767  32.866  0.00  0.00     0.013 A 
ATOM     15  C   UNL d   1      55.599  -1.506  33.138  0.00  0.00     0.001 C 
ATOM     16  C   UNL d   1      55.552  -0.057  33.104  0.00  0.00     0.058 A 
ATOM     17  C   UNL d   1      55.852   0.654  32.840  0.00  0.00     0.013 A 
ATOM     18 CL   UNL d   1      54.890  -0.043  33.610  0.00  0.00    -0.082 Cl
ATOM     19  C   UNL d   1      56.507   0.656  32.338  0.00  0.00     0.026 A 
ENDBRANCH  11  12
ENDBRANCH   1  11
TORSDOF 3
ENDMDL
MODEL 2
REMARK VINA RESULT:      -4.7      2.239      4.718
REMARK  3 active torsions:
REMARK  status: ('A' for Active; 'I' for Inactive)
REMARK    1  A    between atoms: C_13  and  C_4 
REMARK    2  A    between atoms: O_15  and  C_13 
REMARK    3  A    between atoms: C_16  and  O_15 
ROOT
ATOM      1  C   UNL d   1      57.759   0.211  30.829  0.00  0.00     0.144 C 
ENDROOT
BRANCH   1   2
ATOM      2  C   UNL d   1      57.225  -0.042  31.389  0.00  0.00     0.142 A 
ATOM      3  N   UNL d   1      57.017  -0.818  31.567  0.00  0.00    -0.057 NA
ATOM      4  C   UNL d   1      56.456  -0.822  32.171  0.00  0.00     0.735 A 
ATOM      5  N   UNL d   1      56.298  -0.031  32.387  0.00  0.00    -0.136 N 
ATOM      6  N   UNL d   1      56.064  -1.431  32.556  0.00  0.00    -0.059 NA
ATOM      7  C   UNL d   1      56.780   0.435  31.896  0.00  0.00     0.120 A 
ATOM      8  C   UNL d   1      55.755   0.143  32.982  0.00  0.00     0.100 A 
ATOM      9  C   UNL d   1      55.363  -0.441  33.369  0.00  0.00     0.041 A 
ATOM     10  C   UNL d   1      55.508  -1.258  33.165  0.00  0.00     0.119 A 
ENDBRANCH   1   2
BRANCH   1  11
ATOM     11  O   UNL d   1      57.905  -0.242  30.163  0.00  0.00    -0.303 OA
BRANCH  11  12
ATOM     12  C   UNL d   1      58.605  -0.152  29.737  0.00  0.00     0.100 A 
ATOM     13  C   UNL d   1      58.964  -0.812  29.417  0.00  0.00     0.025 A 
ATOM     14  C   UNL d   1      59.664  -0.726  28.991  0.00  0.00     0.013 A 
ATOM     15  C   UNL d   1      60.035  -1.411  28.659  0.00  0.00     0.001 C 
ATOM     16  C   UNL d   1      60.006   0.022  28.884  0.00  0.00     0.058 A 
ATOM     17  C   UNL d   1      59.647   0.680  29.204  0.00  0.00     0.013 A 
ATOM     18 CL   UNL d   1      60.714   0.127  28.456  0.00  0.00    -0.082 Cl
ATOM     19  C   UNL d   1      58.946   0.591  29.631  0.00  0.00     0.026 A 
ENDBRANCH  11  12
ENDBRANCH   1  11
TORSDOF 3
ENDMDL
MODEL 3
REMARK VINA RESULT:      -4.5      0.898      1.093
REMARK  3 active torsions:
REMARK  status: ('A' for Active; 'I' for Inactive)
REMARK    1  A    between atoms: C_13  and  C_4 
REMARK    2  A    between atoms: O_15  and  C_13 
REMARK    3  A    between atoms: C_16  and  O_15 
ROOT
ATOM      1  C   UNL d   1      57.488   0.584  31.619  0.00  0.00     0.144 C 
ENDROOT
BRANCH   1   2
ATOM      2  C   UNL d   1      57.865   0.414  30.917  0.00  0.00     0.142 A 
ATOM      3  N   UNL d   1      57.586  -0.056  30.301  0.00  0.00    -0.057 NA
ATOM      4  C   UNL d   1      58.144  -0.079  29.696  0.00  0.00     0.735 A 
ATOM      5  N   UNL d   1      58.799   0.387  29.926  0.00  0.00    -0.136 N 
ATOM      6  N   UNL d   1      58.154  -0.455  28.967  0.00  0.00    -0.059 NA
ATOM      7  C   UNL d   1      58.609   0.682  30.679  0.00  0.00     0.120 A 
ATOM      8  C   UNL d   1      59.451   0.471  29.430  0.00  0.00     0.100 A 
ATOM      9  C   UNL d   1      59.477   0.109  28.713  0.00  0.00     0.041 A 
ATOM     10  C   UNL d   1      58.819  -0.373  28.457  0.00  0.00     0.119 A 
ENDBRANCH   1   2
BRANCH   1  11
ATOM     11  O   UNL d   1      57.077   0.001  32.018  0.00  0.00    -0.303 OA
BRANCH  11  12
ATOM     12  C   UNL d   1      56.684   0.170  32.723  0.00  0.00     0.100 A 
ATOM     13  C   UNL d   1      55.872   0.092  32.755  0.00  0.00     0.025 A 
ATOM     14  C   UNL d   1      55.476   0.260  33.458  0.00  0.00     0.013 A 
ATOM     15  C   UNL d   1      54.634   0.179  33.490  0.00  0.00     0.001 C 
ATOM     16  C   UNL d   1      55.893   0.506  34.131  0.00  0.00     0.058 A 
ATOM     17  C   UNL d   1      56.704   0.583  34.098  0.00  0.00     0.013 A 
ATOM     18 CL   UNL d   1      55.509   0.680  34.850  0.00  0.00    -0.082 Cl
ATOM     19  C   UNL d   1      57.098   0.414  33.392  0.00  0.00     0.026 A 
ENDBRANCH  11  12
ENDBRANCH   1  11
TORSDOF 3
ENDMDL
MODEL 4
REMARK VINA RESULT:      -3.1      9.910     10.157
REMARK  3 active torsions:
REMARK  status: ('A' for Active; 'I' for Inactive)
REMARK    1  A    between atoms: C_13  and  C_4 
REMARK    2  A    between atoms: O_15  and  C_13 
REMARK    3  A    between atoms: C_16  and  O_15 
ROOT
ATOM      1  C   UNL d   1      59.200  -9.791  32.953  0.00  0.00     0.144 C 
ENDROOT
BRANCH   1   2
ATOM      2  C   UNL d   1      58.698  -9.796  32.312  0.00  0.00     0.142 A 
ATOM      3  N   UNL d   1      57.875  -9.794  32.323  0.00  0.00    -0.057 NA
ATOM      4  C   UNL d   1      57.588  -9.802  31.550  0.00  0.00     0.735 A 
ATOM      5  N   UNL d   1      58.241  -9.808  31.029  0.00  0.00    -0.136 N 
ATOM      6  N   UNL d   1      56.828  -9.803  31.243  0.00  0.00    -0.059 NA
ATOM      7  C   UNL d   1      58.915  -9.805  31.516  0.00  0.00     0.120 A 
ATOM      8  C   UNL d   1      58.129  -9.816  30.213  0.00  0.00     0.100 A 
ATOM      9  C   UNL d   1      57.391  -9.818  29.896  0.00  0.00     0.041 A 
ATOM     10  C   UNL d   1      56.708  -9.811  30.409  0.00  0.00     0.119 A 
ENDBRANCH   1   2
BRANCH   1  11
ATOM     11  O   UNL d   1      59.295  -9.111  33.398  0.00  0.00    -0.303 OA
BRANCH  11  12
ATOM     12  C   UNL d   1      59.732  -9.123  34.097  0.00  0.00     0.100 A 
ATOM     13  C   UNL d   1      59.346  -9.032  34.810  0.00  0.00     0.025 A 
ATOM     14  C   UNL d   1      59.779  -9.043  35.511  0.00  0.00     0.013 A 
ATOM     15  C   UNL d   1      59.377  -8.949  36.250  0.00  0.00     0.001 C 
ATOM     16  C   UNL d   1      60.602  -9.144  35.498  0.00  0.00     0.058 A 
ATOM     17  C   UNL d   1      60.988  -9.235  34.785  0.00  0.00     0.013 A 
ATOM     18 CL   UNL d   1      61.056  -9.158  36.198  0.00  0.00    -0.082 Cl
ATOM     19  C   UNL d   1      60.550  -9.224  34.085  0.00  0.00     0.026 A 
ENDBRANCH  11  12
ENDBRANCH   1  11
TORSDOF 3
ENDMDL
