MODEL 1
REMARK VINA RESULT:      48.2      0.000      0.000
REMARK  2 active torsions:
REMARK  status: ('A' for Active; 'I' for Inactive)
REMARK    1  A    between atoms: C_4  and  C_1 
REMARK    2  A    between atoms: C_8  and  C_2 
REMARK       I    between atoms: N_7  and  C_4 
ROOT
ATOM      1  C   UNL d   1      14.055  12.845  -2.937  0.00  0.00     0.081 A 
ATOM      2  C   UNL d   1      13.806  12.285  -2.405  0.00  0.00     0.104 A 
ATOM      3  C   UNL d   1      13.699  12.719  -3.664  0.00  0.00     0.033 A 
ATOM      4  O   UNL d   1      13.270  11.779  -2.805  0.00  0.00    -0.307 OA
ATOM      5  C   UNL d   1      13.207  12.051  -3.582  0.00  0.00     0.100 A 
ATOM      6  C   UNL d   1      13.744  13.106  -4.391  0.00  0.00     0.044 A 
ATOM      7  C   UNL d   1      12.769  11.783  -4.227  0.00  0.00     0.028 A 
ATOM      8  C   UNL d   1      13.305  12.839  -5.042  0.00  0.00     0.196 A 
ATOM      9  C   UNL d   1      12.813  12.171  -4.959  0.00  0.00     0.044 A 
ATOM     10  O   UNL d   1      13.354  13.225  -5.754  0.00  0.00    -0.287 OA
ENDROOT
BRANCH   1  11
ATOM     11  C   UNL d   1      14.597  13.463  -2.773  0.00  0.00     0.267 C 
ATOM     12  N   UNL d   1      14.376  14.240  -2.878  0.00  0.00    -0.268 N 
ATOM     13  C   UNL d   1      14.917  14.859  -2.715  0.00  0.00     0.110 A 
ATOM     14  C   UNL d   1      13.612  14.437  -3.150  0.00  0.00     0.110 A 
ATOM     15  C   UNL d   1      14.685  15.643  -2.824  0.00  0.00     0.142 A 
ATOM     16  O   UNL d   1      13.933  15.833  -3.092  0.00  0.00    -0.300 OA
ATOM     17  C   UNL d   1      13.390  15.221  -3.256  0.00  0.00     0.142 A 
ATOM     18  O   UNL d   1      15.348  13.273  -2.506  0.00  0.00    -0.267 OA
ENDBRANCH   1  11
BRANCH   2  19
ATOM     19  C   UNL d   1      14.035  12.215  -1.607  0.00  0.00     0.023 A 
ATOM     20  C   UNL d   1      13.508  12.415  -1.027  0.00  0.00     0.002 A 
ATOM     21  C   UNL d   1      13.736  12.345  -0.228  0.00  0.00     0.000 A 
ATOM     22  C   UNL d   1      14.486  12.078  -0.029  0.00  0.00     0.000 A 
ATOM     23  C   UNL d   1      15.019  11.876  -0.626  0.00  0.00     0.000 A 
ATOM     24  C   UNL d   1      14.792  11.945  -1.420  0.00  0.00     0.002 A 
ENDBRANCH   2  19
TORSDOF 2
ENDMDL
MODEL 2
REMARK VINA RESULT:      48.3      1.345      2.888
REMARK  2 active torsions:
REMARK  status: ('A' for Active; 'I' for Inactive)
REMARK    1  A    between atoms: C_4  and  C_1 
REMARK    2  A    between atoms: C_8  and  C_2 
REMARK       I    between atoms: N_7  and  C_4 
ROOT
ATOM      1  C   UNL d   1      14.374  13.665  -2.231  0.00  0.00     0.081 A 
ATOM      2  C   UNL d   1      14.315  14.473  -2.188  0.00  0.00     0.104 A 
ATOM      3  C   UNL d   1      13.942  13.386  -2.869  0.00  0.00     0.033 A 
ATOM      4  O   UNL d   1      13.827  14.723  -2.823  0.00  0.00    -0.307 OA
ATOM      5  C   UNL d   1      13.600  14.048  -3.240  0.00  0.00     0.100 A 
ATOM      6  C   UNL d   1      13.806  12.631  -3.173  0.00  0.00     0.044 A 
ATOM      7  C   UNL d   1      13.127  13.946  -3.908  0.00  0.00     0.028 A 
ATOM      8  C   UNL d   1      13.331  12.524  -3.845  0.00  0.00     0.196 A 
ATOM      9  C   UNL d   1      12.989  13.187  -4.216  0.00  0.00     0.044 A 
ATOM     10  O   UNL d   1      13.201  11.779  -4.139  0.00  0.00    -0.287 OA
ENDROOT
BRANCH   1  11
ATOM     11  C   UNL d   1      14.810  13.181  -1.703  0.00  0.00     0.267 C 
ATOM     12  N   UNL d   1      14.423  12.723  -1.152  0.00  0.00    -0.268 N 
ATOM     13  C   UNL d   1      14.858  12.239  -0.624  0.00  0.00     0.110 A 
ATOM     14  C   UNL d   1      13.590  12.725  -1.100  0.00  0.00     0.110 A 
ATOM     15  C   UNL d   1      14.459  11.779  -0.069  0.00  0.00     0.142 A 
ATOM     16  O   UNL d   1      13.640  11.782  -0.020  0.00  0.00    -0.300 OA
ATOM     17  C   UNL d   1      13.201  12.262  -0.543  0.00  0.00     0.142 A 
ATOM     18  O   UNL d   1      15.628  13.178  -1.752  0.00  0.00    -0.267 OA
ENDBRANCH   1  11
BRANCH   2  19
ATOM     19  C   UNL d   1      14.669  14.972  -1.623  0.00  0.00     0.023 A 
ATOM     20  C   UNL d   1      14.729  14.720  -0.856  0.00  0.00     0.002 A 
ATOM     21  C   UNL d   1      15.083  15.219  -0.291  0.00  0.00     0.000 A 
ATOM     22  C   UNL d   1      15.369  15.958  -0.505  0.00  0.00     0.000 A 
ATOM     23  C   UNL d   1      15.305  16.209  -1.289  0.00  0.00     0.000 A 
ATOM     24  C   UNL d   1      14.952  15.712  -1.851  0.00  0.00     0.002 A 
ENDBRANCH   2  19
TORSDOF 2
ENDMDL
