MODEL 1
REMARK VINA RESULT:      -3.9      0.000      0.000
REMARK  6 active torsions:
REMARK  status: ('A' for Active; 'I' for Inactive)
REMARK    1  A    between atoms: N_5  and  S_1 
REMARK    2  A    between atoms: C_6  and  S_1 
REMARK    3  A    between atoms: C_2  and  C_10 
REMARK       I    between atoms: N_3  and  C_2 
REMARK    4  A    between atoms: C_11  and  N_4 
REMARK    5  A    between atoms: C_17  and  N_5 
REMARK    6  A    between atoms: O_29  and  C_23 
ROOT
ATOM      1  C   UNL d   1     -45.775  12.797  22.516  0.00  0.00     0.057 A 
ATOM      2  C   UNL d   1     -47.180  13.661  22.496  0.00  0.00     0.094 A 
ATOM      3  C   UNL d   1     -45.979  13.271  23.165  0.00  0.00     0.006 A 
ATOM      4  C   UNL d   1     -46.279  12.762  21.863  0.00  0.00     0.006 A 
ATOM      5  C   UNL d   1     -46.683  13.700  23.148  0.00  0.00     0.020 A 
ATOM      6  C   UNL d   1     -46.971  13.187  21.852  0.00  0.00     0.020 A 
ENDROOT
BRANCH   1   7
ATOM      7  C   UNL d   1     -45.068  12.360  22.524  0.00  0.00     0.265 C 
ATOM      8  N   UNL d   1     -44.388  12.657  22.151  0.00  0.00    -0.269 N 
ATOM      9  C   UNL d   1     -43.696  12.226  22.160  0.00  0.00     0.102 A 
ATOM     10  C   UNL d   1     -44.416  13.388  21.772  0.00  0.00     0.102 A 
ATOM     11  C   UNL d   1     -43.021  12.522  21.789  0.00  0.00     0.100 A 
ATOM     12  N   UNL d   1     -43.054  13.251  21.413  0.00  0.00    -0.301 N 
ATOM     13  C   UNL d   1     -43.746  13.682  21.403  0.00  0.00     0.100 A 
ATOM     14  O   UNL d   1     -45.043  11.631  22.904  0.00  0.00    -0.267 OA
BRANCH  12  15
ATOM     15  C   UNL d   1     -42.393  13.544  21.047  0.00  0.00     0.064 A 
ATOM     16  C   UNL d   1     -42.293  13.439  20.235  0.00  0.00     0.020 A 
ATOM     17  C   UNL d   1     -41.625  13.734  19.863  0.00  0.00     0.026 A 
ATOM     18  C   UNL d   1     -41.050  14.137  20.298  0.00  0.00     0.094 A 
ATOM     19  C   UNL d   1     -41.159  14.238  21.115  0.00  0.00     0.026 A 
ATOM     20  C   UNL d   1     -41.824  13.943  21.479  0.00  0.00     0.020 A 
BRANCH  18  21
ATOM     21  O   UNL d   1     -40.382  14.433  19.926  0.00  0.00    -0.328 OA
ATOM     22  C   UNL d   1     -40.353  15.226  19.711  0.00  0.00     0.181 C 
ENDBRANCH  18  21
ENDBRANCH  12  15
ENDBRANCH   1   7
BRANCH   2  23
ATOM     23  N   UNL d   1     -47.872  14.090  22.492  0.00  0.00    -0.158 NA
BRANCH  23  24
ATOM     24  S   UNL d   1     -48.603  13.714  22.575  0.00  0.00     0.285 S 
ATOM     25  O   UNL d   1     -48.551  13.799  23.388  0.00  0.00    -0.198 OA
ATOM     26  O   UNL d   1     -48.643  13.635  21.758  0.00  0.00    -0.198 OA
BRANCH  24  27
ATOM     27  C   UNL d   1     -49.328  13.340  22.648  0.00  0.00     0.107 A 
ATOM     28  C   UNL d   1     -49.388  12.630  23.052  0.00  0.00     0.043 A 
ATOM     29  C   UNL d   1     -50.122  12.253  23.125  0.00  0.00     0.141 A 
ATOM     30  F   UNL d   1     -50.189  11.532  23.534  0.00  0.00    -0.204 F 
ATOM     31  C   UNL d   1     -50.794  12.596  22.788  0.00  0.00     0.030 A 
ATOM     32  C   UNL d   1     -50.733  13.316  22.379  0.00  0.00     0.003 A 
ATOM     33  C   UNL d   1     -49.997  13.686  22.310  0.00  0.00     0.013 A 
ENDBRANCH  24  27
ENDBRANCH  23  24
ENDBRANCH   2  23
TORSDOF 6
ENDMDL
MODEL 2
REMARK VINA RESULT:      -3.9      2.450      4.341
REMARK  6 active torsions:
REMARK  status: ('A' for Active; 'I' for Inactive)
REMARK    1  A    between atoms: N_5  and  S_1 
REMARK    2  A    between atoms: C_6  and  S_1 
REMARK    3  A    between atoms: C_2  and  C_10 
REMARK       I    between atoms: N_3  and  C_2 
REMARK    4  A    between atoms: C_11  and  N_4 
REMARK    5  A    between atoms: C_17  and  N_5 
REMARK    6  A    between atoms: O_29  and  C_23 
ROOT
ATOM      1  C   UNL d   1     -41.915  13.825  21.156  0.00  0.00     0.057 A 
ATOM      2  C   UNL d   1     -43.267  12.897  21.334  0.00  0.00     0.094 A 
ATOM      3  C   UNL d   1     -41.852  13.053  21.452  0.00  0.00     0.006 A 
ATOM      4  C   UNL d   1     -42.657  14.124  20.953  0.00  0.00     0.006 A 
ATOM      5  C   UNL d   1     -42.533  12.595  21.538  0.00  0.00     0.020 A 
ATOM      6  C   UNL d   1     -43.325  13.668  21.041  0.00  0.00     0.020 A 
ENDROOT
BRANCH   1   7
ATOM      7  C   UNL d   1     -41.235  14.294  21.066  0.00  0.00     0.265 C 
ATOM      8  N   UNL d   1     -40.856  14.346  20.329  0.00  0.00    -0.269 N 
ATOM      9  C   UNL d   1     -40.190  14.807  20.243  0.00  0.00     0.102 A 
ATOM     10  C   UNL d   1     -41.157  13.929  19.685  0.00  0.00     0.102 A 
ATOM     11  C   UNL d   1     -39.814  14.857  19.510  0.00  0.00     0.100 A 
ATOM     12  N   UNL d   1     -40.118  14.440  18.871  0.00  0.00    -0.301 N 
ATOM     13  C   UNL d   1     -40.785  13.979  18.957  0.00  0.00     0.100 A 
ATOM     14  O   UNL d   1     -40.937  14.709  21.711  0.00  0.00    -0.267 OA
BRANCH  12  15
ATOM     15  C   UNL d   1     -39.751  14.488  18.151  0.00  0.00     0.064 A 
ATOM     16  C   UNL d   1     -39.176  13.933  17.947  0.00  0.00     0.020 A 
ATOM     17  C   UNL d   1     -38.803  13.979  17.218  0.00  0.00     0.026 A 
ATOM     18  C   UNL d   1     -39.001  14.578  16.686  0.00  0.00     0.094 A 
ATOM     19  C   UNL d   1     -39.582  15.132  16.900  0.00  0.00     0.026 A 
ATOM     20  C   UNL d   1     -39.948  15.082  17.625  0.00  0.00     0.020 A 
BRANCH  18  21
ATOM     21  O   UNL d   1     -38.629  14.625  15.957  0.00  0.00    -0.328 OA
ATOM     22  C   UNL d   1     -38.148  15.269  15.786  0.00  0.00     0.181 C 
ENDBRANCH  18  21
ENDBRANCH  12  15
ENDBRANCH   1   7
BRANCH   2  23
ATOM     23  N   UNL d   1     -43.932  12.435  21.424  0.00  0.00    -0.158 NA
BRANCH  23  24
ATOM     24  S   UNL d   1     -44.572  12.698  21.875  0.00  0.00     0.285 S 
ATOM     25  O   UNL d   1     -44.211  12.412  22.552  0.00  0.00    -0.198 OA
ATOM     26  O   UNL d   1     -44.925  12.982  21.188  0.00  0.00    -0.198 OA
BRANCH  24  27
ATOM     27  C   UNL d   1     -45.211  12.963  22.313  0.00  0.00     0.107 A 
ATOM     28  C   UNL d   1     -45.462  13.740  22.252  0.00  0.00     0.043 A 
ATOM     29  C   UNL d   1     -46.108  14.007  22.696  0.00  0.00     0.141 A 
ATOM     30  F   UNL d   1     -46.366  14.795  22.637  0.00  0.00    -0.204 F 
ATOM     31  C   UNL d   1     -46.500  13.484  23.202  0.00  0.00     0.030 A 
ATOM     32  C   UNL d   1     -46.246  12.696  23.264  0.00  0.00     0.003 A 
ATOM     33  C   UNL d   1     -45.601  12.438  22.818  0.00  0.00     0.013 A 
ENDBRANCH  24  27
ENDBRANCH  23  24
ENDBRANCH   2  23
TORSDOF 6
ENDMDL
MODEL 3
REMARK VINA RESULT:      -3.8      2.971      7.328
REMARK  6 active torsions:
REMARK  status: ('A' for Active; 'I' for Inactive)
REMARK    1  A    between atoms: N_5  and  S_1 
REMARK    2  A    between atoms: C_6  and  S_1 
REMARK    3  A    between atoms: C_2  and  C_10 
REMARK       I    between atoms: N_3  and  C_2 
REMARK    4  A    between atoms: C_11  and  N_4 
REMARK    5  A    between atoms: C_17  and  N_5 
REMARK    6  A    between atoms: O_29  and  C_23 
ROOT
ATOM      1  C   UNL d   1     -42.600  13.068  21.326  0.00  0.00     0.057 A 
ATOM      2  C   UNL d   1     -41.578  14.136  20.594  0.00  0.00     0.094 A 
ATOM      3  C   UNL d   1     -42.026  13.465  21.774  0.00  0.00     0.006 A 
ATOM      4  C   UNL d   1     -42.656  13.212  20.515  0.00  0.00     0.006 A 
ATOM      5  C   UNL d   1     -41.518  13.997  21.400  0.00  0.00     0.020 A 
ATOM      6  C   UNL d   1     -42.153  13.738  20.153  0.00  0.00     0.020 A 
ENDROOT
BRANCH   1   7
ATOM      7  C   UNL d   1     -43.117  12.530  21.693  0.00  0.00     0.265 C 
ATOM      8  N   UNL d   1     -43.896  12.752  21.873  0.00  0.00    -0.269 N 
ATOM      9  C   UNL d   1     -44.400  12.222  22.233  0.00  0.00     0.102 A 
ATOM     10  C   UNL d   1     -44.157  13.511  21.687  0.00  0.00     0.102 A 
ATOM     11  C   UNL d   1     -45.174  12.444  22.411  0.00  0.00     0.100 A 
ATOM     12  N   UNL d   1     -45.430  13.202  22.224  0.00  0.00    -0.301 N 
ATOM     13  C   UNL d   1     -44.926  13.732  21.864  0.00  0.00     0.100 A 
ATOM     14  O   UNL d   1     -42.853  11.773  21.878  0.00  0.00    -0.267 OA
BRANCH  12  15
ATOM     15  C   UNL d   1     -46.189  13.423  22.398  0.00  0.00     0.064 A 
ATOM     16  C   UNL d   1     -46.326  14.110  22.833  0.00  0.00     0.020 A 
ATOM     17  C   UNL d   1     -47.093  14.337  23.011  0.00  0.00     0.026 A 
ATOM     18  C   UNL d   1     -47.732  13.879  22.756  0.00  0.00     0.094 A 
ATOM     19  C   UNL d   1     -47.584  13.189  22.319  0.00  0.00     0.026 A 
ATOM     20  C   UNL d   1     -46.821  12.969  22.145  0.00  0.00     0.020 A 
BRANCH  18  21
ATOM     21  O   UNL d   1     -48.500  14.105  22.933  0.00  0.00    -0.328 OA
ATOM     22  C   UNL d   1     -48.784  14.829  22.664  0.00  0.00     0.181 C 
ENDBRANCH  18  21
ENDBRANCH  12  15
ENDBRANCH   1   7
BRANCH   2  23
ATOM     23  N   UNL d   1     -41.070  14.664  20.238  0.00  0.00    -0.158 NA
BRANCH  23  24
ATOM     24  S   UNL d   1     -40.427  14.398  19.793  0.00  0.00     0.285 S 
ATOM     25  O   UNL d   1     -39.994  14.304  20.482  0.00  0.00    -0.198 OA
ATOM     26  O   UNL d   1     -40.873  14.496  19.109  0.00  0.00    -0.198 OA
BRANCH  24  27
ATOM     27  C   UNL d   1     -39.795  14.135  19.344  0.00  0.00     0.107 A 
ATOM     28  C   UNL d   1     -39.896  13.956  18.552  0.00  0.00     0.043 A 
ATOM     29  C   UNL d   1     -39.256  13.690  18.098  0.00  0.00     0.141 A 
ATOM     30  F   UNL d   1     -39.354  13.507  17.293  0.00  0.00    -0.204 F 
ATOM     31  C   UNL d   1     -38.512  13.605  18.450  0.00  0.00     0.030 A 
ATOM     32  C   UNL d   1     -38.410  13.787  19.254  0.00  0.00     0.003 A 
ATOM     33  C   UNL d   1     -39.054  14.051  19.699  0.00  0.00     0.013 A 
ENDBRANCH  24  27
ENDBRANCH  23  24
ENDBRANCH   2  23
TORSDOF 6
ENDMDL
MODEL 4
REMARK VINA RESULT:      -1.5      4.300      8.837
REMARK  6 active torsions:
REMARK  status: ('A' for Active; 'I' for Inactive)
REMARK    1  A    between atoms: N_5  and  S_1 
REMARK    2  A    between atoms: C_6  and  S_1 
REMARK    3  A    between atoms: C_2  and  C_10 
REMARK       I    between atoms: N_3  and  C_2 
REMARK    4  A    between atoms: C_11  and  N_4 
REMARK    5  A    between atoms: C_17  and  N_5 
REMARK    6  A    between atoms: O_29  and  C_23 
ROOT
ATOM      1  C   UNL d   1     -40.038  14.500  19.363  0.00  0.00     0.057 A 
ATOM      2  C   UNL d   1     -39.283  13.818  18.064  0.00  0.00     0.094 A 
ATOM      3  C   UNL d   1     -40.425  14.465  18.630  0.00  0.00     0.006 A 
ATOM      4  C   UNL d   1     -39.276  14.191  19.436  0.00  0.00     0.006 A 
ATOM      5  C   UNL d   1     -40.040  14.123  17.985  0.00  0.00     0.020 A 
ATOM      6  C   UNL d   1     -38.903  13.855  18.797  0.00  0.00     0.020 A 
ENDROOT
BRANCH   1   7
ATOM      7  C   UNL d   1     -40.417  14.842  20.019  0.00  0.00     0.265 C 
ATOM      8  N   UNL d   1     -41.057  14.458  20.382  0.00  0.00    -0.269 N 
ATOM      9  C   UNL d   1     -41.426  14.797  21.025  0.00  0.00     0.102 A 
ATOM     10  C   UNL d   1     -41.316  13.733  20.090  0.00  0.00     0.102 A 
ATOM     11  C   UNL d   1     -42.062  14.414  21.385  0.00  0.00     0.100 A 
ATOM     12  N   UNL d   1     -42.317  13.691  21.090  0.00  0.00    -0.301 N 
ATOM     13  C   UNL d   1     -41.948  13.352  20.447  0.00  0.00     0.100 A 
ATOM     14  O   UNL d   1     -40.155  15.567  20.308  0.00  0.00    -0.267 OA
BRANCH  12  15
ATOM     15  C   UNL d   1     -42.941  13.312  21.442  0.00  0.00     0.064 A 
ATOM     16  C   UNL d   1     -42.813  12.610  21.855  0.00  0.00     0.020 A 
ATOM     17  C   UNL d   1     -43.442  12.224  22.211  0.00  0.00     0.026 A 
ATOM     18  C   UNL d   1     -44.205  12.536  22.160  0.00  0.00     0.094 A 
ATOM     19  C   UNL d   1     -44.324  13.244  21.742  0.00  0.00     0.026 A 
ATOM     20  C   UNL d   1     -43.696  13.623  21.390  0.00  0.00     0.020 A 
BRANCH  18  21
ATOM     21  O   UNL d   1     -44.835  12.151  22.516  0.00  0.00    -0.328 OA
ATOM     22  C   UNL d   1     -45.598  12.446  22.423  0.00  0.00     0.181 C 
ENDBRANCH  18  21
ENDBRANCH  12  15
ENDBRANCH   1   7
BRANCH   2  23
ATOM     23  N   UNL d   1     -38.915  13.483  17.420  0.00  0.00    -0.158 NA
BRANCH  23  24
ATOM     24  S   UNL d   1     -38.664  13.950  16.786  0.00  0.00     0.285 S 
ATOM     25  O   UNL d   1     -37.994  14.157  17.208  0.00  0.00    -0.198 OA
ATOM     26  O   UNL d   1     -39.342  13.734  16.373  0.00  0.00    -0.198 OA
BRANCH  24  27
ATOM     27  C   UNL d   1     -38.424  14.410  16.153  0.00  0.00     0.107 A 
ATOM     28  C   UNL d   1     -38.305  14.072  15.417  0.00  0.00     0.043 A 
ATOM     29  C   UNL d   1     -38.062  14.539  14.777  0.00  0.00     0.141 A 
ATOM     30  F   UNL d   1     -37.939  14.200  14.028  0.00  0.00    -0.204 F 
ATOM     31  C   UNL d   1     -37.940  15.350  14.885  0.00  0.00     0.030 A 
ATOM     32  C   UNL d   1     -38.060  15.693  15.632  0.00  0.00     0.003 A 
ATOM     33  C   UNL d   1     -38.303  15.220  16.265  0.00  0.00     0.013 A 
ENDBRANCH  24  27
ENDBRANCH  23  24
ENDBRANCH   2  23
TORSDOF 6
ENDMDL
