MODEL 1
REMARK VINA RESULT:      -4.1      0.000      0.000
REMARK  3 active torsions:
REMARK  status: ('A' for Active; 'I' for Inactive)
REMARK    1  A    between atoms: N_5  and  C_1 
REMARK       I    between atoms: C_2  and  N_3 
REMARK    2  A    between atoms: C_4  and  C_2 
REMARK    3  A    between atoms: N_3  and  N_5 
ROOT
ATOM      1  C   UNL d   1      56.686   0.074  33.108  0.00  0.00     0.060 A 
ATOM      2  C   UNL d   1      56.060   0.535  33.372  0.00  0.00     0.012 A 
ATOM      3  C   UNL d   1      55.311   0.206  33.480  0.00  0.00     0.035 A 
ATOM      4 BR   UNL d   1      54.687   0.682  33.748  0.00  0.00    -0.049 Br
ATOM      5  C   UNL d   1      56.565  -0.736  32.945  0.00  0.00     0.005 A 
ATOM      6  C   UNL d   1      55.821  -1.061  33.052  0.00  0.00     0.001 A 
ATOM      7  C   UNL d   1      55.193  -0.584  33.322  0.00  0.00     0.007 A 
ENDROOT
BRANCH   1   8
ATOM      8  C   UNL d   1      57.434   0.419  33.004  0.00  0.00     0.297 C 
ATOM      9  N   UNL d   1      57.732   0.507  32.258  0.00  0.00    -0.103 NA
ATOM     10  O   UNL d   1      57.867   0.670  33.672  0.00  0.00    -0.264 OA
BRANCH   9  11
ATOM     11  N   UNL d   1      57.300   0.259  31.619  0.00  0.00    -0.112 NA
BRANCH  11  12
ATOM     12  C   UNL d   1      57.569   0.413  30.856  0.00  0.00     0.260 C 
ATOM     13  S   UNL d   1      58.370   0.299  30.668  0.00  0.00    -0.034 SA
ATOM     14  N   UNL d   1      57.045   0.680  30.280  0.00  0.00    -0.113 N 
ENDBRANCH  11  12
ENDBRANCH   9  11
ENDBRANCH   1   8
TORSDOF 3
ENDMDL
MODEL 2
REMARK VINA RESULT:      -3.9      9.461      9.901
REMARK  3 active torsions:
REMARK  status: ('A' for Active; 'I' for Inactive)
REMARK    1  A    between atoms: N_5  and  C_1 
REMARK       I    between atoms: C_2  and  N_3 
REMARK    2  A    between atoms: C_4  and  C_2 
REMARK    3  A    between atoms: N_3  and  N_5 
ROOT
ATOM      1  C   UNL d   1      60.245  -8.478  35.940  0.00  0.00     0.060 A 
ATOM      2  C   UNL d   1      60.785  -7.859  35.948  0.00  0.00     0.012 A 
ATOM      3  C   UNL d   1      60.545  -7.094  36.143  0.00  0.00     0.035 A 
ATOM      4 BR   UNL d   1      61.100  -6.477  36.147  0.00  0.00    -0.049 Br
ATOM      5  C   UNL d   1      59.446  -8.333  36.132  0.00  0.00     0.005 A 
ATOM      6  C   UNL d   1      59.209  -7.573  36.325  0.00  0.00     0.001 A 
ATOM      7  C   UNL d   1      59.766  -6.952  36.330  0.00  0.00     0.007 A 
ENDROOT
BRANCH   1   8
ATOM      8  C   UNL d   1      60.501  -9.242  35.742  0.00  0.00     0.297 C 
ATOM      9  N   UNL d   1      60.415  -9.506  34.983  0.00  0.00    -0.103 NA
ATOM     10  O   UNL d   1      60.842  -9.727  36.329  0.00  0.00    -0.264 OA
BRANCH   9  11
ATOM     11  N   UNL d   1      60.083  -9.024  34.423  0.00  0.00    -0.112 NA
BRANCH  11  12
ATOM     12  C   UNL d   1      59.958  -9.306  33.659  0.00  0.00     0.260 C 
ATOM     13  S   UNL d   1      60.605  -9.428  33.152  0.00  0.00    -0.034 SA
ATOM     14  N   UNL d   1      59.194  -9.466  33.398  0.00  0.00    -0.113 N 
ENDBRANCH  11  12
ENDBRANCH   9  11
ENDBRANCH   1   8
TORSDOF 3
ENDMDL
MODEL 3
REMARK VINA RESULT:      -3.7      9.548     10.107
REMARK  3 active torsions:
REMARK  status: ('A' for Active; 'I' for Inactive)
REMARK    1  A    between atoms: N_5  and  C_1 
REMARK       I    between atoms: C_2  and  N_3 
REMARK    2  A    between atoms: C_4  and  C_2 
REMARK    3  A    between atoms: N_3  and  N_5 
ROOT
ATOM      1  C   UNL d   1      59.674  -9.352  35.204  0.00  0.00     0.060 A 
ATOM      2  C   UNL d   1      59.253  -9.388  34.500  0.00  0.00     0.012 A 
ATOM      3  C   UNL d   1      59.624  -9.610  33.797  0.00  0.00     0.035 A 
ATOM      4 BR   UNL d   1      59.188  -9.643  33.094  0.00  0.00    -0.049 Br
ATOM      5  C   UNL d   1      60.487  -9.540  35.210  0.00  0.00     0.005 A 
ATOM      6  C   UNL d   1      60.855  -9.760  34.512  0.00  0.00     0.001 A 
ATOM      7  C   UNL d   1      60.417  -9.794  33.803  0.00  0.00     0.007 A 
ENDROOT
BRANCH   1   8
ATOM      8  C   UNL d   1      59.287  -9.127  35.903  0.00  0.00     0.297 C 
ATOM      9  N   UNL d   1      59.341  -8.362  36.160  0.00  0.00    -0.103 NA
ATOM     10  O   UNL d   1      58.848  -9.694  36.330  0.00  0.00    -0.264 OA
BRANCH   9  11
ATOM     11  N   UNL d   1      59.770  -7.823  35.734  0.00  0.00    -0.112 NA
BRANCH  11  12
ATOM     12  C   UNL d   1      59.770  -7.030  35.957  0.00  0.00     0.260 C 
ATOM     13  S   UNL d   1      60.443  -6.699  36.314  0.00  0.00    -0.034 SA
ATOM     14  N   UNL d   1      59.104  -6.565  35.826  0.00  0.00    -0.113 N 
ENDBRANCH  11  12
ENDBRANCH   9  11
ENDBRANCH   1   8
TORSDOF 3
ENDMDL
MODEL 4
REMARK VINA RESULT:      -3.6      2.393      2.889
REMARK  3 active torsions:
REMARK  status: ('A' for Active; 'I' for Inactive)
REMARK    1  A    between atoms: N_5  and  C_1 
REMARK       I    between atoms: C_2  and  N_3 
REMARK    2  A    between atoms: C_4  and  C_2 
REMARK    3  A    between atoms: N_3  and  N_5 
ROOT
ATOM      1  C   UNL d   1      56.919   0.082  32.993  0.00  0.00     0.060 A 
ATOM      2  C   UNL d   1      57.208   0.462  32.325  0.00  0.00     0.012 A 
ATOM      3  C   UNL d   1      57.198   0.088  31.589  0.00  0.00     0.035 A 
ATOM      4 BR   UNL d   1      57.492   0.483  30.923  0.00  0.00    -0.049 Br
ATOM      5  C   UNL d   1      56.612  -0.692  32.929  0.00  0.00     0.005 A 
ATOM      6  C   UNL d   1      56.603  -1.062  32.199  0.00  0.00     0.001 A 
ATOM      7  C   UNL d   1      56.898  -0.666  31.527  0.00  0.00     0.007 A 
ENDROOT
BRANCH   1   8
ATOM      8  C   UNL d   1      56.936   0.471  33.726  0.00  0.00     0.297 C 
ATOM      9  N   UNL d   1      56.240   0.679  34.082  0.00  0.00    -0.103 NA
ATOM     10  O   UNL d   1      57.669   0.642  34.084  0.00  0.00    -0.264 OA
BRANCH   9  11
ATOM     11  N   UNL d   1      55.535   0.507  33.722  0.00  0.00    -0.112 NA
BRANCH  11  12
ATOM     12  C   UNL d   1      54.828   0.622  34.127  0.00  0.00     0.260 C 
ATOM     13  S   UNL d   1      54.829   0.679  34.956  0.00  0.00    -0.034 SA
ATOM     14  N   UNL d   1      54.119   0.682  33.713  0.00  0.00    -0.113 N 
ENDBRANCH  11  12
ENDBRANCH   9  11
ENDBRANCH   1   8
TORSDOF 3
ENDMDL
MODEL 5
REMARK VINA RESULT:      -3.3      1.349      1.655
REMARK  3 active torsions:
REMARK  status: ('A' for Active; 'I' for Inactive)
REMARK    1  A    between atoms: N_5  and  C_1 
REMARK       I    between atoms: C_2  and  N_3 
REMARK    2  A    between atoms: C_4  and  C_2 
REMARK    3  A    between atoms: N_3  and  N_5 
ROOT
ATOM      1  C   UNL d   1      56.622   0.064  31.866  0.00  0.00     0.060 A 
ATOM      2  C   UNL d   1      56.267   0.497  32.466  0.00  0.00     0.012 A 
ATOM      3  C   UNL d   1      55.925   0.117  33.114  0.00  0.00     0.035 A 
ATOM      4 BR   UNL d   1      55.570   0.565  33.714  0.00  0.00    -0.049 Br
ATOM      5  C   UNL d   1      56.638  -0.769  31.909  0.00  0.00     0.005 A 
ATOM      6  C   UNL d   1      56.298  -1.146  32.553  0.00  0.00     0.001 A 
ATOM      7  C   UNL d   1      55.941  -0.696  33.157  0.00  0.00     0.007 A 
ENDROOT
BRANCH   1   8
ATOM      8  C   UNL d   1      56.962   0.461  31.221  0.00  0.00     0.297 C 
ATOM      9  N   UNL d   1      57.753   0.628  31.228  0.00  0.00    -0.103 NA
ATOM     10  O   UNL d   1      56.483   0.681  30.574  0.00  0.00    -0.264 OA
BRANCH   9  11
ATOM     11  N   UNL d   1      58.206   0.408  31.863  0.00  0.00    -0.112 NA
BRANCH  11  12
ATOM     12  C   UNL d   1      59.009   0.590  31.877  0.00  0.00     0.260 C 
ATOM     13  S   UNL d   1      59.427   0.682  31.165  0.00  0.00    -0.034 SA
ATOM     14  N   UNL d   1      59.399   0.682  32.597  0.00  0.00    -0.113 N 
ENDBRANCH  11  12
ENDBRANCH   9  11
ENDBRANCH   1   8
TORSDOF 3
ENDMDL
MODEL 6
REMARK VINA RESULT:      -3.3      3.119      4.544
REMARK  3 active torsions:
REMARK  status: ('A' for Active; 'I' for Inactive)
REMARK    1  A    between atoms: N_5  and  C_1 
REMARK       I    between atoms: C_2  and  N_3 
REMARK    2  A    between atoms: C_4  and  C_2 
REMARK    3  A    between atoms: N_3  and  N_5 
ROOT
ATOM      1  C   UNL d   1      58.688  -0.180  29.245  0.00  0.00     0.060 A 
ATOM      2  C   UNL d   1      58.665  -0.957  28.981  0.00  0.00     0.012 A 
ATOM      3  C   UNL d   1      59.352  -1.414  28.958  0.00  0.00     0.035 A 
ATOM      4 BR   UNL d   1      59.316  -2.197  28.689  0.00  0.00    -0.049 Br
ATOM      5  C   UNL d   1      59.412   0.153  29.493  0.00  0.00     0.005 A 
ATOM      6  C   UNL d   1      60.093  -0.302  29.470  0.00  0.00     0.001 A 
ATOM      7  C   UNL d   1      60.059  -1.090  29.200  0.00  0.00     0.007 A 
ENDROOT
BRANCH   1   8
ATOM      8  C   UNL d   1      57.989   0.268  29.263  0.00  0.00     0.297 C 
ATOM      9  N   UNL d   1      57.556   0.303  29.946  0.00  0.00    -0.103 NA
ATOM     10  O   UNL d   1      57.743   0.674  28.578  0.00  0.00    -0.264 OA
BRANCH   9  11
ATOM     11  N   UNL d   1      57.807  -0.098  30.604  0.00  0.00    -0.112 NA
BRANCH  11  12
ATOM     12  C   UNL d   1      57.342  -0.103  31.284  0.00  0.00     0.260 C 
ATOM     13  S   UNL d   1      57.271   0.586  31.743  0.00  0.00    -0.034 SA
ATOM     14  N   UNL d   1      56.948  -0.790  31.509  0.00  0.00    -0.113 N 
ENDBRANCH  11  12
ENDBRANCH   9  11
ENDBRANCH   1   8
TORSDOF 3
ENDMDL
MODEL 7
REMARK VINA RESULT:      -3.0      2.754      3.465
REMARK  3 active torsions:
REMARK  status: ('A' for Active; 'I' for Inactive)
REMARK    1  A    between atoms: N_5  and  C_1 
REMARK       I    between atoms: C_2  and  N_3 
REMARK    2  A    between atoms: C_4  and  C_2 
REMARK    3  A    between atoms: N_3  and  N_5 
ROOT
ATOM      1  C   UNL d   1      58.116   0.233  30.179  0.00  0.00     0.060 A 
ATOM      2  C   UNL d   1      57.476  -0.015  30.630  0.00  0.00     0.012 A 
ATOM      3  C   UNL d   1      57.476   0.082  31.450  0.00  0.00     0.035 A 
ATOM      4 BR   UNL d   1      56.825  -0.172  31.895  0.00  0.00    -0.049 Br
ATOM      5  C   UNL d   1      58.774   0.586  30.551  0.00  0.00     0.005 A 
ATOM      6  C   UNL d   1      58.773   0.682  31.365  0.00  0.00     0.001 A 
ATOM      7  C   UNL d   1      58.118   0.427  31.813  0.00  0.00     0.007 A 
ENDROOT
BRANCH   1   8
ATOM      8  C   UNL d   1      58.101   0.129  29.355  0.00  0.00     0.297 C 
ATOM      9  N   UNL d   1      58.477  -0.508  29.028  0.00  0.00    -0.103 NA
ATOM     10  O   UNL d   1      57.699   0.682  28.878  0.00  0.00    -0.264 OA
BRANCH   9  11
ATOM     11  N   UNL d   1      58.863  -1.037  29.504  0.00  0.00    -0.112 NA
BRANCH  11  12
ATOM     12  C   UNL d   1      59.201  -1.714  29.178  0.00  0.00     0.260 C 
ATOM     13  S   UNL d   1      59.940  -1.668  28.801  0.00  0.00    -0.034 SA
ATOM     14  N   UNL d   1      58.807  -2.435  29.224  0.00  0.00    -0.113 N 
ENDBRANCH  11  12
ENDBRANCH   9  11
ENDBRANCH   1   8
TORSDOF 3
ENDMDL
MODEL 8
REMARK VINA RESULT:      -2.5      2.621      3.993
REMARK  3 active torsions:
REMARK  status: ('A' for Active; 'I' for Inactive)
REMARK    1  A    between atoms: N_5  and  C_1 
REMARK       I    between atoms: C_2  and  N_3 
REMARK    2  A    between atoms: C_4  and  C_2 
REMARK    3  A    between atoms: N_3  and  N_5 
ROOT
ATOM      1  C   UNL d   1      58.649   0.150  30.085  0.00  0.00     0.060 A 
ATOM      2  C   UNL d   1      58.930  -0.558  29.777  0.00  0.00     0.012 A 
ATOM      3  C   UNL d   1      58.808  -0.750  28.984  0.00  0.00     0.035 A 
ATOM      4 BR   UNL d   1      59.096  -1.467  28.685  0.00  0.00    -0.049 Br
ATOM      5  C   UNL d   1      58.236   0.682  29.592  0.00  0.00     0.005 A 
ATOM      6  C   UNL d   1      58.116   0.490  28.804  0.00  0.00     0.001 A 
ATOM      7  C   UNL d   1      58.406  -0.231  28.502  0.00  0.00     0.007 A 
ENDROOT
BRANCH   1   8
ATOM      8  C   UNL d   1      58.779   0.329  30.885  0.00  0.00     0.297 C 
ATOM      9  N   UNL d   1      58.176   0.238  31.416  0.00  0.00    -0.103 NA
ATOM     10  O   UNL d   1      59.529   0.600  31.130  0.00  0.00    -0.264 OA
BRANCH   9  11
ATOM     11  N   UNL d   1      57.453  -0.026  31.164  0.00  0.00    -0.112 NA
BRANCH  11  12
ATOM     12  C   UNL d   1      56.853  -0.165  31.711  0.00  0.00     0.260 C 
ATOM     13  S   UNL d   1      56.478   0.474  32.087  0.00  0.00    -0.034 SA
ATOM     14  N   UNL d   1      56.624  -0.936  31.886  0.00  0.00    -0.113 N 
ENDBRANCH  11  12
ENDBRANCH   9  11
ENDBRANCH   1   8
TORSDOF 3
ENDMDL
MODEL 9
REMARK VINA RESULT:      -2.5      4.168      4.876
REMARK  3 active torsions:
REMARK  status: ('A' for Active; 'I' for Inactive)
REMARK    1  A    between atoms: N_5  and  C_1 
REMARK       I    between atoms: C_2  and  N_3 
REMARK    2  A    between atoms: C_4  and  C_2 
REMARK    3  A    between atoms: N_3  and  N_5 
ROOT
ATOM      1  C   UNL d   1      58.727  -0.673  29.521  0.00  0.00     0.060 A 
ATOM      2  C   UNL d   1      59.345  -0.336  29.944  0.00  0.00     0.012 A 
ATOM      3  C   UNL d   1      59.777   0.294  29.630  0.00  0.00     0.035 A 
ATOM      4 BR   UNL d   1      60.398   0.625  30.067  0.00  0.00    -0.049 Br
ATOM      5  C   UNL d   1      58.532  -0.376  28.766  0.00  0.00     0.005 A 
ATOM      6  C   UNL d   1      58.961   0.249  28.455  0.00  0.00     0.001 A 
ATOM      7  C   UNL d   1      59.586   0.583  28.893  0.00  0.00     0.007 A 
ENDROOT
BRANCH   1   8
ATOM      8  C   UNL d   1      58.303  -1.306  29.850  0.00  0.00     0.297 C 
ATOM      9  N   UNL d   1      58.500  -2.064  29.650  0.00  0.00    -0.103 NA
ATOM     10  O   UNL d   1      57.679  -1.151  30.382  0.00  0.00    -0.264 OA
BRANCH   9  11
ATOM     11  N   UNL d   1      59.108  -2.200  29.132  0.00  0.00    -0.112 NA
BRANCH  11  12
ATOM     12  C   UNL d   1      59.294  -2.971  28.909  0.00  0.00     0.260 C 
ATOM     13  S   UNL d   1      60.062  -3.264  29.031  0.00  0.00    -0.034 SA
ATOM     14  N   UNL d   1      58.721  -3.451  28.566  0.00  0.00    -0.113 N 
ENDBRANCH  11  12
ENDBRANCH   9  11
ENDBRANCH   1   8
TORSDOF 3
ENDMDL
