MODEL 1
REMARK VINA RESULT:      40.9      0.000      0.000
REMARK  6 active torsions:
REMARK  status: ('A' for Active; 'I' for Inactive)
REMARK    1  A    between atoms: C_2  and  C_1 
REMARK    2  A    between atoms: C_6  and  C_1 
REMARK       I    between atoms: N_10  and  C_2 
REMARK    3  A    between atoms: C_14  and  C_3 
REMARK    4  A    between atoms: C_4  and  C_12 
REMARK    5  A    between atoms: C_7  and  C_6 
REMARK    6  A    between atoms: C_15  and  N_10 
ROOT
ATOM      1  C   UNL d   1      13.270  12.655  -4.270  0.00  0.00     0.128 C 
ATOM      2  C   UNL d   1      13.727  12.251  -4.817  0.00  0.00     0.106 C 
ATOM      3  N   UNL d   1      14.179  11.858  -5.382  0.00  0.00    -0.191 NA
ENDROOT
BRANCH   1   4
ATOM      4  C   UNL d   1      13.325  12.422  -3.459  0.00  0.00     0.289 C 
ATOM      5  N   UNL d   1      13.850  12.750  -2.966  0.00  0.00    -0.207 NA
ATOM      6  O   UNL d   1      12.795  11.819  -3.175  0.00  0.00    -0.264 OA
BRANCH   5   7
ATOM      7  C   UNL d   1      13.899  12.516  -2.168  0.00  0.00     0.085 A 
ATOM      8  C   UNL d   1      14.522  12.792  -1.684  0.00  0.00     0.023 A 
ATOM      9  C   UNL d   1      14.580  12.570  -0.903  0.00  0.00     0.073 A 
ATOM     10  C   UNL d   1      14.012  12.057  -0.564  0.00  0.00     0.004 A 
ATOM     11  C   UNL d   1      13.390  11.779  -1.041  0.00  0.00     0.002 A 
ATOM     12  C   UNL d   1      13.347  12.013  -1.826  0.00  0.00     0.019 A 
BRANCH   9  13
ATOM     13  C   UNL d   1      15.195  12.858  -0.469  0.00  0.00     0.419 C 
ATOM     14  F   UNL d   1      15.844  13.083  -0.018  0.00  0.00    -0.166 F 
ATOM     15  F   UNL d   1      15.301  13.740  -0.321  0.00  0.00    -0.166 F 
ATOM     16  F   UNL d   1      15.685  12.336  -0.189  0.00  0.00    -0.166 F 
ENDBRANCH   9  13
ENDBRANCH   5   7
ENDBRANCH   1   4
BRANCH   1  17
ATOM     17  C   UNL d   1      12.769  13.269  -4.488  0.00  0.00     0.040 C 
BRANCH  17  18
ATOM     18  C   UNL d   1      13.051  14.059  -4.489  0.00  0.00     0.101 A 
ATOM     19  O   UNL d   1      13.666  14.337  -3.998  0.00  0.00    -0.307 OA
ATOM     20  C   UNL d   1      13.762  15.140  -4.181  0.00  0.00     0.100 A 
ATOM     21  C   UNL d   1      13.202  15.339  -4.783  0.00  0.00     0.027 A 
ATOM     22  C   UNL d   1      12.776  14.653  -4.955  0.00  0.00     0.027 A 
BRANCH  20  23
ATOM     23  C   UNL d   1      14.289  15.721  -3.877  0.00  0.00     0.024 A 
ATOM     24  C   UNL d   1      14.338  15.924  -3.075  0.00  0.00     0.013 A 
ATOM     25  C   UNL d   1      14.878  16.513  -2.799  0.00  0.00     0.058 A 
ATOM     26 CL   UNL d   1      14.895  16.690  -1.971  0.00  0.00    -0.082 Cl
ATOM     27  C   UNL d   1      15.365  16.891  -3.341  0.00  0.00     0.011 A 
ATOM     28  C   UNL d   1      15.336  16.709  -4.128  0.00  0.00     0.001 A 
ATOM     29  C   UNL d   1      14.832  16.154  -4.419  0.00  0.00     0.002 A 
ENDBRANCH  20  23
ENDBRANCH  17  18
ENDBRANCH   1  17
TORSDOF 6
ENDMDL
MODEL 2
REMARK VINA RESULT:      42.4      2.477      3.890
REMARK  6 active torsions:
REMARK  status: ('A' for Active; 'I' for Inactive)
REMARK    1  A    between atoms: C_2  and  C_1 
REMARK    2  A    between atoms: C_6  and  C_1 
REMARK       I    between atoms: N_10  and  C_2 
REMARK    3  A    between atoms: C_14  and  C_3 
REMARK    4  A    between atoms: C_4  and  C_12 
REMARK    5  A    between atoms: C_7  and  C_6 
REMARK    6  A    between atoms: C_15  and  N_10 
ROOT
ATOM      1  C   UNL d   1      14.775  12.454  -1.135  0.00  0.00     0.128 C 
ATOM      2  C   UNL d   1      15.538  12.188  -1.268  0.00  0.00     0.106 C 
ATOM      3  N   UNL d   1      16.297  11.903  -1.409  0.00  0.00    -0.191 NA
ENDROOT
BRANCH   1   4
ATOM      4  C   UNL d   1      14.674  13.242  -0.845  0.00  0.00     0.289 C 
ATOM      5  N   UNL d   1      14.997  13.865  -1.212  0.00  0.00    -0.207 NA
ATOM      6  O   UNL d   1      14.211  13.358  -0.139  0.00  0.00    -0.264 OA
BRANCH   5   7
ATOM      7  C   UNL d   1      14.895  14.639  -0.922  0.00  0.00     0.085 A 
ATOM      8  C   UNL d   1      15.322  15.275  -1.255  0.00  0.00     0.023 A 
ATOM      9  C   UNL d   1      15.230  16.036  -0.979  0.00  0.00     0.073 A 
ATOM     10  C   UNL d   1      14.701  16.199  -0.351  0.00  0.00     0.004 A 
ATOM     11  C   UNL d   1      14.274  15.569  -0.016  0.00  0.00     0.002 A 
ATOM     12  C   UNL d   1      14.379  14.810  -0.306  0.00  0.00     0.019 A 
BRANCH   9  13
ATOM     13  C   UNL d   1      15.659  16.622  -1.327  0.00  0.00     0.419 C 
ATOM     14  F   UNL d   1      16.059  17.210  -1.740  0.00  0.00    -0.166 F 
ATOM     15  F   UNL d   1      16.309  17.062  -0.883  0.00  0.00    -0.166 F 
ATOM     16  F   UNL d   1      15.482  16.785  -2.057  0.00  0.00    -0.166 F 
ENDBRANCH   9  13
ENDBRANCH   5   7
ENDBRANCH   1   4
BRANCH   1  17
ATOM     17  C   UNL d   1      14.117  11.981  -1.272  0.00  0.00     0.040 C 
BRANCH  17  18
ATOM     18  C   UNL d   1      13.710  12.033  -2.004  0.00  0.00     0.101 A 
ATOM     19  O   UNL d   1      14.040  12.353  -2.702  0.00  0.00    -0.307 OA
ATOM     20  C   UNL d   1      13.451  12.295  -3.283  0.00  0.00     0.100 A 
ATOM     21  C   UNL d   1      12.770  11.939  -2.929  0.00  0.00     0.027 A 
ATOM     22  C   UNL d   1      12.957  11.788  -2.140  0.00  0.00     0.027 A 
BRANCH  20  23
ATOM     23  C   UNL d   1      13.446  12.520  -4.094  0.00  0.00     0.024 A 
ATOM     24  C   UNL d   1      13.737  12.044  -4.706  0.00  0.00     0.013 A 
ATOM     25  C   UNL d   1      13.718  12.298  -5.512  0.00  0.00     0.058 A 
ATOM     26 CL   UNL d   1      14.027  11.780  -6.106  0.00  0.00    -0.082 Cl
ATOM     27  C   UNL d   1      13.402  13.035  -5.689  0.00  0.00     0.011 A 
ATOM     28  C   UNL d   1      13.111  13.516  -5.109  0.00  0.00     0.001 A 
ATOM     29  C   UNL d   1      13.116  13.301  -4.334  0.00  0.00     0.002 A 
ENDBRANCH  20  23
ENDBRANCH  17  18
ENDBRANCH   1  17
TORSDOF 6
ENDMDL
