MODEL 1
REMARK VINA RESULT:      40.8      0.000      0.000
REMARK  7 active torsions:
REMARK  status: ('A' for Active; 'I' for Inactive)
REMARK    1  A    between atoms: N_4  and  C_2 
REMARK    2  A    between atoms: C_8  and  C_3 
REMARK       I    between atoms: C_7  and  N_4 
REMARK    3  A    between atoms: C_13  and  C_7 
REMARK    4  A    between atoms: S_11  and  C_16 
REMARK    5  A    between atoms: C_12  and  S_11 
REMARK    6  A    between atoms: C_19  and  C_13 
REMARK    7  A    between atoms: C_16  and  C_19 
ROOT
ATOM      1  N   UNL d   1      12.855  13.836  -4.802  0.00  0.00    -0.183 NA
ATOM      2  C   UNL d   1      13.407  14.456  -4.814  0.00  0.00     0.281 C 
ATOM      3  O   UNL d   1      14.072  14.436  -4.343  0.00  0.00    -0.265 OA
ENDROOT
BRANCH   1   4
ATOM      4  C   UNL d   1      12.988  13.191  -4.302  0.00  0.00     0.197 A 
ATOM      5  N   UNL d   1      13.337  13.224  -3.552  0.00  0.00    -0.219 NA
ATOM      6  C   UNL d   1      13.358  12.453  -3.255  0.00  0.00     0.108 A 
ATOM      7  C   UNL d   1      13.025  11.951  -3.818  0.00  0.00     0.059 A 
ATOM      8  S   UNL d   1      12.795  12.403  -4.467  0.00  0.00    -0.046 SA
BRANCH   6   9
ATOM      9  C   UNL d   1      13.657  12.230  -2.531  0.00  0.00     0.100 A 
ATOM     10  N   UNL d   1      14.469  12.060  -2.451  0.00  0.00    -0.242 NA
ATOM     11  C   UNL d   1      14.764  11.835  -1.713  0.00  0.00     0.099 A 
ATOM     12  C   UNL d   1      14.260  11.779  -1.063  0.00  0.00     0.021 A 
ATOM     13  C   UNL d   1      13.456  11.949  -1.147  0.00  0.00     0.003 A 
ATOM     14  C   UNL d   1      13.155  12.175  -1.885  0.00  0.00     0.021 A 
ENDBRANCH   6   9
ENDBRANCH   1   4
BRANCH   2  15
ATOM     15  C   UNL d   1      13.270  15.101  -5.317  0.00  0.00     0.063 C 
BRANCH  15  16
ATOM     16  C   UNL d   1      13.389  15.872  -5.033  0.00  0.00     0.012 C 
BRANCH  16  17
ATOM     17  C   UNL d   1      13.781  16.428  -5.496  0.00  0.00     0.036 C 
BRANCH  17  18
ATOM     18  S   UNL d   1      13.386  16.817  -6.099  0.00  0.00    -0.086 SA
BRANCH  18  19
ATOM     19  C   UNL d   1      13.443  17.636  -6.170  0.00  0.00     0.029 A 
ATOM     20  C   UNL d   1      14.178  18.005  -6.090  0.00  0.00     0.005 A 
ATOM     21  C   UNL d   1      14.239  18.823  -6.160  0.00  0.00    -0.012 A 
ATOM     22  C   UNL d   1      13.565  19.276  -6.310  0.00  0.00     0.026 A 
ATOM     23  C   UNL d   1      12.832  18.910  -6.389  0.00  0.00    -0.012 A 
ATOM     24  C   UNL d   1      12.770  18.089  -6.319  0.00  0.00     0.005 A 
ENDBRANCH  18  19
ENDBRANCH  17  18
ENDBRANCH  16  17
ENDBRANCH  15  16
ENDBRANCH   2  15
TORSDOF 7
ENDMDL
MODEL 2
REMARK VINA RESULT:      43.6      1.804      2.191
REMARK  7 active torsions:
REMARK  status: ('A' for Active; 'I' for Inactive)
REMARK    1  A    between atoms: N_4  and  C_2 
REMARK    2  A    between atoms: C_8  and  C_3 
REMARK       I    between atoms: C_7  and  N_4 
REMARK    3  A    between atoms: C_13  and  C_7 
REMARK    4  A    between atoms: S_11  and  C_16 
REMARK    5  A    between atoms: C_12  and  S_11 
REMARK    6  A    between atoms: C_19  and  C_13 
REMARK    7  A    between atoms: C_16  and  C_19 
ROOT
ATOM      1  N   UNL d   1      13.000  13.555  -3.753  0.00  0.00    -0.183 NA
ATOM      2  C   UNL d   1      13.263  13.531  -4.540  0.00  0.00     0.281 C 
ATOM      3  O   UNL d   1      13.766  12.942  -4.798  0.00  0.00    -0.265 OA
ENDROOT
BRANCH   1   4
ATOM      4  C   UNL d   1      13.256  12.969  -3.227  0.00  0.00     0.197 A 
ATOM      5  N   UNL d   1      13.645  13.099  -2.509  0.00  0.00    -0.219 NA
ATOM      6  C   UNL d   1      13.794  12.360  -2.171  0.00  0.00     0.108 A 
ATOM      7  C   UNL d   1      13.497  11.781  -2.678  0.00  0.00     0.059 A 
ATOM      8  S   UNL d   1      13.164  12.153  -3.333  0.00  0.00    -0.046 SA
BRANCH   6   9
ATOM      9  C   UNL d   1      14.168  12.229  -1.460  0.00  0.00     0.100 A 
ATOM     10  N   UNL d   1      14.986  12.371  -1.388  0.00  0.00    -0.242 NA
ATOM     11  C   UNL d   1      15.359  12.235  -0.663  0.00  0.00     0.099 A 
ATOM     12  C   UNL d   1      14.925  11.962  -0.018  0.00  0.00     0.021 A 
ATOM     13  C   UNL d   1      14.114  11.823  -0.094  0.00  0.00     0.003 A 
ATOM     14  C   UNL d   1      13.736  11.957  -0.818  0.00  0.00     0.021 A 
ENDBRANCH   6   9
ENDBRANCH   1   4
BRANCH   2  15
ATOM     15  C   UNL d   1      13.006  14.120  -5.064  0.00  0.00     0.063 C 
BRANCH  15  16
ATOM     16  C   UNL d   1      13.497  14.772  -5.219  0.00  0.00     0.012 C 
BRANCH  16  17
ATOM     17  C   UNL d   1      13.701  15.289  -4.613  0.00  0.00     0.036 C 
BRANCH  17  18
ATOM     18  S   UNL d   1      14.222  15.905  -4.752  0.00  0.00    -0.086 SA
BRANCH  18  19
ATOM     19  C   UNL d   1      14.606  16.273  -4.122  0.00  0.00     0.029 A 
ATOM     20  C   UNL d   1      14.383  16.096  -3.346  0.00  0.00     0.005 A 
ATOM     21  C   UNL d   1      14.765  16.462  -2.714  0.00  0.00    -0.012 A 
ATOM     22  C   UNL d   1      15.370  17.005  -2.856  0.00  0.00     0.026 A 
ATOM     23  C   UNL d   1      15.593  17.181  -3.628  0.00  0.00    -0.012 A 
ATOM     24  C   UNL d   1      15.211  16.815  -4.263  0.00  0.00     0.005 A 
ENDBRANCH  18  19
ENDBRANCH  17  18
ENDBRANCH  16  17
ENDBRANCH  15  16
ENDBRANCH   2  15
TORSDOF 7
ENDMDL
