MODEL 1
REMARK VINA RESULT:      -9.3      0.000      0.000
REMARK  4 active torsions:
REMARK  status: ('A' for Active; 'I' for Inactive)
REMARK    1  A    between atoms: C_13  and  C_2 
REMARK       I    between atoms: N_7  and  C_8 
REMARK    2  A    between atoms: C_8  and  C_15 
REMARK    3  A    between atoms: S_14  and  C_10 
REMARK    4  A    between atoms: C_15  and  S_14 
ROOT
ATOM      1  N   UNL d   1      53.090  34.401  54.161  0.00  0.00    -0.191 N 
ATOM      2  C   UNL d   1      52.497  34.833  53.796  0.00  0.00     0.187 A 
ATOM      3  N   UNL d   1      52.543  35.604  54.072  0.00  0.00    -0.127 NA
ATOM      4  C   UNL d   1      53.510  34.892  54.665  0.00  0.00     0.187 A 
ATOM      5  N   UNL d   1      53.310  33.594  54.097  0.00  0.00    -0.156 NA
ATOM      6  N   UNL d   1      53.168  35.649  54.611  0.00  0.00    -0.127 NA
ATOM      7  C   UNL d   1      53.942  33.300  54.538  0.00  0.00     0.131 A 
ATOM      8  C   UNL d   1      54.142  34.598  55.106  0.00  0.00     0.043 A 
ATOM      9  C   UNL d   1      54.358  33.803  55.043  0.00  0.00     0.031 A 
ENDROOT
BRANCH   7  10
ATOM     10  S   UNL d   1      54.158  32.506  54.475  0.00  0.00    -0.061 SA
BRANCH  10  11
ATOM     11  C   UNL d   1      53.576  31.925  54.428  0.00  0.00     0.098 C 
BRANCH  11  12
ATOM     12  C   UNL d   1      53.608  31.282  54.923  0.00  0.00     0.271 C 
ATOM     13  N   UNL d   1      53.432  30.532  54.631  0.00  0.00    -0.273 N 
ATOM     14  C   UNL d   1      53.226  30.439  53.844  0.00  0.00     0.067 A 
ATOM     15  C   UNL d   1      53.466  29.885  55.137  0.00  0.00     0.083 A 
ATOM     16  C   UNL d   1      53.053  29.695  53.560  0.00  0.00     0.016 A 
ATOM     17  C   UNL d   1      53.195  31.091  53.346  0.00  0.00     0.018 A 
ATOM     18  C   UNL d   1      52.844  29.589  52.767  0.00  0.00     0.001 A 
ATOM     19  C   UNL d   1      53.081  29.037  54.048  0.00  0.00     0.003 A 
ATOM     20  C   UNL d   1      52.810  30.238  52.257  0.00  0.00     0.000 A 
ATOM     21  C   UNL d   1      52.987  30.997  52.551  0.00  0.00     0.002 A 
ATOM     22  C   UNL d   1      53.291  29.145  54.845  0.00  0.00     0.019 A 
ATOM     23  O   UNL d   1      53.815  31.375  55.717  0.00  0.00    -0.266 OA
ENDBRANCH  11  12
ENDBRANCH  10  11
ENDBRANCH   7  10
BRANCH   2  24
ATOM     24  C   UNL d   1      51.952  34.554  53.251  0.00  0.00     0.038 A 
ATOM     25  C   UNL d   1      52.130  34.549  52.452  0.00  0.00     0.003 A 
ATOM     26  C   UNL d   1      51.581  34.267  51.900  0.00  0.00     0.000 A 
ATOM     27  C   UNL d   1      50.848  33.990  52.165  0.00  0.00     0.000 A 
ATOM     28  C   UNL d   1      50.664  33.993  52.970  0.00  0.00     0.000 A 
ATOM     29  C   UNL d   1      51.219  34.276  53.516  0.00  0.00     0.003 A 
ENDBRANCH   2  24
TORSDOF 4
ENDMDL
MODEL 2
REMARK VINA RESULT:      -8.3      2.417      5.307
REMARK  4 active torsions:
REMARK  status: ('A' for Active; 'I' for Inactive)
REMARK    1  A    between atoms: C_13  and  C_2 
REMARK       I    between atoms: N_7  and  C_8 
REMARK    2  A    between atoms: C_8  and  C_15 
REMARK    3  A    between atoms: S_14  and  C_10 
REMARK    4  A    between atoms: C_15  and  S_14 
ROOT
ATOM      1  N   UNL d   1      52.671  33.352  53.419  0.00  0.00    -0.191 N 
ATOM      2  C   UNL d   1      53.263  32.795  53.528  0.00  0.00     0.187 A 
ATOM      3  N   UNL d   1      53.945  33.196  53.746  0.00  0.00    -0.127 NA
ATOM      4  C   UNL d   1      52.972  34.098  53.567  0.00  0.00     0.187 A 
ATOM      5  N   UNL d   1      51.866  33.270  53.196  0.00  0.00    -0.156 NA
ATOM      6  N   UNL d   1      53.773  34.003  53.773  0.00  0.00    -0.127 NA
ATOM      7  C   UNL d   1      51.386  33.938  53.128  0.00  0.00     0.131 A 
ATOM      8  C   UNL d   1      52.492  34.766  53.499  0.00  0.00     0.043 A 
ATOM      9  C   UNL d   1      51.700  34.686  53.280  0.00  0.00     0.031 A 
ENDROOT
BRANCH   7  10
ATOM     10  S   UNL d   1      50.593  33.858  52.908  0.00  0.00    -0.061 SA
BRANCH  10  11
ATOM     11  C   UNL d   1      50.191  34.499  52.585  0.00  0.00     0.098 C 
BRANCH  11  12
ATOM     12  C   UNL d   1      49.794  34.413  51.882  0.00  0.00     0.271 C 
ATOM     13  N   UNL d   1      49.062  34.776  51.778  0.00  0.00    -0.273 N 
ATOM     14  C   UNL d   1      48.738  35.221  52.384  0.00  0.00     0.067 A 
ATOM     15  C   UNL d   1      48.666  34.685  51.063  0.00  0.00     0.083 A 
ATOM     16  C   UNL d   1      48.013  35.578  52.276  0.00  0.00     0.016 A 
ATOM     17  C   UNL d   1      49.141  35.306  53.095  0.00  0.00     0.018 A 
ATOM     18  C   UNL d   1      47.676  36.030  52.881  0.00  0.00     0.001 A 
ATOM     19  C   UNL d   1      47.602  35.500  51.572  0.00  0.00     0.003 A 
ATOM     20  C   UNL d   1      48.074  36.122  53.600  0.00  0.00     0.000 A 
ATOM     21  C   UNL d   1      48.814  35.755  53.707  0.00  0.00     0.002 A 
ATOM     22  C   UNL d   1      47.942  35.046  50.964  0.00  0.00     0.019 A 
ATOM     23  O   UNL d   1      50.121  33.964  51.271  0.00  0.00    -0.266 OA
ENDBRANCH  11  12
ENDBRANCH  10  11
ENDBRANCH   7  10
BRANCH   2  24
ATOM     24  C   UNL d   1      53.195  31.984  53.436  0.00  0.00     0.038 A 
ATOM     25  C   UNL d   1      53.027  31.662  52.703  0.00  0.00     0.003 A 
ATOM     26  C   UNL d   1      52.958  30.843  52.608  0.00  0.00     0.000 A 
ATOM     27  C   UNL d   1      53.062  30.350  53.264  0.00  0.00     0.000 A 
ATOM     28  C   UNL d   1      53.232  30.670  54.006  0.00  0.00     0.000 A 
ATOM     29  C   UNL d   1      53.299  31.491  54.093  0.00  0.00     0.003 A 
ENDBRANCH   2  24
TORSDOF 4
ENDMDL
MODEL 3
REMARK VINA RESULT:      -7.1      2.129      5.017
REMARK  4 active torsions:
REMARK  status: ('A' for Active; 'I' for Inactive)
REMARK    1  A    between atoms: C_13  and  C_2 
REMARK       I    between atoms: N_7  and  C_8 
REMARK    2  A    between atoms: C_8  and  C_15 
REMARK    3  A    between atoms: S_14  and  C_10 
REMARK    4  A    between atoms: C_15  and  S_14 
ROOT
ATOM      1  N   UNL d   1      52.881  32.949  53.294  0.00  0.00    -0.191 N 
ATOM      2  C   UNL d   1      53.366  32.288  53.289  0.00  0.00     0.187 A 
ATOM      3  N   UNL d   1      54.143  32.550  53.258  0.00  0.00    -0.127 NA
ATOM      4  C   UNL d   1      53.344  33.624  53.267  0.00  0.00     0.187 A 
ATOM      5  N   UNL d   1      52.046  33.024  53.321  0.00  0.00    -0.156 NA
ATOM      6  N   UNL d   1      54.138  33.375  53.245  0.00  0.00    -0.127 NA
ATOM      7  C   UNL d   1      51.697  33.773  53.321  0.00  0.00     0.131 A 
ATOM      8  C   UNL d   1      52.995  34.372  53.267  0.00  0.00     0.043 A 
ATOM      9  C   UNL d   1      52.173  34.446  53.293  0.00  0.00     0.031 A 
ENDROOT
BRANCH   7  10
ATOM     10  S   UNL d   1      50.875  33.847  53.347  0.00  0.00    -0.061 SA
BRANCH  10  11
ATOM     11  C   UNL d   1      50.506  34.465  52.947  0.00  0.00     0.098 C 
BRANCH  11  12
ATOM     12  C   UNL d   1      49.978  34.941  53.339  0.00  0.00     0.271 C 
ATOM     13  N   UNL d   1      49.278  35.168  52.969  0.00  0.00    -0.273 N 
ATOM     14  C   UNL d   1      49.119  34.912  52.208  0.00  0.00     0.067 A 
ATOM     15  C   UNL d   1      48.748  35.650  53.372  0.00  0.00     0.083 A 
ATOM     16  C   UNL d   1      48.424  35.139  51.846  0.00  0.00     0.016 A 
ATOM     17  C   UNL d   1      49.654  34.430  51.813  0.00  0.00     0.018 A 
ATOM     18  C   UNL d   1      48.252  34.887  51.078  0.00  0.00     0.001 A 
ATOM     19  C   UNL d   1      47.883  35.619  52.230  0.00  0.00     0.003 A 
ATOM     20  C   UNL d   1      48.784  34.401  50.672  0.00  0.00     0.000 A 
ATOM     21  C   UNL d   1      49.492  34.171  51.045  0.00  0.00     0.002 A 
ATOM     22  C   UNL d   1      48.057  35.873  53.002  0.00  0.00     0.019 A 
ATOM     23  O   UNL d   1      50.139  35.199  54.107  0.00  0.00    -0.266 OA
ENDBRANCH  11  12
ENDBRANCH  10  11
ENDBRANCH   7  10
BRANCH   2  24
ATOM     24  C   UNL d   1      53.127  31.505  53.310  0.00  0.00     0.038 A 
ATOM     25  C   UNL d   1      53.247  31.053  53.982  0.00  0.00     0.003 A 
ATOM     26  C   UNL d   1      53.007  30.262  54.006  0.00  0.00     0.000 A 
ATOM     27  C   UNL d   1      52.643  29.930  53.341  0.00  0.00     0.000 A 
ATOM     28  C   UNL d   1      52.520  30.381  52.661  0.00  0.00     0.000 A 
ATOM     29  C   UNL d   1      52.763  31.173  52.645  0.00  0.00     0.003 A 
ENDBRANCH   2  24
TORSDOF 4
ENDMDL
MODEL 4
REMARK VINA RESULT:      -6.7      1.260      2.627
REMARK  4 active torsions:
REMARK  status: ('A' for Active; 'I' for Inactive)
REMARK    1  A    between atoms: C_13  and  C_2 
REMARK       I    between atoms: N_7  and  C_8 
REMARK    2  A    between atoms: C_8  and  C_15 
REMARK    3  A    between atoms: S_14  and  C_10 
REMARK    4  A    between atoms: C_15  and  S_14 
ROOT
ATOM      1  N   UNL d   1      52.844  34.446  53.896  0.00  0.00    -0.191 N 
ATOM      2  C   UNL d   1      53.387  34.738  54.436  0.00  0.00     0.187 A 
ATOM      3  N   UNL d   1      53.212  35.529  54.565  0.00  0.00    -0.127 NA
ATOM      4  C   UNL d   1      52.328  35.046  53.682  0.00  0.00     0.187 A 
ATOM      5  N   UNL d   1      52.750  33.684  53.559  0.00  0.00    -0.156 NA
ATOM      6  N   UNL d   1      52.557  35.728  54.102  0.00  0.00    -0.127 NA
ATOM      7  C   UNL d   1      52.143  33.542  53.018  0.00  0.00     0.131 A 
ATOM      8  C   UNL d   1      51.721  34.904  53.141  0.00  0.00     0.043 A 
ATOM      9  C   UNL d   1      51.629  34.153  52.809  0.00  0.00     0.031 A 
ENDROOT
BRANCH   7  10
ATOM     10  S   UNL d   1      52.051  32.791  52.686  0.00  0.00    -0.061 SA
BRANCH  10  11
ATOM     11  C   UNL d   1      52.305  32.126  53.100  0.00  0.00     0.098 C 
BRANCH  11  12
ATOM     12  C   UNL d   1      51.784  31.522  53.251  0.00  0.00     0.271 C 
ATOM     13  N   UNL d   1      52.066  30.756  53.362  0.00  0.00    -0.273 N 
ATOM     14  C   UNL d   1      52.869  30.608  53.319  0.00  0.00     0.067 A 
ATOM     15  C   UNL d   1      51.532  30.149  53.515  0.00  0.00     0.083 A 
ATOM     16  C   UNL d   1      53.143  29.848  53.429  0.00  0.00     0.016 A 
ATOM     17  C   UNL d   1      53.394  31.221  53.165  0.00  0.00     0.018 A 
ATOM     18  C   UNL d   1      53.953  29.687  53.387  0.00  0.00     0.001 A 
ATOM     19  C   UNL d   1      52.629  29.230  53.582  0.00  0.00     0.003 A 
ATOM     20  C   UNL d   1      54.490  30.296  53.233  0.00  0.00     0.000 A 
ATOM     21  C   UNL d   1      54.207  31.071  53.121  0.00  0.00     0.002 A 
ATOM     22  C   UNL d   1      51.815  29.393  53.624  0.00  0.00     0.019 A 
ATOM     23  O   UNL d   1      50.973  31.672  53.295  0.00  0.00    -0.266 OA
ENDBRANCH  11  12
ENDBRANCH  10  11
ENDBRANCH   7  10
BRANCH   2  24
ATOM     24  C   UNL d   1      53.998  34.322  54.790  0.00  0.00     0.038 A 
ATOM     25  C   UNL d   1      53.862  33.879  55.465  0.00  0.00     0.003 A 
ATOM     26  C   UNL d   1      54.476  33.458  55.824  0.00  0.00     0.000 A 
ATOM     27  C   UNL d   1      55.234  33.489  55.492  0.00  0.00     0.000 A 
ATOM     28  C   UNL d   1      55.377  33.934  54.813  0.00  0.00     0.000 A 
ATOM     29  C   UNL d   1      54.756  34.353  54.459  0.00  0.00     0.003 A 
ENDBRANCH   2  24
TORSDOF 4
ENDMDL
MODEL 5
REMARK VINA RESULT:      -6.5      3.092      5.926
REMARK  4 active torsions:
REMARK  status: ('A' for Active; 'I' for Inactive)
REMARK    1  A    between atoms: C_13  and  C_2 
REMARK       I    between atoms: N_7  and  C_8 
REMARK    2  A    between atoms: C_8  and  C_15 
REMARK    3  A    between atoms: S_14  and  C_10 
REMARK    4  A    between atoms: C_15  and  S_14 
ROOT
ATOM      1  N   UNL d   1      51.629  33.842  53.331  0.00  0.00    -0.191 N 
ATOM      2  C   UNL d   1      52.307  33.933  53.782  0.00  0.00     0.187 A 
ATOM      3  N   UNL d   1      52.543  33.188  54.033  0.00  0.00    -0.127 NA
ATOM      4  C   UNL d   1      51.434  33.048  53.295  0.00  0.00     0.187 A 
ATOM      5  N   UNL d   1      51.146  34.402  52.934  0.00  0.00    -0.156 NA
ATOM      6  N   UNL d   1      52.007  32.634  53.735  0.00  0.00    -0.127 NA
ATOM      7  C   UNL d   1      50.482  34.151  52.512  0.00  0.00     0.131 A 
ATOM      8  C   UNL d   1      50.771  32.797  52.873  0.00  0.00     0.043 A 
ATOM      9  C   UNL d   1      50.295  33.348  52.482  0.00  0.00     0.031 A 
ENDROOT
BRANCH   7  10
ATOM     10  S   UNL d   1      50.007  34.702  52.122  0.00  0.00    -0.061 SA
BRANCH  10  11
ATOM     11  C   UNL d   1      49.237  34.836  52.380  0.00  0.00     0.098 C 
BRANCH  11  12
ATOM     12  C   UNL d   1      48.648  34.978  51.839  0.00  0.00     0.271 C 
ATOM     13  N   UNL d   1      48.021  35.473  52.038  0.00  0.00    -0.273 N 
ATOM     14  C   UNL d   1      47.994  35.819  52.778  0.00  0.00     0.067 A 
ATOM     15  C   UNL d   1      47.429  35.613  51.484  0.00  0.00     0.083 A 
ATOM     16  C   UNL d   1      47.370  36.308  52.970  0.00  0.00     0.016 A 
ATOM     17  C   UNL d   1      48.590  35.674  53.324  0.00  0.00     0.018 A 
ATOM     18  C   UNL d   1      47.332  36.663  53.716  0.00  0.00     0.001 A 
ATOM     19  C   UNL d   1      46.770  36.460  52.434  0.00  0.00     0.003 A 
ATOM     20  C   UNL d   1      47.927  36.523  54.272  0.00  0.00     0.000 A 
ATOM     21  C   UNL d   1      48.562  36.023  54.073  0.00  0.00     0.002 A 
ATOM     22  C   UNL d   1      46.809  36.103  51.684  0.00  0.00     0.019 A 
ATOM     23  O   UNL d   1      48.676  34.629  51.091  0.00  0.00    -0.266 OA
ENDBRANCH  11  12
ENDBRANCH  10  11
ENDBRANCH   7  10
BRANCH   2  24
ATOM     24  C   UNL d   1      52.688  34.637  53.957  0.00  0.00     0.038 A 
ATOM     25  C   UNL d   1      53.251  34.942  53.445  0.00  0.00     0.003 A 
ATOM     26  C   UNL d   1      53.637  35.653  53.619  0.00  0.00     0.000 A 
ATOM     27  C   UNL d   1      53.448  36.055  54.318  0.00  0.00     0.000 A 
ATOM     28  C   UNL d   1      52.883  35.751  54.836  0.00  0.00     0.000 A 
ATOM     29  C   UNL d   1      52.500  35.039  54.655  0.00  0.00     0.003 A 
ENDBRANCH   2  24
TORSDOF 4
ENDMDL
