MODEL 1
REMARK VINA RESULT:      -4.1      0.000      0.000
REMARK  2 active torsions:
REMARK  status: ('A' for Active; 'I' for Inactive)
REMARK    1  A    between atoms: N_2  and  C_9 
REMARK    2  A    between atoms: C_11  and  C_7 
ROOT
ATOM      1  C   UNL d   1      58.696   0.331  30.837  0.00  0.00     0.110 A 
ATOM      2  C   UNL d   1      59.881   0.567  31.401  0.00  0.00     0.332 A 
ATOM      3  C   UNL d   1      59.240   0.463  30.240  0.00  0.00     0.060 A 
ATOM      4  S   UNL d   1      59.968   0.608  30.582  0.00  0.00    -0.018 SA
ATOM      5  O   UNL d   1      59.084   0.394  31.553  0.00  0.00    -0.268 OA
ATOM      6  C   UNL d   1      57.910   0.169  30.655  0.00  0.00     0.027 A 
ATOM      7  C   UNL d   1      58.990   0.431  29.439  0.00  0.00     0.051 A 
ATOM      8  C   UNL d   1      57.660   0.137  29.870  0.00  0.00     0.044 A 
ATOM      9  O   UNL d   1      60.474   0.678  31.964  0.00  0.00    -0.251 OA
ATOM     10  C   UNL d   1      58.198   0.268  29.267  0.00  0.00     0.196 A 
ATOM     11  O   UNL d   1      57.952   0.237  28.470  0.00  0.00    -0.286 OA
ENDROOT
BRANCH   6  12
ATOM     12  C   UNL d   1      57.365   0.037  31.260  0.00  0.00     0.002 A 
ATOM     13  C   UNL d   1      56.985   0.682  31.615  0.00  0.00     0.002 A 
ATOM     14  C   UNL d   1      56.435   0.553  32.224  0.00  0.00     0.024 A 
ATOM     15  C   UNL d   1      56.271  -0.220  32.473  0.00  0.00     0.127 A 
ATOM     16  C   UNL d   1      56.650  -0.858  32.118  0.00  0.00     0.024 A 
ATOM     17  C   UNL d   1      57.199  -0.729  31.510  0.00  0.00     0.002 A 
BRANCH  15  18
ATOM     18  N   UNL d   1      55.720  -0.355  33.084  0.00  0.00    -0.114 N 
ATOM     19  O   UNL d   1      55.309  -1.068  33.114  0.00  0.00    -0.532 OA
ATOM     20  O   UNL d   1      55.588   0.222  33.655  0.00  0.00    -0.532 OA
ENDBRANCH  15  18
ENDBRANCH   6  12
TORSDOF 2
ENDMDL
MODEL 2
REMARK VINA RESULT:      -3.7      1.993      3.701
REMARK  2 active torsions:
REMARK  status: ('A' for Active; 'I' for Inactive)
REMARK    1  A    between atoms: N_2  and  C_9 
REMARK    2  A    between atoms: C_11  and  C_7 
ROOT
ATOM      1  C   UNL d   1      56.977   0.338  33.365  0.00  0.00     0.110 A 
ATOM      2  C   UNL d   1      57.920   0.569  34.278  0.00  0.00     0.332 A 
ATOM      3  C   UNL d   1      56.607   0.479  34.082  0.00  0.00     0.060 A 
ATOM      4  S   UNL d   1      57.183   0.621  34.644  0.00  0.00    -0.018 SA
ATOM      5  O   UNL d   1      57.783   0.392  33.479  0.00  0.00    -0.268 OA
ATOM      6  C   UNL d   1      56.531   0.177  32.692  0.00  0.00     0.027 A 
ATOM      7  C   UNL d   1      55.769   0.457  34.125  0.00  0.00     0.051 A 
ATOM      8  C   UNL d   1      55.708   0.155  32.730  0.00  0.00     0.044 A 
ATOM      9  O   UNL d   1      58.656   0.673  34.638  0.00  0.00    -0.251 OA
ATOM     10  C   UNL d   1      55.331   0.295  33.444  0.00  0.00     0.196 A 
ATOM     11  O   UNL d   1      54.498   0.274  33.490  0.00  0.00    -0.286 OA
ENDROOT
BRANCH   6  12
ATOM     12  C   UNL d   1      56.907   0.036  31.972  0.00  0.00     0.002 A 
ATOM     13  C   UNL d   1      57.225   0.671  31.545  0.00  0.00     0.002 A 
ATOM     14  C   UNL d   1      57.604   0.533  30.820  0.00  0.00     0.024 A 
ATOM     15  C   UNL d   1      57.662  -0.240  30.526  0.00  0.00     0.127 A 
ATOM     16  C   UNL d   1      57.345  -0.868  30.952  0.00  0.00     0.024 A 
ATOM     17  C   UNL d   1      56.966  -0.730  31.677  0.00  0.00     0.002 A 
BRANCH  15  18
ATOM     18  N   UNL d   1      58.042  -0.384  29.798  0.00  0.00    -0.114 N 
ATOM     19  O   UNL d   1      57.885   0.101  29.151  0.00  0.00    -0.532 OA
ATOM     20  O   UNL d   1      58.571  -1.010  29.727  0.00  0.00    -0.532 OA
ENDBRANCH  15  18
ENDBRANCH   6  12
TORSDOF 2
ENDMDL
