MODEL 1
REMARK VINA RESULT:      -1.8      0.000      0.000
REMARK  4 active torsions:
REMARK  status: ('A' for Active; 'I' for Inactive)
REMARK       I    between atoms: N_3  and  C_1 
REMARK    1  A    between atoms: C_9  and  C_1 
REMARK    2  A    between atoms: C_2  and  N_3 
REMARK    3  A    between atoms: O_15  and  C_6 
REMARK    4  A    between atoms: O_16  and  C_8 
ROOT
ATOM      1  C   UNL d   1      33.135  20.120 -23.018  0.00  0.00     0.109 A 
ATOM      2  C   UNL d   1      33.030  19.348 -22.758  0.00  0.00     0.046 A 
ATOM      3  C   UNL d   1      33.031  19.680 -24.378  0.00  0.00     0.039 A 
ATOM      4  C   UNL d   1      33.135  20.283 -23.836  0.00  0.00     0.113 A 
ATOM      5  C   UNL d   1      32.923  18.894 -24.113  0.00  0.00     0.082 A 
ATOM      6  C   UNL d   1      32.924  18.737 -23.302  0.00  0.00     0.106 A 
ATOM      7 CL   UNL d   1      32.818  18.284 -24.661  0.00  0.00    -0.080 Cl
ENDROOT
BRANCH   1   8
ATOM      8  N   UNL d   1      33.240  20.728 -22.473  0.00  0.00    -0.206 NA
ATOM      9  C   UNL d   1      32.733  20.792 -21.829  0.00  0.00     0.279 C 
ATOM     10  O   UNL d   1      32.120  20.249 -21.729  0.00  0.00    -0.265 OA
BRANCH   9  11
ATOM     11  C   UNL d   1      32.831  21.397 -21.280  0.00  0.00     0.058 A 
ATOM     12  C   UNL d   1      33.140  21.233 -20.533  0.00  0.00     0.006 A 
ATOM     13  C   UNL d   1      33.239  21.839 -19.979  0.00  0.00     0.012 A 
ATOM     14  C   UNL d   1      33.025  22.609 -20.182  0.00  0.00     0.058 A 
ATOM     15  C   UNL d   1      32.715  22.776 -20.930  0.00  0.00     0.012 A 
ATOM     16 CL   UNL d   1      33.121  23.221 -19.635  0.00  0.00    -0.082 Cl
ATOM     17  C   UNL d   1      32.621  22.165 -21.474  0.00  0.00     0.006 A 
ENDBRANCH   9  11
ENDBRANCH   1   8
BRANCH   4  18
ATOM     18  O   UNL d   1      33.241  21.059 -24.093  0.00  0.00    -0.327 OA
ATOM     19  C   UNL d   1      32.955  21.287 -24.834  0.00  0.00     0.181 C 
ENDBRANCH   4  18
BRANCH   6  20
ATOM     20  O   UNL d   1      32.818  17.954 -23.038  0.00  0.00    -0.327 OA
ATOM     21  C   UNL d   1      33.211  17.702 -22.363  0.00  0.00     0.181 C 
ENDBRANCH   6  20
TORSDOF 4
ENDMDL
MODEL 2
REMARK VINA RESULT:      -0.9      3.828      5.854
REMARK  4 active torsions:
REMARK  status: ('A' for Active; 'I' for Inactive)
REMARK       I    between atoms: N_3  and  C_1 
REMARK    1  A    between atoms: C_9  and  C_1 
REMARK    2  A    between atoms: C_2  and  N_3 
REMARK    3  A    between atoms: O_15  and  C_6 
REMARK    4  A    between atoms: O_16  and  C_8 
ROOT
ATOM      1  C   UNL d   1      31.133  17.160 -24.122  0.00  0.00     0.109 A 
ATOM      2  C   UNL d   1      31.121  17.903 -24.470  0.00  0.00     0.046 A 
ATOM      3  C   UNL d   1      32.551  17.088 -24.315  0.00  0.00     0.039 A 
ATOM      4  C   UNL d   1      31.857  16.752 -24.046  0.00  0.00     0.113 A 
ATOM      5  C   UNL d   1      32.538  17.846 -24.670  0.00  0.00     0.082 A 
ATOM      6  C   UNL d   1      31.820  18.246 -24.743  0.00  0.00     0.106 A 
ATOM      7 CL   UNL d   1      33.241  18.187 -24.942  0.00  0.00    -0.080 Cl
ENDROOT
BRANCH   1   8
ATOM      8  N   UNL d   1      30.434  16.820 -23.850  0.00  0.00    -0.206 NA
ATOM      9  C   UNL d   1      29.772  16.801 -24.338  0.00  0.00     0.279 C 
ATOM     10  O   UNL d   1      29.808  17.121 -25.097  0.00  0.00    -0.265 OA
BRANCH   9  11
ATOM     11  C   UNL d   1      29.070  16.463 -24.074  0.00  0.00     0.058 A 
ATOM     12  C   UNL d   1      28.647  15.950 -24.563  0.00  0.00     0.006 A 
ATOM     13  C   UNL d   1      27.941  15.610 -24.300  0.00  0.00     0.012 A 
ATOM     14  C   UNL d   1      27.664  15.789 -23.544  0.00  0.00     0.058 A 
ATOM     15  C   UNL d   1      28.086  16.302 -23.052  0.00  0.00     0.012 A 
ATOM     16 CL   UNL d   1      26.960  15.453 -23.273  0.00  0.00    -0.082 Cl
ATOM     17  C   UNL d   1      28.788  16.635 -23.324  0.00  0.00     0.006 A 
ENDBRANCH   9  11
ENDBRANCH   1   8
BRANCH   4  18
ATOM     18  O   UNL d   1      31.865  16.006 -23.695  0.00  0.00    -0.327 OA
ATOM     19  C   UNL d   1      32.474  15.806 -23.174  0.00  0.00     0.181 C 
ENDBRANCH   4  18
BRANCH   6  20
ATOM     20  O   UNL d   1      31.807  19.000 -25.097  0.00  0.00    -0.327 OA
ATOM     21  C   UNL d   1      32.082  19.646 -24.670  0.00  0.00     0.181 C 
ENDBRANCH   6  20
TORSDOF 4
ENDMDL
MODEL 3
REMARK VINA RESULT:      -0.8      1.565      4.442
REMARK  4 active torsions:
REMARK  status: ('A' for Active; 'I' for Inactive)
REMARK       I    between atoms: N_3  and  C_1 
REMARK    1  A    between atoms: C_9  and  C_1 
REMARK    2  A    between atoms: C_2  and  N_3 
REMARK    3  A    between atoms: O_15  and  C_6 
REMARK    4  A    between atoms: O_16  and  C_8 
ROOT
ATOM      1  C   UNL d   1      33.161  19.985 -23.120  0.00  0.00     0.109 A 
ATOM      2  C   UNL d   1      33.211  20.467 -23.782  0.00  0.00     0.046 A 
ATOM      3  C   UNL d   1      33.069  21.141 -22.279  0.00  0.00     0.039 A 
ATOM      4  C   UNL d   1      33.089  20.329 -22.364  0.00  0.00     0.113 A 
ATOM      5  C   UNL d   1      33.120  21.633 -22.954  0.00  0.00     0.082 A 
ATOM      6  C   UNL d   1      33.190  21.289 -23.701  0.00  0.00     0.106 A 
ATOM      7 CL   UNL d   1      33.099  22.455 -22.868  0.00  0.00    -0.080 Cl
ENDROOT
BRANCH   1   8
ATOM      8  N   UNL d   1      33.181  19.167 -23.204  0.00  0.00    -0.206 NA
ATOM      9  C   UNL d   1      32.566  18.778 -23.588  0.00  0.00     0.279 C 
ATOM     10  O   UNL d   1      31.930  19.209 -23.889  0.00  0.00    -0.265 OA
BRANCH   9  11
ATOM     11  C   UNL d   1      32.579  17.961 -23.676  0.00  0.00     0.058 A 
ATOM     12  C   UNL d   1      31.949  17.504 -23.403  0.00  0.00     0.006 A 
ATOM     13  C   UNL d   1      31.959  16.682 -23.490  0.00  0.00     0.012 A 
ATOM     14  C   UNL d   1      32.607  16.324 -23.854  0.00  0.00     0.058 A 
ATOM     15  C   UNL d   1      33.240  16.780 -24.129  0.00  0.00     0.012 A 
ATOM     16 CL   UNL d   1      32.626  15.503 -23.946  0.00  0.00    -0.082 Cl
ATOM     17  C   UNL d   1      33.219  17.597 -24.037  0.00  0.00     0.006 A 
ENDBRANCH   9  11
ENDBRANCH   1   8
BRANCH   4  18
ATOM     18  O   UNL d   1      33.039  19.840 -21.701  0.00  0.00    -0.327 OA
ATOM     19  C   UNL d   1      32.971  20.177 -20.949  0.00  0.00     0.181 C 
ENDBRANCH   4  18
BRANCH   6  20
ATOM     20  O   UNL d   1      33.241  21.778 -24.373  0.00  0.00    -0.327 OA
ATOM     21  C   UNL d   1      32.649  21.741 -24.940  0.00  0.00     0.181 C 
ENDBRANCH   6  20
TORSDOF 4
ENDMDL
MODEL 4
REMARK VINA RESULT:      -0.7      2.418      3.767
REMARK  4 active torsions:
REMARK  status: ('A' for Active; 'I' for Inactive)
REMARK       I    between atoms: N_3  and  C_1 
REMARK    1  A    between atoms: C_9  and  C_1 
REMARK    2  A    between atoms: C_2  and  N_3 
REMARK    3  A    between atoms: O_15  and  C_6 
REMARK    4  A    between atoms: O_16  and  C_8 
ROOT
ATOM      1  C   UNL d   1      32.877  22.126 -20.572  0.00  0.00     0.109 A 
ATOM      2  C   UNL d   1      32.732  22.805 -21.011  0.00  0.00     0.046 A 
ATOM      3  C   UNL d   1      32.784  21.332 -21.761  0.00  0.00     0.039 A 
ATOM      4  C   UNL d   1      32.902  21.386 -20.954  0.00  0.00     0.113 A 
ATOM      5  C   UNL d   1      32.637  22.024 -22.208  0.00  0.00     0.082 A 
ATOM      6  C   UNL d   1      32.613  22.755 -21.826  0.00  0.00     0.106 A 
ATOM      7 CL   UNL d   1      32.517  21.971 -23.025  0.00  0.00    -0.080 Cl
ENDROOT
BRANCH   1   8
ATOM      8  N   UNL d   1      32.995  22.178 -19.759  0.00  0.00    -0.206 NA
ATOM      9  C   UNL d   1      32.773  22.860 -19.355  0.00  0.00     0.279 C 
ATOM     10  O   UNL d   1      32.432  23.490 -19.764  0.00  0.00    -0.265 OA
BRANCH   9  11
ATOM     11  C   UNL d   1      32.889  22.920 -18.544  0.00  0.00     0.058 A 
ATOM     12  C   UNL d   1      32.769  22.264 -18.057  0.00  0.00     0.006 A 
ATOM     13  C   UNL d   1      32.884  22.323 -17.241  0.00  0.00     0.012 A 
ATOM     14  C   UNL d   1      33.120  23.044 -16.918  0.00  0.00     0.058 A 
ATOM     15  C   UNL d   1      33.241  23.702 -17.403  0.00  0.00     0.012 A 
ATOM     16 CL   UNL d   1      33.238  23.111 -16.103  0.00  0.00    -0.082 Cl
ATOM     17  C   UNL d   1      33.123  23.633 -18.214  0.00  0.00     0.006 A 
ENDBRANCH   9  11
ENDBRANCH   1   8
BRANCH   4  18
ATOM     18  O   UNL d   1      33.047  20.706 -20.510  0.00  0.00    -0.327 OA
ATOM     19  C   UNL d   1      33.174  19.986 -20.894  0.00  0.00     0.181 C 
ENDBRANCH   4  18
BRANCH   6  20
ATOM     20  O   UNL d   1      32.466  23.444 -22.271  0.00  0.00    -0.327 OA
ATOM     21  C   UNL d   1      32.870  23.557 -22.977  0.00  0.00     0.181 C 
ENDBRANCH   6  20
TORSDOF 4
ENDMDL
MODEL 5
REMARK VINA RESULT:      -0.5      1.455      4.239
REMARK  4 active torsions:
REMARK  status: ('A' for Active; 'I' for Inactive)
REMARK       I    between atoms: N_3  and  C_1 
REMARK    1  A    between atoms: C_9  and  C_1 
REMARK    2  A    between atoms: C_2  and  N_3 
REMARK    3  A    between atoms: O_15  and  C_6 
REMARK    4  A    between atoms: O_16  and  C_8 
ROOT
ATOM      1  C   UNL d   1      33.239  19.922 -23.213  0.00  0.00     0.109 A 
ATOM      2  C   UNL d   1      33.238  20.023 -22.399  0.00  0.00     0.046 A 
ATOM      3  C   UNL d   1      33.239  21.344 -23.393  0.00  0.00     0.039 A 
ATOM      4  C   UNL d   1      33.240  20.591 -23.711  0.00  0.00     0.113 A 
ATOM      5  C   UNL d   1      33.237  21.446 -22.563  0.00  0.00     0.082 A 
ATOM      6  C   UNL d   1      33.237  20.781 -22.073  0.00  0.00     0.106 A 
ATOM      7 CL   UNL d   1      33.236  22.208 -22.241  0.00  0.00    -0.080 Cl
ENDROOT
BRANCH   1   8
ATOM      8  N   UNL d   1      33.240  19.165 -23.535  0.00  0.00    -0.206 NA
ATOM      9  C   UNL d   1      32.672  18.619 -23.300  0.00  0.00     0.279 C 
ATOM     10  O   UNL d   1      32.102  18.830 -22.742  0.00  0.00    -0.265 OA
BRANCH   9  11
ATOM     11  C   UNL d   1      32.666  17.860 -23.616  0.00  0.00     0.058 A 
ATOM     12  C   UNL d   1      33.186  17.287 -23.330  0.00  0.00     0.006 A 
ATOM     13  C   UNL d   1      33.182  16.523 -23.647  0.00  0.00     0.012 A 
ATOM     14  C   UNL d   1      32.652  16.340 -24.252  0.00  0.00     0.058 A 
ATOM     15  C   UNL d   1      32.129  16.913 -24.539  0.00  0.00     0.012 A 
ATOM     16 CL   UNL d   1      32.640  15.580 -24.574  0.00  0.00    -0.082 Cl
ATOM     17  C   UNL d   1      32.142  17.670 -24.217  0.00  0.00     0.006 A 
ENDBRANCH   9  11
ENDBRANCH   1   8
BRANCH   4  18
ATOM     18  O   UNL d   1      33.241  20.486 -24.530  0.00  0.00    -0.327 OA
ATOM     19  C   UNL d   1      33.160  21.141 -25.026  0.00  0.00     0.181 C 
ENDBRANCH   4  18
BRANCH   6  20
ATOM     20  O   UNL d   1      33.236  20.884 -21.247  0.00  0.00    -0.327 OA
ATOM     21  C   UNL d   1      32.523  20.845 -20.840  0.00  0.00     0.181 C 
ENDBRANCH   6  20
TORSDOF 4
ENDMDL
MODEL 6
REMARK VINA RESULT:      -0.4      0.726      1.856
REMARK  4 active torsions:
REMARK  status: ('A' for Active; 'I' for Inactive)
REMARK       I    between atoms: N_3  and  C_1 
REMARK    1  A    between atoms: C_9  and  C_1 
REMARK    2  A    between atoms: C_2  and  N_3 
REMARK    3  A    between atoms: O_15  and  C_6 
REMARK    4  A    between atoms: O_16  and  C_8 
ROOT
ATOM      1  C   UNL d   1      33.239  20.102 -22.727  0.00  0.00     0.109 A 
ATOM      2  C   UNL d   1      33.240  20.416 -23.486  0.00  0.00     0.046 A 
ATOM      3  C   UNL d   1      33.235  18.776 -23.271  0.00  0.00     0.039 A 
ATOM      4  C   UNL d   1      33.237  19.274 -22.623  0.00  0.00     0.113 A 
ATOM      5  C   UNL d   1      33.236  19.096 -24.044  0.00  0.00     0.082 A 
ATOM      6  C   UNL d   1      33.238  19.916 -24.143  0.00  0.00     0.106 A 
ATOM      7 CL   UNL d   1      33.234  18.592 -24.700  0.00  0.00    -0.080 Cl
ENDROOT
BRANCH   1   8
ATOM      8  N   UNL d   1      33.240  20.602 -22.074  0.00  0.00    -0.206 NA
ATOM      9  C   UNL d   1      32.628  21.141 -21.969  0.00  0.00     0.279 C 
ATOM     10  O   UNL d   1      32.013  21.180 -22.518  0.00  0.00    -0.265 OA
BRANCH   9  11
ATOM     11  C   UNL d   1      32.622  21.645 -21.320  0.00  0.00     0.058 A 
ATOM     12  C   UNL d   1      33.234  22.187 -21.209  0.00  0.00     0.006 A 
ATOM     13  C   UNL d   1      33.230  22.695 -20.556  0.00  0.00     0.012 A 
ATOM     14  C   UNL d   1      32.607  22.653 -20.017  0.00  0.00     0.058 A 
ATOM     15  C   UNL d   1      31.993  22.111 -20.126  0.00  0.00     0.012 A 
ATOM     16 CL   UNL d   1      32.595  23.156 -19.362  0.00  0.00    -0.082 Cl
ATOM     17  C   UNL d   1      32.006  21.610 -20.779  0.00  0.00     0.006 A 
ENDBRANCH   9  11
ENDBRANCH   1   8
BRANCH   4  18
ATOM     18  O   UNL d   1      33.236  18.963 -21.859  0.00  0.00    -0.327 OA
ATOM     19  C   UNL d   1      33.103  18.155 -21.748  0.00  0.00     0.181 C 
ENDBRANCH   4  18
BRANCH   6  20
ATOM     20  O   UNL d   1      33.239  20.234 -24.912  0.00  0.00    -0.327 OA
ATOM     21  C   UNL d   1      32.935  20.987 -25.034  0.00  0.00     0.181 C 
ENDBRANCH   6  20
TORSDOF 4
ENDMDL
