MODEL 1
REMARK VINA RESULT:      -2.8      0.000      0.000
REMARK  3 active torsions:
REMARK  status: ('A' for Active; 'I' for Inactive)
REMARK       I    between atoms: C_2  and  N_1 
REMARK    1  A    between atoms: C_5  and  C_2 
REMARK    2  A    between atoms: S_8  and  C_3 
REMARK    3  A    between atoms: O_13  and  C_11 
ROOT
ATOM      1  N   UNL d   1      30.055  16.771 -24.176  0.00  0.00    -0.251 N 
ATOM      2  C   UNL d   1      30.751  16.457 -23.879  0.00  0.00     0.266 C 
ATOM      3  C   UNL d   1      29.300  16.450 -24.092  0.00  0.00     0.178 A 
ATOM      4  N   UNL d   1      28.776  16.946 -24.475  0.00  0.00    -0.219 NA
ATOM      5  O   UNL d   1      30.740  15.754 -23.449  0.00  0.00    -0.267 OA
ATOM      6  C   UNL d   1      29.991  17.470 -24.616  0.00  0.00     0.106 A 
ATOM      7  C   UNL d   1      29.193  17.574 -24.799  0.00  0.00     0.120 A 
ENDROOT
BRANCH   2   8
ATOM      8  C   UNL d   1      31.469  16.844 -24.010  0.00  0.00     0.059 A 
ATOM      9  C   UNL d   1      31.763  17.357 -23.436  0.00  0.00     0.029 A 
ATOM     10  C   UNL d   1      32.468  17.734 -23.572  0.00  0.00     0.094 A 
ATOM     11  C   UNL d   1      32.889  17.606 -24.279  0.00  0.00     0.024 A 
ATOM     12  C   UNL d   1      32.601  17.105 -24.838  0.00  0.00     0.002 A 
ATOM     13  C   UNL d   1      31.880  16.715 -24.708  0.00  0.00     0.005 A 
BRANCH  10  14
ATOM     14  O   UNL d   1      32.770  18.249 -23.003  0.00  0.00    -0.328 OA
ATOM     15  C   UNL d   1      33.143  18.947 -23.226  0.00  0.00     0.181 C 
ENDBRANCH  10  14
ENDBRANCH   2   8
BRANCH   3  16
ATOM     16  S   UNL d   1      29.121  15.759 -23.694  0.00  0.00    -0.076 SA
ATOM     17  C   UNL d   1      28.339  15.498 -23.637  0.00  0.00     0.077 C 
ENDBRANCH   3  16
TORSDOF 3
ENDMDL
MODEL 2
REMARK VINA RESULT:      -2.4      1.763      3.600
REMARK  3 active torsions:
REMARK  status: ('A' for Active; 'I' for Inactive)
REMARK       I    between atoms: C_2  and  N_1 
REMARK    1  A    between atoms: C_5  and  C_2 
REMARK    2  A    between atoms: S_8  and  C_3 
REMARK    3  A    between atoms: O_13  and  C_11 
ROOT
ATOM      1  N   UNL d   1      31.631  17.210 -24.130  0.00  0.00    -0.251 N 
ATOM      2  C   UNL d   1      30.983  17.342 -24.614  0.00  0.00     0.266 C 
ATOM      3  C   UNL d   1      32.297  17.692 -24.062  0.00  0.00     0.178 A 
ATOM      4  N   UNL d   1      32.798  17.347 -23.518  0.00  0.00    -0.219 NA
ATOM      5  O   UNL d   1      30.954  18.009 -25.097  0.00  0.00    -0.267 OA
ATOM      6  C   UNL d   1      31.728  16.564 -23.621  0.00  0.00     0.106 A 
ATOM      7  C   UNL d   1      32.456  16.655 -23.243  0.00  0.00     0.120 A 
ENDROOT
BRANCH   2   8
ATOM      8  C   UNL d   1      30.355  16.805 -24.621  0.00  0.00     0.059 A 
ATOM      9  C   UNL d   1      29.692  16.952 -24.153  0.00  0.00     0.029 A 
ATOM     10  C   UNL d   1      29.080  16.420 -24.165  0.00  0.00     0.094 A 
ATOM     11  C   UNL d   1      29.118  15.737 -24.641  0.00  0.00     0.024 A 
ATOM     12  C   UNL d   1      29.766  15.596 -25.096  0.00  0.00     0.002 A 
ATOM     13  C   UNL d   1      30.398  16.134 -25.091  0.00  0.00     0.005 A 
BRANCH  10  14
ATOM     14  O   UNL d   1      28.413  16.559 -23.701  0.00  0.00    -0.328 OA
ATOM     15  C   UNL d   1      27.976  15.931 -23.398  0.00  0.00     0.181 C 
ENDBRANCH  10  14
ENDBRANCH   2   8
BRANCH   3  16
ATOM     16  S   UNL d   1      32.420  18.388 -24.473  0.00  0.00    -0.076 SA
ATOM     17  C   UNL d   1      33.102  18.835 -24.344  0.00  0.00     0.077 C 
ENDBRANCH   3  16
TORSDOF 3
ENDMDL
MODEL 3
REMARK VINA RESULT:      -2.1      2.254      3.685
REMARK  3 active torsions:
REMARK  status: ('A' for Active; 'I' for Inactive)
REMARK       I    between atoms: C_2  and  N_1 
REMARK    1  A    between atoms: C_5  and  C_2 
REMARK    2  A    between atoms: S_8  and  C_3 
REMARK    3  A    between atoms: O_13  and  C_11 
ROOT
ATOM      1  N   UNL d   1      32.905  18.579 -23.692  0.00  0.00    -0.251 N 
ATOM      2  C   UNL d   1      32.742  17.883 -23.291  0.00  0.00     0.266 C 
ATOM      3  C   UNL d   1      33.136  19.295 -23.354  0.00  0.00     0.178 A 
ATOM      4  N   UNL d   1      33.238  19.834 -23.960  0.00  0.00    -0.219 NA
ATOM      5  O   UNL d   1      32.801  17.853 -22.470  0.00  0.00    -0.267 OA
ATOM      6  C   UNL d   1      32.866  18.683 -24.513  0.00  0.00     0.106 A 
ATOM      7  C   UNL d   1      33.074  19.465 -24.674  0.00  0.00     0.120 A 
ENDROOT
BRANCH   2   8
ATOM      8  C   UNL d   1      32.516  17.208 -23.709  0.00  0.00     0.059 A 
ATOM      9  C   UNL d   1      31.715  17.061 -23.840  0.00  0.00     0.029 A 
ATOM     10  C   UNL d   1      31.501  16.396 -24.251  0.00  0.00     0.094 A 
ATOM     11  C   UNL d   1      32.079  15.869 -24.538  0.00  0.00     0.024 A 
ATOM     12  C   UNL d   1      32.860  16.014 -24.410  0.00  0.00     0.002 A 
ATOM     13  C   UNL d   1      33.089  16.692 -23.990  0.00  0.00     0.005 A 
BRANCH  10  14
ATOM     14  O   UNL d   1      30.703  16.241 -24.386  0.00  0.00    -0.328 OA
ATOM     15  C   UNL d   1      30.453  15.488 -24.602  0.00  0.00     0.181 C 
ENDBRANCH  10  14
ENDBRANCH   2   8
BRANCH   3  16
ATOM     16  S   UNL d   1      33.241  19.429 -22.554  0.00  0.00    -0.076 SA
ATOM     17  C   UNL d   1      33.238  20.198 -22.254  0.00  0.00     0.077 C 
ENDBRANCH   3  16
TORSDOF 3
ENDMDL
MODEL 4
REMARK VINA RESULT:      -0.2      2.985      4.484
REMARK  3 active torsions:
REMARK  status: ('A' for Active; 'I' for Inactive)
REMARK       I    between atoms: C_2  and  N_1 
REMARK    1  A    between atoms: C_5  and  C_2 
REMARK    2  A    between atoms: S_8  and  C_3 
REMARK    3  A    between atoms: O_13  and  C_11 
ROOT
ATOM      1  N   UNL d   1      32.912  20.235 -22.247  0.00  0.00    -0.251 N 
ATOM      2  C   UNL d   1      33.012  19.422 -22.291  0.00  0.00     0.266 C 
ATOM      3  C   UNL d   1      33.016  20.704 -21.577  0.00  0.00     0.178 A 
ATOM      4  N   UNL d   1      32.858  21.476 -21.789  0.00  0.00    -0.219 NA
ATOM      5  O   UNL d   1      33.236  18.994 -21.624  0.00  0.00    -0.267 OA
ATOM      6  C   UNL d   1      32.689  20.727 -22.874  0.00  0.00     0.106 A 
ATOM      7  C   UNL d   1      32.657  21.499 -22.583  0.00  0.00     0.120 A 
ENDROOT
BRANCH   2   8
ATOM      8  C   UNL d   1      32.886  19.028 -23.006  0.00  0.00     0.059 A 
ATOM      9  C   UNL d   1      32.491  18.305 -23.007  0.00  0.00     0.029 A 
ATOM     10  C   UNL d   1      32.372  17.924 -23.713  0.00  0.00     0.094 A 
ATOM     11  C   UNL d   1      32.644  18.257 -24.427  0.00  0.00     0.024 A 
ATOM     12  C   UNL d   1      33.029  18.963 -24.424  0.00  0.00     0.002 A 
ATOM     13  C   UNL d   1      33.156  19.360 -23.707  0.00  0.00     0.005 A 
BRANCH  10  14
ATOM     14  O   UNL d   1      31.978  17.200 -23.723  0.00  0.00    -0.328 OA
ATOM     15  C   UNL d   1      32.033  16.702 -24.375  0.00  0.00     0.181 C 
ENDBRANCH  10  14
ENDBRANCH   2   8
BRANCH   3  16
ATOM     16  S   UNL d   1      33.237  20.431 -20.839  0.00  0.00    -0.076 SA
ATOM     17  C   UNL d   1      33.226  20.936 -20.185  0.00  0.00     0.077 C 
ENDBRANCH   3  16
TORSDOF 3
ENDMDL
MODEL 5
REMARK VINA RESULT:      -0.2      3.087      4.592
REMARK  3 active torsions:
REMARK  status: ('A' for Active; 'I' for Inactive)
REMARK       I    between atoms: C_2  and  N_1 
REMARK    1  A    between atoms: C_5  and  C_2 
REMARK    2  A    between atoms: S_8  and  C_3 
REMARK    3  A    between atoms: O_13  and  C_11 
ROOT
ATOM      1  N   UNL d   1      32.993  19.559 -23.167  0.00  0.00    -0.251 N 
ATOM      2  C   UNL d   1      32.965  19.813 -22.388  0.00  0.00     0.266 C 
ATOM      3  C   UNL d   1      32.995  18.776 -23.426  0.00  0.00     0.178 A 
ATOM      4  N   UNL d   1      33.027  18.784 -24.242  0.00  0.00    -0.219 NA
ATOM      5  O   UNL d   1      32.936  19.266 -21.773  0.00  0.00    -0.267 OA
ATOM      6  C   UNL d   1      33.023  20.050 -23.833  0.00  0.00     0.106 A 
ATOM      7  C   UNL d   1      33.044  19.562 -24.499  0.00  0.00     0.120 A 
ENDROOT
BRANCH   2   8
ATOM      8  C   UNL d   1      32.966  20.621 -22.216  0.00  0.00     0.059 A 
ATOM      9  C   UNL d   1      32.692  20.879 -21.483  0.00  0.00     0.029 A 
ATOM     10  C   UNL d   1      32.697  21.674 -21.322  0.00  0.00     0.094 A 
ATOM     11  C   UNL d   1      32.972  22.221 -21.887  0.00  0.00     0.024 A 
ATOM     12  C   UNL d   1      33.239  21.967 -22.602  0.00  0.00     0.002 A 
ATOM     13  C   UNL d   1      33.239  21.156 -22.776  0.00  0.00     0.005 A 
BRANCH  10  14
ATOM     14  O   UNL d   1      32.425  21.942 -20.591  0.00  0.00    -0.328 OA
ATOM     15  C   UNL d   1      32.029  22.660 -20.530  0.00  0.00     0.181 C 
ENDBRANCH  10  14
ENDBRANCH   2   8
BRANCH   3  16
ATOM     16  S   UNL d   1      32.970  18.117 -22.941  0.00  0.00    -0.076 SA
ATOM     17  C   UNL d   1      32.926  17.359 -23.266  0.00  0.00     0.077 C 
ENDBRANCH   3  16
TORSDOF 3
ENDMDL
