MODEL 1
REMARK VINA RESULT:      75.8      0.000      0.000
REMARK  3 active torsions:
REMARK  status: ('A' for Active; 'I' for Inactive)
REMARK    1  A    between atoms: N_2  and  C_1 
REMARK    2  A    between atoms: C_6  and  C_5 
REMARK       I    between atoms: N_13  and  C_6 
REMARK    3  A    between atoms: C_17  and  N_13 
ROOT
ATOM      1  C   UNL d   1      61.412  46.558  50.057  0.00  0.00     0.285 C 
ATOM      2  N   UNL d   1      61.620  47.354  49.812  0.00  0.00    -0.208 NA
ATOM      3  O   UNL d   1      60.916  46.401  50.667  0.00  0.00    -0.265 OA
ENDROOT
BRANCH   2   4
ATOM      4  C   UNL d   1      61.258  47.995  50.270  0.00  0.00     0.086 A 
ATOM      5  C   UNL d   1      61.205  47.931  51.097  0.00  0.00     0.039 A 
ATOM      6  C   UNL d   1      60.860  48.541  51.532  0.00  0.00     0.089 A 
ATOM      7  N   UNL d   1      60.729  48.641  52.331  0.00  0.00    -0.238 NA
ATOM      8  C   UNL d   1      60.568  49.214  51.141  0.00  0.00     0.049 A 
ATOM      9  C   UNL d   1      60.366  49.353  52.445  0.00  0.00     0.111 A 
ATOM     10  C   UNL d   1      60.135  49.672  53.172  0.00  0.00     0.028 C 
ATOM     11  S   UNL d   1      60.266  49.705  51.734  0.00  0.00    -0.066 SA
ATOM     12  C   UNL d   1      60.624  49.271  50.323  0.00  0.00     0.010 A 
ATOM     13  C   UNL d   1      60.969  48.661  49.888  0.00  0.00     0.020 A 
ENDBRANCH   2   4
BRANCH   1  14
ATOM     14  C   UNL d   1      61.711  45.899  49.677  0.00  0.00     0.089 A 
ATOM     15  S   UNL d   1      61.512  45.138  49.869  0.00  0.00    -0.059 SA
ATOM     16  C   UNL d   1      61.951  44.652  49.336  0.00  0.00     0.156 A 
ATOM     17  C   UNL d   1      62.386  45.099  48.856  0.00  0.00     0.031 A 
ATOM     18  C   UNL d   1      62.253  45.893  49.051  0.00  0.00     0.014 A 
BRANCH  16  19
ATOM     19  N   UNL d   1      61.949  43.840  49.297  0.00  0.00    -0.107 N 
ATOM     20  O   UNL d   1      61.369  43.359  48.942  0.00  0.00    -0.531 OA
ATOM     21  O   UNL d   1      62.539  43.364  49.614  0.00  0.00    -0.531 OA
ENDBRANCH  16  19
ENDBRANCH   1  14
TORSDOF 3
ENDMDL
