MODEL 1
REMARK VINA RESULT:      -3.6      0.000      0.000
REMARK  6 active torsions:
REMARK  status: ('A' for Active; 'I' for Inactive)
REMARK    1  A    between atoms: C_4  and  C_2 
REMARK       I    between atoms: N_13  and  C_4 
REMARK    2  A    between atoms: O_17  and  C_8 
REMARK    3  A    between atoms: O_18  and  C_9 
REMARK    4  A    between atoms: C_19  and  N_13 
REMARK    5  A    between atoms: C_15  and  C_20 
REMARK    6  A    between atoms: C_20  and  C_19 
ROOT
ATOM      1  C   UNL d   1      58.155   0.199  30.355  0.00  0.00     0.102 C 
ENDROOT
BRANCH   1   2
ATOM      2  N   UNL d   1      58.704   0.569  29.862  0.00  0.00    -0.205 NA
ATOM      3  C   UNL d   1      59.126   0.125  29.296  0.00  0.00     0.299 C 
ATOM      4  O   UNL d   1      59.675   0.506  28.805  0.00  0.00    -0.263 OA
BRANCH   3   5
ATOM      5  C   UNL d   1      58.997  -0.698  29.222  0.00  0.00     0.161 A 
ATOM      6  N   UNL d   1      58.359  -0.967  28.780  0.00  0.00    -0.140 NA
ATOM      7  N   UNL d   1      58.229  -1.770  28.706  0.00  0.00    -0.105 NA
ATOM      8  C   UNL d   1      58.735  -2.309  29.072  0.00  0.00     0.297 A 
ATOM      9  C   UNL d   1      59.371  -2.044  29.513  0.00  0.00     0.066 A 
ATOM     10  O   UNL d   1      58.593  -3.130  28.990  0.00  0.00    -0.264 OA
ATOM     11  C   UNL d   1      59.503  -1.237  29.589  0.00  0.00     0.031 A 
ENDBRANCH   3   5
ENDBRANCH   1   2
BRANCH   1  12
ATOM     12  C   UNL d   1      57.735   0.643  30.911  0.00  0.00     0.021 C 
BRANCH  12  13
ATOM     13  C   UNL d   1      57.349   0.268  31.531  0.00  0.00     0.004 A 
ATOM     14  C   UNL d   1      57.489   0.508  32.299  0.00  0.00     0.026 A 
ATOM     15  C   UNL d   1      57.102   0.132  32.924  0.00  0.00     0.116 A 
ATOM     16  C   UNL d   1      56.575  -0.484  32.770  0.00  0.00     0.116 A 
ATOM     17  C   UNL d   1      56.435  -0.724  31.993  0.00  0.00     0.026 A 
ATOM     18  C   UNL d   1      56.822  -0.348  31.377  0.00  0.00     0.002 A 
BRANCH  15  19
ATOM     19  O   UNL d   1      57.245   0.378  33.712  0.00  0.00    -0.326 OA
ATOM     20  C   UNL d   1      57.983   0.680  33.925  0.00  0.00     0.181 C 
ENDBRANCH  15  19
BRANCH  16  21
ATOM     21  O   UNL d   1      56.182  -0.864  33.402  0.00  0.00    -0.326 OA
ATOM     22  C   UNL d   1      55.746  -1.550  33.263  0.00  0.00     0.181 C 
ENDBRANCH  16  21
ENDBRANCH  12  13
ENDBRANCH   1  12
TORSDOF 6
ENDMDL
MODEL 2
REMARK VINA RESULT:      -2.8      0.754      2.035
REMARK  6 active torsions:
REMARK  status: ('A' for Active; 'I' for Inactive)
REMARK    1  A    between atoms: C_4  and  C_2 
REMARK       I    between atoms: N_13  and  C_4 
REMARK    2  A    between atoms: O_17  and  C_8 
REMARK    3  A    between atoms: O_18  and  C_9 
REMARK    4  A    between atoms: C_19  and  N_13 
REMARK    5  A    between atoms: C_15  and  C_20 
REMARK    6  A    between atoms: C_20  and  C_19 
ROOT
ATOM      1  C   UNL d   1      57.772  -0.790  30.546  0.00  0.00     0.102 C 
ENDROOT
BRANCH   1   2
ATOM      2  N   UNL d   1      57.817  -1.549  30.226  0.00  0.00    -0.205 NA
ATOM      3  C   UNL d   1      58.372  -1.720  29.628  0.00  0.00     0.299 C 
ATOM      4  O   UNL d   1      58.409  -2.486  29.313  0.00  0.00    -0.263 OA
BRANCH   3   5
ATOM      5  C   UNL d   1      58.888  -1.125  29.348  0.00  0.00     0.161 A 
ATOM      6  N   UNL d   1      58.621  -0.600  28.774  0.00  0.00    -0.140 NA
ATOM      7  N   UNL d   1      59.121  -0.017  28.496  0.00  0.00    -0.105 NA
ATOM      8  C   UNL d   1      59.890   0.047  28.789  0.00  0.00     0.297 A 
ATOM      9  C   UNL d   1      60.158  -0.474  29.360  0.00  0.00     0.066 A 
ATOM     10  O   UNL d   1      60.395   0.648  28.499  0.00  0.00    -0.264 OA
ATOM     11  C   UNL d   1      59.656  -1.062  29.641  0.00  0.00     0.031 A 
ENDBRANCH   3   5
ENDBRANCH   1   2
BRANCH   1  12
ATOM     12  C   UNL d   1      57.071  -0.533  30.901  0.00  0.00     0.021 C 
BRANCH  12  13
ATOM     13  C   UNL d   1      57.070  -0.302  31.690  0.00  0.00     0.004 A 
ATOM     14  C   UNL d   1      56.556  -0.660  32.215  0.00  0.00     0.026 A 
ATOM     15  C   UNL d   1      56.553  -0.429  33.008  0.00  0.00     0.116 A 
ATOM     16  C   UNL d   1      57.068   0.162  33.266  0.00  0.00     0.116 A 
ATOM     17  C   UNL d   1      57.585   0.522  32.733  0.00  0.00     0.026 A 
ATOM     18  C   UNL d   1      57.584   0.289  31.949  0.00  0.00     0.002 A 
BRANCH  15  19
ATOM     19  O   UNL d   1      56.027  -0.796  33.547  0.00  0.00    -0.326 OA
ATOM     20  C   UNL d   1      55.266  -1.005  33.307  0.00  0.00     0.181 C 
ENDBRANCH  15  19
BRANCH  16  21
ATOM     21  O   UNL d   1      57.065   0.396  34.068  0.00  0.00    -0.326 OA
ATOM     22  C   UNL d   1      57.756   0.682  34.417  0.00  0.00     0.181 C 
ENDBRANCH  16  21
ENDBRANCH  12  13
ENDBRANCH   1  12
TORSDOF 6
ENDMDL
MODEL 3
REMARK VINA RESULT:      -2.3      1.593      4.376
REMARK  6 active torsions:
REMARK  status: ('A' for Active; 'I' for Inactive)
REMARK    1  A    between atoms: C_4  and  C_2 
REMARK       I    between atoms: N_13  and  C_4 
REMARK    2  A    between atoms: O_17  and  C_8 
REMARK    3  A    between atoms: O_18  and  C_9 
REMARK    4  A    between atoms: C_19  and  N_13 
REMARK    5  A    between atoms: C_15  and  C_20 
REMARK    6  A    between atoms: C_20  and  C_19 
ROOT
ATOM      1  C   UNL d   1      57.706   0.416  31.372  0.00  0.00     0.102 C 
ENDROOT
BRANCH   1   2
ATOM      2  N   UNL d   1      58.146   0.604  32.045  0.00  0.00    -0.205 NA
ATOM      3  C   UNL d   1      57.822   0.487  32.804  0.00  0.00     0.299 C 
ATOM      4  O   UNL d   1      58.272   0.679  33.473  0.00  0.00    -0.263 OA
BRANCH   3   5
ATOM      5  C   UNL d   1      57.051   0.178  32.892  0.00  0.00     0.161 A 
ATOM      6  N   UNL d   1      56.944  -0.637  32.915  0.00  0.00    -0.140 NA
ATOM      7  N   UNL d   1      56.192  -0.944  33.000  0.00  0.00    -0.105 NA
ATOM      8  C   UNL d   1      55.541  -0.440  33.062  0.00  0.00     0.297 A 
ATOM      9  C   UNL d   1      55.644   0.371  33.039  0.00  0.00     0.066 A 
ATOM     10  O   UNL d   1      54.774  -0.764  33.149  0.00  0.00    -0.264 OA
ATOM     11  C   UNL d   1      56.400   0.682  32.954  0.00  0.00     0.031 A 
ENDBRANCH   3   5
ENDBRANCH   1   2
BRANCH   1  12
ATOM     12  C   UNL d   1      57.966   0.662  30.628  0.00  0.00     0.021 C 
BRANCH  12  13
ATOM     13  C   UNL d   1      58.388   0.147  30.147  0.00  0.00     0.004 A 
ATOM     14  C   UNL d   1      59.185   0.275  30.019  0.00  0.00     0.026 A 
ATOM     15  C   UNL d   1      59.611  -0.242  29.537  0.00  0.00     0.116 A 
ATOM     16  C   UNL d   1      59.232  -0.886  29.186  0.00  0.00     0.116 A 
ATOM     17  C   UNL d   1      58.426  -1.012  29.318  0.00  0.00     0.026 A 
ATOM     18  C   UNL d   1      58.009  -0.496  29.797  0.00  0.00     0.002 A 
BRANCH  15  19
ATOM     19  O   UNL d   1      60.429  -0.112  29.406  0.00  0.00    -0.326 OA
ATOM     20  C   UNL d   1      60.710   0.651  29.263  0.00  0.00     0.181 C 
ENDBRANCH  15  19
BRANCH  16  21
ATOM     21  O   UNL d   1      59.663  -1.409  28.698  0.00  0.00    -0.326 OA
ATOM     22  C   UNL d   1      59.409  -2.188  28.605  0.00  0.00     0.181 C 
ENDBRANCH  16  21
ENDBRANCH  12  13
ENDBRANCH   1  12
TORSDOF 6
ENDMDL
MODEL 4
REMARK VINA RESULT:      -0.9      1.973      4.477
REMARK  6 active torsions:
REMARK  status: ('A' for Active; 'I' for Inactive)
REMARK    1  A    between atoms: C_4  and  C_2 
REMARK       I    between atoms: N_13  and  C_4 
REMARK    2  A    between atoms: O_17  and  C_8 
REMARK    3  A    between atoms: O_18  and  C_9 
REMARK    4  A    between atoms: C_19  and  N_13 
REMARK    5  A    between atoms: C_15  and  C_20 
REMARK    6  A    between atoms: C_20  and  C_19 
ROOT
ATOM      1  C   UNL d   1      57.365   0.216  32.094  0.00  0.00     0.102 C 
ENDROOT
BRANCH   1   2
ATOM      2  N   UNL d   1      57.370   0.588  32.830  0.00  0.00    -0.205 NA
ATOM      3  C   UNL d   1      56.902   0.292  33.454  0.00  0.00     0.299 C 
ATOM      4  O   UNL d   1      56.915   0.674  34.190  0.00  0.00    -0.263 OA
BRANCH   3   5
ATOM      5  C   UNL d   1      56.425  -0.384  33.339  0.00  0.00     0.161 A 
ATOM      6  N   UNL d   1      56.774  -1.128  33.340  0.00  0.00    -0.140 NA
ATOM      7  N   UNL d   1      56.312  -1.792  33.228  0.00  0.00    -0.105 NA
ATOM      8  C   UNL d   1      55.498  -1.718  33.115  0.00  0.00     0.297 A 
ATOM      9  C   UNL d   1      55.147  -0.979  33.113  0.00  0.00     0.066 A 
ATOM     10  O   UNL d   1      55.032  -2.404  33.001  0.00  0.00    -0.264 OA
ATOM     11  C   UNL d   1      55.611  -0.310  33.225  0.00  0.00     0.031 A 
ENDBRANCH   3   5
ENDBRANCH   1   2
BRANCH   1  12
ATOM     12  C   UNL d   1      57.444   0.664  31.404  0.00  0.00     0.021 C 
BRANCH  12  13
ATOM     13  C   UNL d   1      58.067   0.520  30.888  0.00  0.00     0.004 A 
ATOM     14  C   UNL d   1      57.914   0.218  30.144  0.00  0.00     0.026 A 
ATOM     15  C   UNL d   1      58.538   0.072  29.625  0.00  0.00     0.116 A 
ATOM     16  C   UNL d   1      59.313   0.233  29.857  0.00  0.00     0.116 A 
ATOM     17  C   UNL d   1      59.464   0.539  30.609  0.00  0.00     0.026 A 
ATOM     18  C   UNL d   1      58.842   0.681  31.120  0.00  0.00     0.002 A 
BRANCH  15  19
ATOM     19  O   UNL d   1      58.381  -0.238  28.862  0.00  0.00    -0.326 OA
ATOM     20  C   UNL d   1      57.687  -0.035  28.465  0.00  0.00     0.181 C 
ENDBRANCH  15  19
BRANCH  16  21
ATOM     21  O   UNL d   1      59.945   0.086  29.330  0.00  0.00    -0.326 OA
ATOM     22  C   UNL d   1      60.565  -0.407  29.559  0.00  0.00     0.181 C 
ENDBRANCH  16  21
ENDBRANCH  12  13
ENDBRANCH   1  12
TORSDOF 6
ENDMDL
