MODEL 1
REMARK VINA RESULT:      -6.1      0.000      0.000
REMARK  3 active torsions:
REMARK  status: ('A' for Active; 'I' for Inactive)
REMARK    1  A    between atoms: C_6  and  C_1 
REMARK    2  A    between atoms: C_7  and  C_5 
REMARK    3  A    between atoms: C_15  and  C_14 
ROOT
ATOM      1  C   UNL d   1     -42.012-122.125 -54.711  0.00  0.00     0.169 A 
ATOM      2  C   UNL d   1     -42.408-121.877 -54.079  0.00  0.00     0.048 A 
ATOM      3  N   UNL d   1     -41.128-122.754 -53.908  0.00  0.00    -0.148 NA
ATOM      4  N   UNL d   1     -41.364-122.569 -54.627  0.00  0.00    -0.142 NA
ATOM      5  C   UNL d   1     -41.523-122.507 -53.270  0.00  0.00     0.105 A 
ENDROOT
BRANCH   5   6
ATOM      6  C   UNL d   1     -41.427-122.600 -52.465  0.00  0.00     0.019 A 
ATOM      7  C   UNL d   1     -41.425-121.930 -51.974  0.00  0.00     0.002 A 
ATOM      8  C   UNL d   1     -41.329-122.017 -51.167  0.00  0.00     0.000 A 
ATOM      9  C   UNL d   1     -41.234-122.766 -50.836  0.00  0.00     0.000 A 
ATOM     10  C   UNL d   1     -41.236-123.437 -51.328  0.00  0.00     0.000 A 
ATOM     11  C   UNL d   1     -41.333-123.346 -52.142  0.00  0.00     0.002 A 
BRANCH   9  12
ATOM     12  C   UNL d   1     -41.134-122.857 -50.000  0.00  0.00     0.000 C 
ATOM     13  C   UNL d   1     -41.804-122.994 -49.507  0.00  0.00     0.000 C 
ENDBRANCH   9  12
ENDBRANCH   5   6
BRANCH   1  14
ATOM     14  C   UNL d   1     -42.267-121.927 -55.424  0.00  0.00     0.231 C 
ATOM     15  O   UNL d   1     -43.015-122.078 -55.626  0.00  0.00    -0.643 OA
ATOM     16  O   UNL d   1     -41.781-121.579 -55.938  0.00  0.00    -0.643 OA
ENDBRANCH   1  14
TORSDOF 3
ENDMDL
MODEL 2
REMARK VINA RESULT:      -4.9      2.429      4.129
REMARK  3 active torsions:
REMARK  status: ('A' for Active; 'I' for Inactive)
REMARK    1  A    between atoms: C_6  and  C_1 
REMARK    2  A    between atoms: C_7  and  C_5 
REMARK    3  A    between atoms: C_15  and  C_14 
ROOT
ATOM      1  C   UNL d   1     -41.271-123.053 -50.913  0.00  0.00     0.169 A 
ATOM      2  C   UNL d   1     -41.476-122.381 -51.264  0.00  0.00     0.048 A 
ATOM      3  N   UNL d   1     -41.184-123.654 -52.119  0.00  0.00    -0.148 NA
ATOM      4  N   UNL d   1     -41.123-123.699 -51.344  0.00  0.00    -0.142 NA
ATOM      5  C   UNL d   1     -41.390-122.980 -52.476  0.00  0.00     0.105 A 
ENDROOT
BRANCH   5   6
ATOM      6  C   UNL d   1     -41.500-122.753 -53.252  0.00  0.00     0.019 A 
ATOM      7  C   UNL d   1     -41.891-122.038 -53.417  0.00  0.00     0.002 A 
ATOM      8  C   UNL d   1     -42.004-121.806 -54.193  0.00  0.00     0.000 A 
ATOM      9  C   UNL d   1     -41.733-122.277 -54.813  0.00  0.00     0.000 A 
ATOM     10  C   UNL d   1     -41.342-122.992 -54.648  0.00  0.00     0.000 A 
ATOM     11  C   UNL d   1     -41.229-123.224 -53.864  0.00  0.00     0.002 A 
BRANCH   9  12
ATOM     12  C   UNL d   1     -41.851-122.036 -55.617  0.00  0.00     0.000 C 
ATOM     13  C   UNL d   1     -42.631-121.981 -55.932  0.00  0.00     0.000 C 
ENDBRANCH   9  12
ENDBRANCH   5   6
BRANCH   1  14
ATOM     14  C   UNL d   1     -41.216-123.077 -50.133  0.00  0.00     0.231 C 
ATOM     15  O   UNL d   1     -41.191-122.401 -49.724  0.00  0.00    -0.643 OA
ATOM     16  O   UNL d   1     -41.186-123.769 -49.756  0.00  0.00    -0.643 OA
ENDBRANCH   1  14
TORSDOF 3
ENDMDL
MODEL 3
REMARK VINA RESULT:      -4.7      3.142      4.487
REMARK  3 active torsions:
REMARK  status: ('A' for Active; 'I' for Inactive)
REMARK    1  A    between atoms: C_6  and  C_1 
REMARK    2  A    between atoms: C_7  and  C_5 
REMARK    3  A    between atoms: C_15  and  C_14 
ROOT
ATOM      1  C   UNL d   1     -42.191-123.006 -49.226  0.00  0.00     0.169 A 
ATOM      2  C   UNL d   1     -42.663-122.921 -49.848  0.00  0.00     0.048 A 
ATOM      3  N   UNL d   1     -41.130-123.134 -50.050  0.00  0.00    -0.148 NA
ATOM      4  N   UNL d   1     -41.415-123.114 -49.326  0.00  0.00    -0.142 NA
ATOM      5  C   UNL d   1     -41.601-123.050 -50.679  0.00  0.00     0.105 A 
ENDROOT
BRANCH   5   6
ATOM      6  C   UNL d   1     -41.483-123.045 -51.487  0.00  0.00     0.019 A 
ATOM      7  C   UNL d   1     -41.419-122.318 -51.885  0.00  0.00     0.002 A 
ATOM      8  C   UNL d   1     -41.301-122.307 -52.694  0.00  0.00     0.000 A 
ATOM      9  C   UNL d   1     -41.245-123.012 -53.117  0.00  0.00     0.000 A 
ATOM     10  C   UNL d   1     -41.309-123.739 -52.719  0.00  0.00     0.000 A 
ATOM     11  C   UNL d   1     -41.428-123.747 -51.902  0.00  0.00     0.002 A 
BRANCH   9  12
ATOM     12  C   UNL d   1     -41.123-123.000 -53.956  0.00  0.00     0.000 C 
ATOM     13  C   UNL d   1     -41.689-122.631 -54.460  0.00  0.00     0.000 C 
ENDBRANCH   9  12
ENDBRANCH   5   6
BRANCH   1  14
ATOM     14  C   UNL d   1     -42.498-122.981 -48.507  0.00  0.00     0.231 C 
ATOM     15  O   UNL d   1     -42.429-123.609 -48.032  0.00  0.00    -0.643 OA
ATOM     16  O   UNL d   1     -42.874-122.335 -48.255  0.00  0.00    -0.643 OA
ENDBRANCH   1  14
TORSDOF 3
ENDMDL
MODEL 4
REMARK VINA RESULT:      -3.9      1.119      1.711
REMARK  3 active torsions:
REMARK  status: ('A' for Active; 'I' for Inactive)
REMARK    1  A    between atoms: C_6  and  C_1 
REMARK    2  A    between atoms: C_7  and  C_5 
REMARK    3  A    between atoms: C_15  and  C_14 
ROOT
ATOM      1  C   UNL d   1     -41.675-122.627 -53.259  0.00  0.00     0.169 A 
ATOM      2  C   UNL d   1     -42.214-122.303 -52.787  0.00  0.00     0.048 A 
ATOM      3  N   UNL d   1     -41.124-123.251 -52.196  0.00  0.00    -0.148 NA
ATOM      4  N   UNL d   1     -41.123-123.107 -52.962  0.00  0.00    -0.142 NA
ATOM      5  C   UNL d   1     -41.665-122.928 -51.719  0.00  0.00     0.105 A 
ENDROOT
BRANCH   5   6
ATOM      6  C   UNL d   1     -41.816-122.964 -50.918  0.00  0.00     0.019 A 
ATOM      7  C   UNL d   1     -42.385-122.457 -50.587  0.00  0.00     0.002 A 
ATOM      8  C   UNL d   1     -42.541-122.488 -49.785  0.00  0.00     0.000 A 
ATOM      9  C   UNL d   1     -42.137-123.021 -49.302  0.00  0.00     0.000 A 
ATOM     10  C   UNL d   1     -41.568-123.528 -49.633  0.00  0.00     0.000 A 
ATOM     11  C   UNL d   1     -41.413-123.494 -50.443  0.00  0.00     0.002 A 
BRANCH   9  12
ATOM     12  C   UNL d   1     -42.299-123.053 -48.471  0.00  0.00     0.000 C 
ATOM     13  C   UNL d   1     -42.828-123.635 -48.166  0.00  0.00     0.000 C 
ENDBRANCH   9  12
ENDBRANCH   5   6
BRANCH   1  14
ATOM     14  C   UNL d   1     -41.692-122.469 -54.024  0.00  0.00     0.231 C 
ATOM     15  O   UNL d   1     -42.280-122.753 -54.469  0.00  0.00    -0.643 OA
ATOM     16  O   UNL d   1     -41.126-122.028 -54.353  0.00  0.00    -0.643 OA
ENDBRANCH   1  14
TORSDOF 3
ENDMDL
MODEL 5
REMARK VINA RESULT:      -3.6      2.634      4.151
REMARK  3 active torsions:
REMARK  status: ('A' for Active; 'I' for Inactive)
REMARK    1  A    between atoms: C_6  and  C_1 
REMARK    2  A    between atoms: C_7  and  C_5 
REMARK    3  A    between atoms: C_15  and  C_14 
ROOT
ATOM      1  C   UNL d   1     -42.066-122.648 -50.429  0.00  0.00     0.169 A 
ATOM      2  C   UNL d   1     -42.062-123.261 -50.922  0.00  0.00     0.048 A 
ATOM      3  N   UNL d   1     -41.825-121.816 -51.465  0.00  0.00    -0.148 NA
ATOM      4  N   UNL d   1     -41.946-121.916 -50.702  0.00  0.00    -0.142 NA
ATOM      5  C   UNL d   1     -41.821-122.430 -51.963  0.00  0.00     0.105 A 
ENDROOT
BRANCH   5   6
ATOM      6  C   UNL d   1     -41.714-122.513 -52.769  0.00  0.00     0.019 A 
ATOM      7  C   UNL d   1     -42.102-121.993 -53.288  0.00  0.00     0.002 A 
ATOM      8  C   UNL d   1     -41.999-122.071 -54.095  0.00  0.00     0.000 A 
ATOM      9  C   UNL d   1     -41.512-122.664 -54.397  0.00  0.00     0.000 A 
ATOM     10  C   UNL d   1     -41.123-123.184 -53.878  0.00  0.00     0.000 A 
ATOM     11  C   UNL d   1     -41.229-123.102 -53.063  0.00  0.00     0.002 A 
BRANCH   9  12
ATOM     12  C   UNL d   1     -41.405-122.745 -55.234  0.00  0.00     0.000 C 
ATOM     13  C   UNL d   1     -41.263-122.063 -55.710  0.00  0.00     0.000 C 
ENDBRANCH   9  12
ENDBRANCH   5   6
BRANCH   1  14
ATOM     14  C   UNL d   1     -42.189-122.771 -49.667  0.00  0.00     0.231 C 
ATOM     15  O   UNL d   1     -42.894-122.602 -49.354  0.00  0.00    -0.643 OA
ATOM     16  O   UNL d   1     -41.614-123.062 -49.212  0.00  0.00    -0.643 OA
ENDBRANCH   1  14
TORSDOF 3
ENDMDL
