MODEL 1
REMARK VINA RESULT:      -2.9      0.000      0.000
REMARK  5 active torsions:
REMARK  status: ('A' for Active; 'I' for Inactive)
REMARK    1  A    between atoms: N_2  and  C_1 
REMARK    2  A    between atoms: C_6  and  C_1 
REMARK    3  A    between atoms: O_4  and  N_2 
REMARK    4  A    between atoms: C_3  and  O_4 
REMARK    5  A    between atoms: C_5  and  C_3 
ROOT
ATOM      1  O   UNL d   1      31.124  17.883 -24.291  0.00  0.00    -0.168 OA
ENDROOT
BRANCH   1   2
ATOM      2  C   UNL d   1      32.025  17.857 -24.165  0.00  0.00     0.319 C 
ATOM      3  O   UNL d   1      32.479  17.091 -24.271  0.00  0.00    -0.257 OA
BRANCH   2   4
ATOM      4  C   UNL d   1      32.432  18.547 -23.951  0.00  0.00     0.066 A 
ATOM      5  C   UNL d   1      32.530  18.720 -23.144  0.00  0.00     0.012 A 
ATOM      6  C   UNL d   1      32.939  19.415 -22.940  0.00  0.00     0.035 A 
ATOM      7 BR   UNL d   1      33.036  19.587 -22.135  0.00  0.00    -0.049 Br
ATOM      8  C   UNL d   1      33.241  19.919 -23.516  0.00  0.00     0.007 A 
ATOM      9  C   UNL d   1      33.127  19.718 -24.307  0.00  0.00     0.001 A 
ATOM     10  C   UNL d   1      32.732  19.049 -24.525  0.00  0.00     0.005 A 
ENDBRANCH   2   4
ENDBRANCH   1   2
BRANCH   1  11
ATOM     11  N   UNL d   1      30.686  17.199 -24.347  0.00  0.00    -0.100 NA
BRANCH  11  12
ATOM     12  C   UNL d   1      29.905  17.208 -24.594  0.00  0.00     0.228 C 
ATOM     13  N   UNL d   1      29.645  17.822 -25.077  0.00  0.00    -0.123 N 
BRANCH  12  14
ATOM     14  C   UNL d   1      29.379  16.623 -24.374  0.00  0.00     0.121 A 
ATOM     15  N   UNL d   1      29.138  16.062 -24.913  0.00  0.00    -0.241 NA
ATOM     16  C   UNL d   1      28.601  15.468 -24.682  0.00  0.00     0.099 A 
ATOM     17  C   UNL d   1      28.316  15.453 -23.907  0.00  0.00     0.021 A 
ATOM     18  C   UNL d   1      28.562  16.026 -23.360  0.00  0.00     0.003 A 
ATOM     19  C   UNL d   1      29.094  16.608 -23.599  0.00  0.00     0.022 A 
ENDBRANCH  12  14
ENDBRANCH  11  12
ENDBRANCH   1  11
TORSDOF 5
ENDMDL
MODEL 2
REMARK VINA RESULT:      -2.7      1.898      4.557
REMARK  5 active torsions:
REMARK  status: ('A' for Active; 'I' for Inactive)
REMARK    1  A    between atoms: N_2  and  C_1 
REMARK    2  A    between atoms: C_6  and  C_1 
REMARK    3  A    between atoms: O_4  and  N_2 
REMARK    4  A    between atoms: C_3  and  O_4 
REMARK    5  A    between atoms: C_5  and  C_3 
ROOT
ATOM      1  O   UNL d   1      31.498  16.872 -23.634  0.00  0.00    -0.168 OA
ENDROOT
BRANCH   1   2
ATOM      2  C   UNL d   1      30.851  16.393 -24.058  0.00  0.00     0.319 C 
ATOM      3  O   UNL d   1      30.946  16.159 -24.919  0.00  0.00    -0.257 OA
BRANCH   2   4
ATOM      4  C   UNL d   1      30.167  16.169 -23.648  0.00  0.00     0.066 A 
ATOM      5  C   UNL d   1      29.432  16.466 -23.900  0.00  0.00     0.012 A 
ATOM      6  C   UNL d   1      28.752  16.235 -23.481  0.00  0.00     0.035 A 
ATOM      7 BR   UNL d   1      28.021  16.532 -23.734  0.00  0.00    -0.049 Br
ATOM      8  C   UNL d   1      28.798  15.729 -22.835  0.00  0.00     0.007 A 
ATOM      9  C   UNL d   1      29.541  15.453 -22.610  0.00  0.00     0.001 A 
ATOM     10  C   UNL d   1      30.213  15.664 -23.003  0.00  0.00     0.005 A 
ENDBRANCH   2   4
ENDBRANCH   1   2
BRANCH   1  11
ATOM     11  N   UNL d   1      32.012  17.347 -24.050  0.00  0.00    -0.100 NA
BRANCH  11  12
ATOM     12  C   UNL d   1      32.662  17.694 -23.691  0.00  0.00     0.228 C 
ATOM     13  N   UNL d   1      33.133  17.241 -23.190  0.00  0.00    -0.123 N 
BRANCH  12  14
ATOM     14  C   UNL d   1      32.854  18.478 -23.817  0.00  0.00     0.121 A 
ATOM     15  N   UNL d   1      32.927  18.766 -24.575  0.00  0.00    -0.241 NA
ATOM     16  C   UNL d   1      33.123  19.567 -24.697  0.00  0.00     0.099 A 
ATOM     17  C   UNL d   1      33.241  20.063 -24.048  0.00  0.00     0.021 A 
ATOM     18  C   UNL d   1      33.165  19.767 -23.277  0.00  0.00     0.003 A 
ATOM     19  C   UNL d   1      32.971  18.974 -23.167  0.00  0.00     0.022 A 
ENDBRANCH  12  14
ENDBRANCH  11  12
ENDBRANCH   1  11
TORSDOF 5
ENDMDL
MODEL 3
REMARK VINA RESULT:      -2.1      3.390      4.831
REMARK  5 active torsions:
REMARK  status: ('A' for Active; 'I' for Inactive)
REMARK    1  A    between atoms: N_2  and  C_1 
REMARK    2  A    between atoms: C_6  and  C_1 
REMARK    3  A    between atoms: O_4  and  N_2 
REMARK    4  A    between atoms: C_3  and  O_4 
REMARK    5  A    between atoms: C_5  and  C_3 
ROOT
ATOM      1  O   UNL d   1      32.951  21.088 -22.070  0.00  0.00    -0.168 OA
ENDROOT
BRANCH   1   2
ATOM      2  C   UNL d   1      32.979  21.980 -22.251  0.00  0.00     0.319 C 
ATOM      3  O   UNL d   1      33.240  22.275 -23.057  0.00  0.00    -0.257 OA
BRANCH   2   4
ATOM      4  C   UNL d   1      32.761  22.526 -21.668  0.00  0.00     0.066 A 
ATOM      5  C   UNL d   1      33.026  22.409 -20.889  0.00  0.00     0.012 A 
ATOM      6  C   UNL d   1      32.801  22.963 -20.311  0.00  0.00     0.035 A 
ATOM      7 BR   UNL d   1      33.066  22.844 -19.535  0.00  0.00    -0.049 Br
ATOM      8  C   UNL d   1      32.330  23.611 -20.498  0.00  0.00     0.007 A 
ATOM      9  C   UNL d   1      32.084  23.699 -21.280  0.00  0.00     0.001 A 
ATOM     10  C   UNL d   1      32.291  23.172 -21.855  0.00  0.00     0.005 A 
ENDBRANCH   2   4
ENDBRANCH   1   2
BRANCH   1  11
ATOM     11  N   UNL d   1      33.239  20.542 -22.600  0.00  0.00    -0.100 NA
BRANCH  11  12
ATOM     12  C   UNL d   1      33.177  19.736 -22.462  0.00  0.00     0.228 C 
ATOM     13  N   UNL d   1      33.211  19.459 -21.688  0.00  0.00    -0.123 N 
BRANCH  12  14
ATOM     14  C   UNL d   1      33.083  19.202 -23.073  0.00  0.00     0.121 A 
ATOM     15  N   UNL d   1      32.841  18.440 -22.920  0.00  0.00    -0.241 NA
ATOM     16  C   UNL d   1      32.748  17.900 -23.548  0.00  0.00     0.099 A 
ATOM     17  C   UNL d   1      32.901  18.143 -24.322  0.00  0.00     0.021 A 
ATOM     18  C   UNL d   1      33.147  18.919 -24.476  0.00  0.00     0.003 A 
ATOM     19  C   UNL d   1      33.237  19.445 -23.848  0.00  0.00     0.022 A 
ENDBRANCH  12  14
ENDBRANCH  11  12
ENDBRANCH   1  11
TORSDOF 5
ENDMDL
