MODEL 1
REMARK VINA RESULT:     -10.2      0.000      0.000
REMARK  6 active torsions:
REMARK  status: ('A' for Active; 'I' for Inactive)
REMARK    1  A    between atoms: N_3  and  S_1 
REMARK    2  A    between atoms: C_10  and  S_1 
REMARK    3  A    between atoms: N_2  and  C_12 
REMARK    4  A    between atoms: C_4  and  N_3 
REMARK       I    between atoms: C_7  and  N_11 
REMARK    5  A    between atoms: C_15  and  C_7 
REMARK    6  A    between atoms: N_11  and  C_30 
ROOT
ATOM      1  C   UNL d   1      47.793  35.889  52.585  0.00  0.00     0.106 A 
ATOM      2  C   UNL d   1      48.078  35.991  53.348  0.00  0.00     0.015 A 
ATOM      3  C   UNL d   1      48.232  35.484  52.015  0.00  0.00     0.015 A 
ATOM      4  C   UNL d   1      49.266  35.278  52.991  0.00  0.00     0.085 A 
ATOM      5  C   UNL d   1      48.971  35.178  52.219  0.00  0.00     0.020 A 
ATOM      6  C   UNL d   1      48.816  35.685  53.552  0.00  0.00     0.020 A 
ENDROOT
BRANCH   4   7
ATOM      7  N   UNL d   1      50.012  34.968  53.192  0.00  0.00    -0.208 NA
ATOM      8  C   UNL d   1      50.354  34.370  52.735  0.00  0.00     0.279 C 
ATOM      9  O   UNL d   1      49.950  34.083  52.076  0.00  0.00    -0.265 OA
BRANCH   8  10
ATOM     10  C   UNL d   1      51.093  34.066  52.938  0.00  0.00     0.058 A 
ATOM     11  C   UNL d   1      51.148  33.440  53.462  0.00  0.00     0.006 A 
ATOM     12  C   UNL d   1      51.883  33.135  53.667  0.00  0.00     0.018 A 
ATOM     13  C   UNL d   1      52.572  33.444  53.357  0.00  0.00     0.070 A 
ATOM     14  C   UNL d   1      52.525  34.086  52.818  0.00  0.00     0.018 A 
ATOM     15  C   UNL d   1      51.789  34.393  52.612  0.00  0.00     0.006 A 
BRANCH  13  16
ATOM     16  N   UNL d   1      53.312  33.133  53.566  0.00  0.00    -0.242 N 
ATOM     17  C   UNL d   1      53.638  32.450  53.222  0.00  0.00     0.267 A 
ATOM     18  C   UNL d   1      54.381  32.316  53.573  0.00  0.00     0.066 A 
ATOM     19  O   UNL d   1      53.281  31.972  52.618  0.00  0.00    -0.267 OA
ATOM     20  C   UNL d   1      54.501  32.913  54.124  0.00  0.00     0.066 A 
ATOM     21  C   UNL d   1      53.842  33.413  54.117  0.00  0.00     0.267 A 
ATOM     22  O   UNL d   1      53.744  34.083  54.592  0.00  0.00    -0.267 OA
ENDBRANCH  13  16
ENDBRANCH   8  10
ENDBRANCH   4   7
BRANCH   1  23
ATOM     23  S   UNL d   1      47.054  36.195  52.381  0.00  0.00     0.300 S 
ATOM     24  O   UNL d   1      47.177  36.006  51.591  0.00  0.00    -0.198 OA
ATOM     25  O   UNL d   1      46.907  36.396  53.175  0.00  0.00    -0.198 OA
BRANCH  23  26
ATOM     26  N   UNL d   1      46.311  36.504  52.180  0.00  0.00     0.034 NA
BRANCH  26  27
ATOM     27  C   UNL d   1      45.651  36.010  52.157  0.00  0.00     0.760 A 
ATOM     28  N   UNL d   1      45.308  35.730  52.857  0.00  0.00    -0.059 NA
ATOM     29  C   UNL d   1      44.651  35.238  52.841  0.00  0.00     0.101 A 
ATOM     30  C   UNL d   1      44.315  34.963  53.537  0.00  0.00     0.021 C 
ATOM     31  C   UNL d   1      44.319  35.015  52.104  0.00  0.00     0.040 A 
ATOM     32  C   UNL d   1      44.652  35.288  51.400  0.00  0.00     0.101 A 
ATOM     33  N   UNL d   1      45.319  35.786  51.420  0.00  0.00    -0.059 NA
ATOM     34  C   UNL d   1      44.325  35.067  50.673  0.00  0.00     0.021 C 
ENDBRANCH  26  27
ENDBRANCH  23  26
ENDBRANCH   1  23
TORSDOF 6
ENDMDL
MODEL 2
REMARK VINA RESULT:      -9.3      1.530      7.245
REMARK  6 active torsions:
REMARK  status: ('A' for Active; 'I' for Inactive)
REMARK    1  A    between atoms: N_3  and  S_1 
REMARK    2  A    between atoms: C_10  and  S_1 
REMARK    3  A    between atoms: N_2  and  C_12 
REMARK    4  A    between atoms: C_4  and  N_3 
REMARK       I    between atoms: C_7  and  N_11 
REMARK    5  A    between atoms: C_15  and  C_7 
REMARK    6  A    between atoms: N_11  and  C_30 
ROOT
ATOM      1  C   UNL d   1      51.579  33.979  52.622  0.00  0.00     0.106 A 
ATOM      2  C   UNL d   1      51.262  34.263  51.920  0.00  0.00     0.015 A 
ATOM      3  C   UNL d   1      51.117  33.909  53.303  0.00  0.00     0.015 A 
ATOM      4  C   UNL d   1      49.995  34.419  52.566  0.00  0.00     0.085 A 
ATOM      5  C   UNL d   1      50.322  34.130  53.274  0.00  0.00     0.020 A 
ATOM      6  C   UNL d   1      50.468  34.484  51.891  0.00  0.00     0.020 A 
ENDROOT
BRANCH   4   7
ATOM      7  N   UNL d   1      49.192  34.641  52.541  0.00  0.00    -0.208 NA
ATOM      8  C   UNL d   1      48.946  35.359  52.871  0.00  0.00     0.279 C 
ATOM      9  O   UNL d   1      49.502  35.854  53.224  0.00  0.00    -0.265 OA
BRANCH   8  10
ATOM     10  C   UNL d   1      48.150  35.574  52.844  0.00  0.00     0.058 A 
ATOM     11  C   UNL d   1      47.647  35.215  52.308  0.00  0.00     0.006 A 
ATOM     12  C   UNL d   1      46.853  35.427  52.279  0.00  0.00     0.018 A 
ATOM     13  C   UNL d   1      46.547  35.995  52.778  0.00  0.00     0.070 A 
ATOM     14  C   UNL d   1      47.057  36.368  53.332  0.00  0.00     0.018 A 
ATOM     15  C   UNL d   1      47.852  36.158  53.363  0.00  0.00     0.006 A 
BRANCH  13  16
ATOM     16  N   UNL d   1      45.746  36.207  52.746  0.00  0.00    -0.242 N 
ATOM     17  C   UNL d   1      45.221  36.117  53.385  0.00  0.00     0.267 A 
ATOM     18  C   UNL d   1      44.473  36.388  53.140  0.00  0.00     0.066 A 
ATOM     19  O   UNL d   1      45.409  35.804  54.151  0.00  0.00    -0.267 OA
ATOM     20  C   UNL d   1      44.547  36.640  52.363  0.00  0.00     0.066 A 
ATOM     21  C   UNL d   1      45.331  36.526  52.124  0.00  0.00     0.267 A 
ATOM     22  O   UNL d   1      45.635  36.710  51.377  0.00  0.00    -0.267 OA
ENDBRANCH  13  16
ENDBRANCH   8  10
ENDBRANCH   4   7
BRANCH   1  23
ATOM     23  S   UNL d   1      52.374  33.758  52.651  0.00  0.00     0.300 S 
ATOM     24  O   UNL d   1      52.196  33.023  52.330  0.00  0.00    -0.198 OA
ATOM     25  O   UNL d   1      52.578  34.495  52.977  0.00  0.00    -0.198 OA
BRANCH  23  26
ATOM     26  N   UNL d   1      53.173  33.539  52.681  0.00  0.00     0.034 NA
BRANCH  26  27
ATOM     27  C   UNL d   1      53.453  33.081  53.308  0.00  0.00     0.760 A 
ATOM     28  N   UNL d   1      53.407  32.255  53.280  0.00  0.00    -0.059 NA
ATOM     29  C   UNL d   1      53.684  31.794  53.900  0.00  0.00     0.101 A 
ATOM     30  C   UNL d   1      53.637  30.975  53.870  0.00  0.00     0.021 C 
ATOM     31  C   UNL d   1      54.019  32.164  54.575  0.00  0.00     0.040 A 
ATOM     32  C   UNL d   1      54.069  32.987  54.612  0.00  0.00     0.101 A 
ATOM     33  N   UNL d   1      53.788  33.452  53.982  0.00  0.00    -0.059 NA
ATOM     34  C   UNL d   1      54.399  33.353  55.277  0.00  0.00     0.021 C 
ENDBRANCH  26  27
ENDBRANCH  23  26
ENDBRANCH   1  23
TORSDOF 6
ENDMDL
