MODEL 1
REMARK VINA RESULT:      -7.5      0.000      0.000
REMARK  5 active torsions:
REMARK  status: ('A' for Active; 'I' for Inactive)
REMARK    1  A    between atoms: C_2  and  C_1 
REMARK    2  A    between atoms: N_13  and  C_7 
REMARK    3  A    between atoms: C_12  and  C_21 
REMARK    4  A    between atoms: C_21  and  N_13 
REMARK    5  A    between atoms: O_24  and  C_22 
ROOT
ATOM      1  C   UNL d   1     -47.958  13.175  23.052  0.00  0.00     0.089 A 
ATOM      2  C   UNL d   1     -48.471  12.536  22.966  0.00  0.00     0.302 A 
ATOM      3  C   UNL d   1     -48.261  13.945  23.104  0.00  0.00     0.009 A 
ATOM      4  O   UNL d   1     -49.288  12.666  22.933  0.00  0.00    -0.273 OA
ATOM      5  C   UNL d   1     -49.076  14.070  23.070  0.00  0.00     0.025 A 
ATOM      6  C   UNL d   1     -49.589  13.432  22.985  0.00  0.00     0.103 A 
ATOM      7  O   UNL d   1     -48.176  11.759  22.912  0.00  0.00    -0.259 OA
ATOM      8  C   UNL d   1     -49.372  14.835  23.123  0.00  0.00     0.026 A 
ATOM      9  C   UNL d   1     -50.399  13.556  22.951  0.00  0.00     0.027 A 
ATOM     10  C   UNL d   1     -50.193  14.955  23.088  0.00  0.00     0.094 A 
ATOM     11  C   UNL d   1     -50.701  14.323  23.003  0.00  0.00     0.026 A 
ENDROOT
BRANCH   1  12
ATOM     12  C   UNL d   1     -47.141  13.048  23.085  0.00  0.00     0.140 A 
ATOM     13  S   UNL d   1     -46.561  13.304  22.552  0.00  0.00    -0.026 SA
ATOM     14  C   UNL d   1     -45.832  13.038  22.829  0.00  0.00     0.216 A 
ATOM     15  N   UNL d   1     -45.966  12.621  23.527  0.00  0.00    -0.121 NA
ATOM     16  N   UNL d   1     -46.773  12.630  23.682  0.00  0.00    -0.139 NA
BRANCH  14  17
ATOM     17  N   UNL d   1     -45.095  13.162  22.475  0.00  0.00    -0.216 NA
BRANCH  17  18
ATOM     18  C   UNL d   1     -44.770  12.577  21.991  0.00  0.00     0.126 C 
BRANCH  18  19
ATOM     19  C   UNL d   1     -43.971  12.619  21.769  0.00  0.00     0.119 A 
ATOM     20  O   UNL d   1     -43.305  12.182  21.984  0.00  0.00    -0.304 OA
ATOM     21  C   UNL d   1     -42.660  12.480  21.580  0.00  0.00     0.123 A 
ATOM     22  C   UNL d   1     -42.913  13.097  21.116  0.00  0.00     0.029 A 
ATOM     23  C   UNL d   1     -43.731  13.191  21.227  0.00  0.00     0.028 A 
ENDBRANCH  18  19
ENDBRANCH  17  18
ENDBRANCH  14  17
ENDBRANCH   1  12
BRANCH  10  24
ATOM     24  O   UNL d   1     -50.484  15.725  23.141  0.00  0.00    -0.328 OA
ATOM     25  C   UNL d   1     -51.064  15.922  23.698  0.00  0.00     0.181 C 
ENDBRANCH  10  24
TORSDOF 5
ENDMDL
MODEL 2
REMARK VINA RESULT:      -6.0      1.512      2.262
REMARK  5 active torsions:
REMARK  status: ('A' for Active; 'I' for Inactive)
REMARK    1  A    between atoms: C_2  and  C_1 
REMARK    2  A    between atoms: N_13  and  C_7 
REMARK    3  A    between atoms: C_12  and  C_21 
REMARK    4  A    between atoms: C_21  and  N_13 
REMARK    5  A    between atoms: O_24  and  C_22 
ROOT
ATOM      1  C   UNL d   1     -46.314  13.190  22.487  0.00  0.00     0.089 A 
ATOM      2  C   UNL d   1     -46.447  13.770  23.056  0.00  0.00     0.302 A 
ATOM      3  C   UNL d   1     -46.954  12.850  22.085  0.00  0.00     0.009 A 
ATOM      4  O   UNL d   1     -47.222  14.011  23.225  0.00  0.00    -0.273 OA
ATOM      5  C   UNL d   1     -47.724  13.093  22.255  0.00  0.00     0.025 A 
ATOM      6  C   UNL d   1     -47.858  13.672  22.824  0.00  0.00     0.103 A 
ATOM      7  O   UNL d   1     -45.811  14.117  23.466  0.00  0.00    -0.259 OA
ATOM      8  C   UNL d   1     -48.355  12.754  21.854  0.00  0.00     0.026 A 
ATOM      9  C   UNL d   1     -48.623  13.914  22.994  0.00  0.00     0.027 A 
ATOM     10  C   UNL d   1     -49.129  13.002  22.030  0.00  0.00     0.094 A 
ATOM     11  C   UNL d   1     -49.261  13.576  22.593  0.00  0.00     0.026 A 
ENDROOT
BRANCH   1  12
ATOM     12  C   UNL d   1     -45.542  12.947  22.317  0.00  0.00     0.140 A 
ATOM     13  S   UNL d   1     -45.045  13.209  21.707  0.00  0.00    -0.026 SA
ATOM     14  C   UNL d   1     -44.333  12.800  21.772  0.00  0.00     0.216 A 
ATOM     15  N   UNL d   1     -44.394  12.291  22.418  0.00  0.00    -0.121 NA
ATOM     16  N   UNL d   1     -45.139  12.384  22.751  0.00  0.00    -0.139 NA
BRANCH  14  17
ATOM     17  N   UNL d   1     -43.672  12.880  21.282  0.00  0.00    -0.216 NA
BRANCH  17  18
ATOM     18  C   UNL d   1     -42.936  13.055  21.613  0.00  0.00     0.126 C 
BRANCH  18  19
ATOM     19  C   UNL d   1     -42.326  13.353  21.135  0.00  0.00     0.119 A 
ATOM     20  O   UNL d   1     -42.147  13.265  20.335  0.00  0.00    -0.304 OA
ATOM     21  C   UNL d   1     -41.470  13.694  20.173  0.00  0.00     0.123 A 
ATOM     22  C   UNL d   1     -41.224  14.050  20.861  0.00  0.00     0.029 A 
ATOM     23  C   UNL d   1     -41.753  13.843  21.468  0.00  0.00     0.028 A 
ENDBRANCH  18  19
ENDBRANCH  17  18
ENDBRANCH  14  17
ENDBRANCH   1  12
BRANCH  10  24
ATOM     24  O   UNL d   1     -49.758  12.657  21.623  0.00  0.00    -0.328 OA
ATOM     25  C   UNL d   1     -50.430  13.100  21.427  0.00  0.00     0.181 C 
ENDBRANCH  10  24
TORSDOF 5
ENDMDL
MODEL 3
REMARK VINA RESULT:      -5.3      8.600     10.356
REMARK  5 active torsions:
REMARK  status: ('A' for Active; 'I' for Inactive)
REMARK    1  A    between atoms: C_2  and  C_1 
REMARK    2  A    between atoms: N_13  and  C_7 
REMARK    3  A    between atoms: C_12  and  C_21 
REMARK    4  A    between atoms: C_21  and  N_13 
REMARK    5  A    between atoms: O_24  and  C_22 
ROOT
ATOM      1  C   UNL d   1     -39.053  14.174  18.107  0.00  0.00     0.089 A 
ATOM      2  C   UNL d   1     -38.959  13.414  17.806  0.00  0.00     0.302 A 
ATOM      3  C   UNL d   1     -38.880  14.832  17.632  0.00  0.00     0.009 A 
ATOM      4  O   UNL d   1     -38.692  13.308  17.029  0.00  0.00    -0.273 OA
ATOM      5  C   UNL d   1     -38.615  14.722  16.858  0.00  0.00     0.025 A 
ATOM      6  C   UNL d   1     -38.520  13.962  16.557  0.00  0.00     0.103 A 
ATOM      7  O   UNL d   1     -39.129  12.747  18.275  0.00  0.00    -0.259 OA
ATOM      8  C   UNL d   1     -38.445  15.376  16.391  0.00  0.00     0.026 A 
ATOM      9  C   UNL d   1     -38.256  13.853  15.789  0.00  0.00     0.027 A 
ATOM     10  C   UNL d   1     -38.178  15.260  15.613  0.00  0.00     0.094 A 
ATOM     11  C   UNL d   1     -38.084  14.507  15.315  0.00  0.00     0.026 A 
ENDROOT
BRANCH   1  12
ATOM     12  C   UNL d   1     -39.319  14.283  18.883  0.00  0.00     0.140 A 
ATOM     13  S   UNL d   1     -38.867  14.354  19.574  0.00  0.00    -0.026 SA
ATOM     14  C   UNL d   1     -39.389  14.453  20.204  0.00  0.00     0.216 A 
ATOM     15  N   UNL d   1     -40.155  14.443  19.899  0.00  0.00    -0.121 NA
ATOM     16  N   UNL d   1     -40.108  14.337  19.086  0.00  0.00    -0.139 NA
BRANCH  14  17
ATOM     17  N   UNL d   1     -39.188  14.547  21.000  0.00  0.00    -0.216 NA
BRANCH  17  18
ATOM     18  C   UNL d   1     -39.384  13.957  21.544  0.00  0.00     0.126 C 
BRANCH  18  19
ATOM     19  C   UNL d   1     -39.100  13.999  22.323  0.00  0.00     0.119 A 
ATOM     20  O   UNL d   1     -39.021  14.622  22.858  0.00  0.00    -0.304 OA
ATOM     21  C   UNL d   1     -38.703  14.327  23.551  0.00  0.00     0.123 A 
ATOM     22  C   UNL d   1     -38.584  13.529  23.457  0.00  0.00     0.029 A 
ATOM     23  C   UNL d   1     -38.829  13.315  22.693  0.00  0.00     0.028 A 
ENDBRANCH  18  19
ENDBRANCH  17  18
ENDBRANCH  14  17
ENDBRANCH   1  12
BRANCH  10  24
ATOM     24  O   UNL d   1     -38.009  15.921  15.149  0.00  0.00    -0.328 OA
ATOM     25  C   UNL d   1     -37.941  15.855  14.326  0.00  0.00     0.181 C 
ENDBRANCH  10  24
TORSDOF 5
ENDMDL
MODEL 4
REMARK VINA RESULT:      -4.6      8.583      9.412
REMARK  5 active torsions:
REMARK  status: ('A' for Active; 'I' for Inactive)
REMARK    1  A    between atoms: C_2  and  C_1 
REMARK    2  A    between atoms: N_13  and  C_7 
REMARK    3  A    between atoms: C_12  and  C_21 
REMARK    4  A    between atoms: C_21  and  N_13 
REMARK    5  A    between atoms: O_24  and  C_22 
ROOT
ATOM      1  C   UNL d   1     -39.155  15.264  18.531  0.00  0.00     0.089 A 
ATOM      2  C   UNL d   1     -38.728  14.976  17.889  0.00  0.00     0.302 A 
ATOM      3  C   UNL d   1     -39.941  15.510  18.428  0.00  0.00     0.009 A 
ATOM      4  O   UNL d   1     -39.086  14.933  17.142  0.00  0.00    -0.273 OA
ATOM      5  C   UNL d   1     -40.293  15.466  17.683  0.00  0.00     0.025 A 
ATOM      6  C   UNL d   1     -39.866  15.178  17.041  0.00  0.00     0.103 A 
ATOM      7  O   UNL d   1     -37.940  14.726  17.980  0.00  0.00    -0.259 OA
ATOM      8  C   UNL d   1     -41.071  15.711  17.587  0.00  0.00     0.026 A 
ATOM      9  C   UNL d   1     -40.215  15.134  16.301  0.00  0.00     0.027 A 
ATOM     10  C   UNL d   1     -41.421  15.665  16.834  0.00  0.00     0.094 A 
ATOM     11  C   UNL d   1     -40.998  15.379  16.199  0.00  0.00     0.026 A 
ENDROOT
BRANCH   1  12
ATOM     12  C   UNL d   1     -38.802  15.308  19.277  0.00  0.00     0.140 A 
ATOM     13  S   UNL d   1     -38.871  14.775  19.909  0.00  0.00    -0.026 SA
ATOM     14  C   UNL d   1     -38.414  15.064  20.530  0.00  0.00     0.216 A 
ATOM     15  N   UNL d   1     -38.066  15.769  20.279  0.00  0.00    -0.121 NA
ATOM     16  N   UNL d   1     -38.307  15.915  19.508  0.00  0.00    -0.139 NA
BRANCH  14  17
ATOM     17  N   UNL d   1     -38.315  14.716  21.273  0.00  0.00    -0.216 NA
BRANCH  17  18
ATOM     18  C   UNL d   1     -38.770  14.058  21.480  0.00  0.00     0.126 C 
BRANCH  18  19
ATOM     19  C   UNL d   1     -38.618  13.655  22.190  0.00  0.00     0.119 A 
ATOM     20  O   UNL d   1     -38.008  13.156  22.431  0.00  0.00    -0.304 OA
ATOM     21  C   UNL d   1     -38.156  12.921  23.200  0.00  0.00     0.123 A 
ATOM     22  C   UNL d   1     -38.851  13.265  23.442  0.00  0.00     0.029 A 
ATOM     23  C   UNL d   1     -39.148  13.726  22.817  0.00  0.00     0.028 A 
ENDBRANCH  18  19
ENDBRANCH  17  18
ENDBRANCH  14  17
ENDBRANCH   1  12
BRANCH  10  24
ATOM     24  O   UNL d   1     -42.202  15.912  16.744  0.00  0.00    -0.328 OA
ATOM     25  C   UNL d   1     -42.574  15.882  16.005  0.00  0.00     0.181 C 
ENDBRANCH  10  24
TORSDOF 5
ENDMDL
