MODEL 1
REMARK VINA RESULT:      48.2      0.000      0.000
REMARK  5 active torsions:
REMARK  status: ('A' for Active; 'I' for Inactive)
REMARK    1  A    between atoms: C_4  and  N_1 
REMARK    2  A    between atoms: C_8  and  C_3 
REMARK    3  A    between atoms: N_7  and  C_4 
REMARK    4  A    between atoms: C_15  and  N_7 
REMARK    5  A    between atoms: C_17  and  C_15 
ROOT
ATOM      1  N   UNL d   1     -57.405 -98.954 -44.664  0.00  0.00    -0.281 N 
ATOM      2  C   UNL d   1     -58.729 -98.843 -45.158  0.00  0.00     0.080 A 
ATOM      3  C   UNL d   1     -58.211 -98.886 -44.525  0.00  0.00     0.084 A 
ATOM      4  N   UNL d   1     -58.444 -98.868 -45.928  0.00  0.00    -0.301 N 
ATOM      5  C   UNL d   1     -57.118 -98.979 -45.440  0.00  0.00     0.101 A 
ATOM      6  C   UNL d   1     -59.552 -98.774 -45.192  0.00  0.00     0.021 A 
ATOM      7  C   UNL d   1     -59.086 -98.815 -46.444  0.00  0.00     0.080 A 
ATOM      8  C   UNL d   1     -57.645 -98.936 -46.069  0.00  0.00     0.100 A 
ATOM      9  C   UNL d   1     -59.774 -98.757 -45.993  0.00  0.00     0.021 A 
ENDROOT
BRANCH   1  10
ATOM     10  C   UNL d   1     -56.873 -98.998 -44.031  0.00  0.00     0.184 C 
ATOM     11  S   UNL d   1     -57.115 -98.757 -43.287  0.00  0.00    -0.040 SA
BRANCH  10  12
ATOM     12  N   UNL d   1     -56.112 -99.278 -44.148  0.00  0.00    -0.330 N 
ATOM     13  H   UNL d   1     -55.480 -98.939 -43.738  0.00  0.00     0.168 HD
BRANCH  12  14
ATOM     14  C   UNL d   1     -55.977 -99.896 -44.670  0.00  0.00     0.074 C 
BRANCH  14  15
ATOM     15  C   UNL d   1     -55.560-100.558 -44.425  0.00  0.00     0.017 A 
ATOM     16  C   UNL d   1     -55.431-101.188 -44.948  0.00  0.00     0.002 A 
ATOM     17  C   UNL d   1     -55.011-101.851 -44.694  0.00  0.00     0.000 A 
ATOM     18  C   UNL d   1     -54.716-101.895 -43.922  0.00  0.00     0.000 A 
ATOM     19  C   UNL d   1     -54.849-101.260 -43.403  0.00  0.00     0.000 A 
ATOM     20  C   UNL d   1     -55.270-100.594 -43.655  0.00  0.00     0.002 A 
ENDBRANCH  14  15
ENDBRANCH  12  14
ENDBRANCH  10  12
ENDBRANCH   1  10
BRANCH   3  21
ATOM     21  C   UNL d   1     -58.494 -98.861 -43.752  0.00  0.00     0.037 A 
ATOM     22  C   UNL d   1     -57.967 -98.839 -43.118  0.00  0.00     0.100 A 
ATOM     23  N   UNL d   1     -58.258 -98.814 -42.349  0.00  0.00    -0.242 NA
ATOM     24  C   UNL d   1     -59.055 -98.811 -42.204  0.00  0.00     0.099 A 
ATOM     25  C   UNL d   1     -59.590 -98.833 -42.836  0.00  0.00     0.021 A 
ATOM     26  C   UNL d   1     -59.306 -98.858 -43.611  0.00  0.00     0.005 A 
ENDBRANCH   3  21
TORSDOF 5
ENDMDL
