MODEL 1
REMARK VINA RESULT:      15.8      0.000      0.000
REMARK  4 active torsions:
REMARK  status: ('A' for Active; 'I' for Inactive)
REMARK    1  A    between atoms: C_6  and  C_1 
REMARK    2  A    between atoms: C_7  and  C_4 
REMARK    3  A    between atoms: O_10  and  C_6 
REMARK    4  A    between atoms: O_12  and  C_11 
ROOT
ATOM      1  C   UNL d   1     -56.162 -99.437 -44.619  0.00  0.00     0.173 A 
ATOM      2  N   UNL d   1     -56.344 -98.989 -45.291  0.00  0.00    -0.121 NA
ATOM      3  C   UNL d   1     -56.841 -99.478 -44.150  0.00  0.00     0.054 A 
ATOM      4  C   UNL d   1     -57.444 -99.055 -44.532  0.00  0.00     0.127 A 
ATOM      5  O   UNL d   1     -57.132 -98.755 -45.236  0.00  0.00    -0.211 OA
ENDROOT
BRANCH   4   6
ATOM      6  C   UNL d   1     -58.215 -98.956 -44.253  0.00  0.00     0.027 A 
ATOM      7  C   UNL d   1     -58.343 -98.906 -43.440  0.00  0.00     0.026 A 
ATOM      8  C   UNL d   1     -59.106 -98.808 -43.157  0.00  0.00     0.094 A 
ATOM      9  C   UNL d   1     -59.745 -98.759 -43.683  0.00  0.00     0.024 A 
ATOM     10  C   UNL d   1     -59.609 -98.810 -44.492  0.00  0.00     0.002 A 
ATOM     11  C   UNL d   1     -58.847 -98.908 -44.779  0.00  0.00     0.002 A 
BRANCH   8  12
ATOM     12  O   UNL d   1     -59.241 -98.756 -42.339  0.00  0.00    -0.328 OA
ATOM     13  C   UNL d   1     -59.941 -99.058 -42.015  0.00  0.00     0.181 C 
ENDBRANCH   8  12
ENDBRANCH   4   6
BRANCH   1  14
ATOM     14  C   UNL d   1     -55.434 -99.786 -44.438  0.00  0.00     0.316 C 
ATOM     15  O   UNL d   1     -54.740 -99.347 -44.482  0.00  0.00    -0.257 OA
BRANCH  14  16
ATOM     16  O   UNL d   1     -55.412-100.584 -44.212  0.00  0.00    -0.294 OA
ATOM     17  C   UNL d   1     -54.717-101.022 -44.315  0.00  0.00     0.185 C 
ENDBRANCH  14  16
ENDBRANCH   1  14
TORSDOF 4
ENDMDL
