MODEL 1
REMARK VINA RESULT:      27.8      0.000      0.000
REMARK  3 active torsions:
REMARK  status: ('A' for Active; 'I' for Inactive)
REMARK    1  A    between atoms: S_8  and  C_1 
REMARK       I    between atoms: N_4  and  C_5 
REMARK    2  A    between atoms: C_5  and  C_9 
REMARK    3  A    between atoms: C_9  and  S_8 
ROOT
ATOM      1  S   UNL d   1     -54.991 -99.104 -44.555  0.00  0.00    -0.056 SA
ENDROOT
BRANCH   1   2
ATOM      2  C   UNL d   1     -54.927 -99.907 -44.431  0.00  0.00     0.141 A 
ATOM      3  N   UNL d   1     -54.883-100.287 -43.705  0.00  0.00    -0.232 NA
ATOM      4  C   UNL d   1     -54.824-101.094 -43.835  0.00  0.00     0.088 A 
ATOM      5  C   UNL d   1     -54.765-101.730 -43.317  0.00  0.00     0.020 A 
ATOM      6  C   UNL d   1     -54.831-101.223 -44.663  0.00  0.00     0.049 A 
ATOM      7  C   UNL d   1     -54.712-102.507 -43.633  0.00  0.00     0.002 A 
ATOM      8  C   UNL d   1     -54.718-102.631 -44.426  0.00  0.00     0.001 A 
ATOM      9  C   UNL d   1     -54.778-101.985 -44.958  0.00  0.00     0.008 A 
ATOM     10  S   UNL d   1     -54.894-100.491 -45.016  0.00  0.00    -0.060 SA
ENDBRANCH   1   2
BRANCH   1  11
ATOM     11  C   UNL d   1     -55.730 -98.755 -44.646  0.00  0.00     0.098 C 
BRANCH  11  12
ATOM     12  C   UNL d   1     -56.293 -98.758 -44.024  0.00  0.00     0.271 C 
ATOM     13  N   UNL d   1     -57.119 -98.760 -44.188  0.00  0.00    -0.272 N 
ATOM     14  C   UNL d   1     -57.657 -98.763 -43.572  0.00  0.00     0.083 A 
ATOM     15  C   UNL d   1     -57.369 -98.759 -44.963  0.00  0.00     0.083 A 
ATOM     16  C   UNL d   1     -58.451 -98.765 -43.724  0.00  0.00     0.019 A 
ATOM     17  C   UNL d   1     -58.714 -98.764 -44.526  0.00  0.00     0.003 A 
ATOM     18  C   UNL d   1     -58.192 -98.761 -45.125  0.00  0.00     0.019 A 
ATOM     19  O   UNL d   1     -56.010 -98.759 -43.247  0.00  0.00    -0.266 OA
ENDBRANCH  11  12
ENDBRANCH   1  11
TORSDOF 3
ENDMDL
