MODEL 1
REMARK VINA RESULT:      -2.8      0.000      0.000
REMARK  4 active torsions:
REMARK  status: ('A' for Active; 'I' for Inactive)
REMARK    1  A    between atoms: C_8  and  N_1 
REMARK    2  A    between atoms: C_11  and  C_13 
REMARK       I    between atoms: N_14  and  C_11 
REMARK    3  A    between atoms: C_18  and  N_14 
REMARK    4  A    between atoms: C_20  and  C_18 
ROOT
ATOM      1  C   UNL d   1      31.485  17.119 -24.162  0.00  0.00     0.066 A 
ATOM      2  C   UNL d   1      31.760  17.880 -24.003  0.00  0.00     0.022 A 
ATOM      3  C   UNL d   1      32.565  18.050 -24.100  0.00  0.00     0.059 A 
ATOM      4  C   UNL d   1      32.006  16.526 -24.418  0.00  0.00     0.017 A 
ATOM      5  C   UNL d   1      33.086  17.457 -24.356  0.00  0.00     0.005 A 
ATOM      6  C   UNL d   1      32.803  16.701 -24.512  0.00  0.00     0.002 A 
ENDROOT
BRANCH   1   7
ATOM      7  N   UNL d   1      30.688  16.944 -24.068  0.00  0.00    -0.261 N 
ATOM      8  C   UNL d   1      30.553  16.396 -23.470  0.00  0.00     0.174 A 
ATOM      9  O   UNL d   1      29.877  16.035 -23.151  0.00  0.00    -0.316 OA
ATOM     10  C   UNL d   1      29.757  16.985 -24.234  0.00  0.00     0.079 A 
ATOM     11  C   UNL d   1      31.141  16.054 -23.011  0.00  0.00     0.055 C 
ATOM     12  C   UNL d   1      29.068  16.074 -23.298  0.00  0.00     0.094 A 
ATOM     13  C   UNL d   1      28.714  15.553 -22.758  0.00  0.00     0.024 A 
ATOM     14  C   UNL d   1      28.591  16.491 -23.828  0.00  0.00     0.022 A 
ATOM     15  C   UNL d   1      27.896  15.454 -22.752  0.00  0.00     0.002 A 
ATOM     16  C   UNL d   1      27.426  15.875 -23.285  0.00  0.00    -0.000 A 
ATOM     17  C   UNL d   1      27.773  16.393 -23.823  0.00  0.00    -0.001 A 
ATOM     18  C   UNL d   1      28.726  17.039 -24.426  0.00  0.00     0.137 A 
ATOM     19  N   UNL d   1      29.401  17.405 -24.752  0.00  0.00    -0.216 NA
ATOM     20  C   UNL d   1      30.210  17.367 -24.605  0.00  0.00     0.348 A 
ATOM     21  O   UNL d   1      30.646  17.854 -25.097  0.00  0.00    -0.245 OA
ENDBRANCH   1   7
BRANCH   3  22
ATOM     22  C   UNL d   1      32.840  18.812 -23.940  0.00  0.00     0.279 C 
ATOM     23  N   UNL d   1      32.963  19.050 -23.163  0.00  0.00    -0.206 NA
ATOM     24  O   UNL d   1      32.990  19.331 -24.566  0.00  0.00    -0.265 OA
BRANCH  23  25
ATOM     25  C   UNL d   1      33.238  19.814 -23.006  0.00  0.00     0.102 C 
BRANCH  25  26
ATOM     26  C   UNL d   1      33.064  20.170 -22.284  0.00  0.00     0.019 A 
ATOM     27  C   UNL d   1      33.078  19.729 -21.586  0.00  0.00     0.002 A 
ATOM     28  C   UNL d   1      32.902  20.093 -20.868  0.00  0.00     0.000 A 
ATOM     29  C   UNL d   1      32.711  20.893 -20.836  0.00  0.00     0.000 A 
ATOM     30  C   UNL d   1      32.697  21.334 -21.540  0.00  0.00     0.000 A 
ATOM     31  C   UNL d   1      32.872  20.976 -22.259  0.00  0.00     0.002 A 
ENDBRANCH  25  26
ENDBRANCH  23  25
ENDBRANCH   3  22
TORSDOF 4
ENDMDL
MODEL 2
REMARK VINA RESULT:      -1.0      1.262      5.481
REMARK  4 active torsions:
REMARK  status: ('A' for Active; 'I' for Inactive)
REMARK    1  A    between atoms: C_8  and  N_1 
REMARK    2  A    between atoms: C_11  and  C_13 
REMARK       I    between atoms: N_14  and  C_11 
REMARK    3  A    between atoms: C_18  and  N_14 
REMARK    4  A    between atoms: C_20  and  C_18 
ROOT
ATOM      1  C   UNL d   1      32.882  19.575 -23.239  0.00  0.00     0.066 A 
ATOM      2  C   UNL d   1      32.501  18.846 -23.173  0.00  0.00     0.022 A 
ATOM      3  C   UNL d   1      32.472  18.342 -23.830  0.00  0.00     0.059 A 
ATOM      4  C   UNL d   1      33.233  19.805 -23.954  0.00  0.00     0.017 A 
ATOM      5  C   UNL d   1      32.823  18.573 -24.545  0.00  0.00     0.005 A 
ATOM      6  C   UNL d   1      33.201  19.301 -24.602  0.00  0.00     0.002 A 
ENDROOT
BRANCH   1   7
ATOM      7  N   UNL d   1      32.915  20.079 -22.591  0.00  0.00    -0.261 N 
ATOM      8  C   UNL d   1      32.738  20.858 -22.786  0.00  0.00     0.174 A 
ATOM      9  O   UNL d   1      32.691  21.569 -22.362  0.00  0.00    -0.316 OA
ATOM     10  C   UNL d   1      33.040  20.338 -21.689  0.00  0.00     0.079 A 
ATOM     11  C   UNL d   1      32.548  21.116 -23.542  0.00  0.00     0.055 C 
ATOM     12  C   UNL d   1      32.800  21.791 -21.578  0.00  0.00     0.094 A 
ATOM     13  C   UNL d   1      32.659  22.609 -21.551  0.00  0.00     0.024 A 
ATOM     14  C   UNL d   1      33.004  21.394 -20.882  0.00  0.00     0.022 A 
ATOM     15  C   UNL d   1      32.721  23.017 -20.838  0.00  0.00     0.002 A 
ATOM     16  C   UNL d   1      32.925  22.614 -20.147  0.00  0.00    -0.000 A 
ATOM     17  C   UNL d   1      33.066  21.802 -20.169  0.00  0.00    -0.001 A 
ATOM     18  C   UNL d   1      33.181  20.615 -20.687  0.00  0.00     0.137 A 
ATOM     19  N   UNL d   1      33.230  19.897 -21.107  0.00  0.00    -0.216 NA
ATOM     20  C   UNL d   1      33.121  19.675 -21.891  0.00  0.00     0.348 A 
ATOM     21  O   UNL d   1      33.241  18.874 -22.015  0.00  0.00    -0.245 OA
ENDBRANCH   1   7
BRANCH   3  22
ATOM     22  C   UNL d   1      32.091  17.613 -23.764  0.00  0.00     0.279 C 
ATOM     23  N   UNL d   1      31.325  17.523 -24.048  0.00  0.00    -0.206 NA
ATOM     24  O   UNL d   1      32.485  16.977 -23.412  0.00  0.00    -0.265 OA
BRANCH  23  25
ATOM     25  C   UNL d   1      30.945  16.790 -23.981  0.00  0.00     0.102 C 
BRANCH  25  26
ATOM     26  C   UNL d   1      30.122  16.756 -23.987  0.00  0.00     0.019 A 
ATOM     27  C   UNL d   1      29.727  16.121 -23.635  0.00  0.00     0.002 A 
ATOM     28  C   UNL d   1      28.904  16.096 -23.646  0.00  0.00     0.000 A 
ATOM     29  C   UNL d   1      28.467  16.695 -24.003  0.00  0.00     0.000 A 
ATOM     30  C   UNL d   1      28.867  17.331 -24.356  0.00  0.00     0.000 A 
ATOM     31  C   UNL d   1      29.688  17.362 -24.348  0.00  0.00     0.002 A 
ENDBRANCH  25  26
ENDBRANCH  23  25
ENDBRANCH   3  22
TORSDOF 4
ENDMDL
