MODEL 1
REMARK VINA RESULT:      -5.1      0.000      0.000
REMARK  5 active torsions:
REMARK  status: ('A' for Active; 'I' for Inactive)
REMARK    1  A    between atoms: N_4  and  C_1 
REMARK       I    between atoms: C_3  and  N_4 
REMARK    2  A    between atoms: C_8  and  C_3 
REMARK    3  A    between atoms: S_9  and  C_5 
REMARK    4  A    between atoms: C_12  and  S_9 
REMARK    5  A    between atoms: C_15  and  C_12 
ROOT
ATOM      1  C   UNL d   1     -41.130-123.059 -50.618  0.00  0.00     0.219 A 
ATOM      2  S   UNL d   1     -41.128-122.421 -51.193  0.00  0.00    -0.019 SA
ATOM      3  C   UNL d   1     -41.126-122.802 -51.974  0.00  0.00     0.165 A 
ATOM      4  N   UNL d   1     -41.130-123.654 -51.014  0.00  0.00    -0.120 NA
ATOM      5  N   UNL d   1     -41.127-123.483 -51.859  0.00  0.00    -0.133 NA
ENDROOT
BRANCH   1   6
ATOM      6  N   UNL d   1     -41.133-122.963 -49.702  0.00  0.00    -0.181 NA
ATOM      7  C   UNL d   1     -41.696-123.388 -49.218  0.00  0.00     0.282 C 
ATOM      8  O   UNL d   1     -42.148-123.805 -49.539  0.00  0.00    -0.265 OA
BRANCH   7   9
ATOM      9  C   UNL d   1     -41.800-123.389 -48.406  0.00  0.00     0.069 A 
ATOM     10  C   UNL d   1     -42.508-123.136 -48.096  0.00  0.00     0.062 A 
ATOM     11 CL   UNL d   1     -43.171-122.858 -48.632  0.00  0.00    -0.082 Cl
ATOM     12  C   UNL d   1     -42.623-123.133 -47.285  0.00  0.00     0.012 A 
ATOM     13  C   UNL d   1     -42.024-123.385 -46.777  0.00  0.00     0.001 A 
ATOM     14  C   UNL d   1     -41.300-123.644 -47.092  0.00  0.00     0.000 A 
ATOM     15  C   UNL d   1     -41.190-123.645 -47.916  0.00  0.00     0.006 A 
ENDBRANCH   7   9
ENDBRANCH   1   6
BRANCH   3  16
ATOM     16  S   UNL d   1     -41.123-122.489 -52.825  0.00  0.00    -0.059 SA
BRANCH  16  17
ATOM     17  C   UNL d   1     -41.725-122.716 -53.200  0.00  0.00     0.037 C 
BRANCH  17  18
ATOM     18  C   UNL d   1     -41.854-122.457 -53.963  0.00  0.00     0.007 A 
ATOM     19  C   UNL d   1     -42.475-121.952 -54.142  0.00  0.00     0.001 A 
ATOM     20  C   UNL d   1     -42.605-121.690 -54.916  0.00  0.00     0.007 A 
ATOM     21  C   UNL d   1     -42.097-121.945 -55.518  0.00  0.00     0.035 A 
ATOM     22  C   UNL d   1     -41.458-122.464 -55.341  0.00  0.00     0.007 A 
ATOM     23 BR   UNL d   1     -42.213-121.676 -56.378  0.00  0.00    -0.049 Br
ATOM     24  C   UNL d   1     -41.358-122.707 -54.549  0.00  0.00     0.001 A 
ENDBRANCH  17  18
ENDBRANCH  16  17
ENDBRANCH   3  16
TORSDOF 5
ENDMDL
MODEL 2
REMARK VINA RESULT:      -4.4      2.693      6.036
REMARK  5 active torsions:
REMARK  status: ('A' for Active; 'I' for Inactive)
REMARK    1  A    between atoms: N_4  and  C_1 
REMARK       I    between atoms: C_3  and  N_4 
REMARK    2  A    between atoms: C_8  and  C_3 
REMARK    3  A    between atoms: S_9  and  C_5 
REMARK    4  A    between atoms: C_12  and  S_9 
REMARK    5  A    between atoms: C_15  and  C_12 
ROOT
ATOM      1  C   UNL d   1     -41.285-121.826 -52.248  0.00  0.00     0.219 A 
ATOM      2  S   UNL d   1     -41.136-122.512 -51.751  0.00  0.00    -0.019 SA
ATOM      3  C   UNL d   1     -41.302-122.257 -50.937  0.00  0.00     0.165 A 
ATOM      4  N   UNL d   1     -41.486-121.317 -51.790  0.00  0.00    -0.120 NA
ATOM      5  N   UNL d   1     -41.494-121.595 -50.975  0.00  0.00    -0.133 NA
ENDROOT
BRANCH   1   6
ATOM      6  N   UNL d   1     -41.194-121.792 -53.164  0.00  0.00    -0.181 NA
ATOM      7  C   UNL d   1     -41.792-122.123 -53.677  0.00  0.00     0.282 C 
ATOM      8  O   UNL d   1     -42.346-122.417 -53.380  0.00  0.00    -0.265 OA
BRANCH   7   9
ATOM      9  C   UNL d   1     -41.829-122.155 -54.494  0.00  0.00     0.069 A 
ATOM     10  C   UNL d   1     -41.523-122.802 -54.879  0.00  0.00     0.062 A 
ATOM     11 CL   UNL d   1     -41.148-123.476 -54.421  0.00  0.00    -0.082 Cl
ATOM     12  C   UNL d   1     -41.554-122.845 -55.698  0.00  0.00     0.012 A 
ATOM     13  C   UNL d   1     -41.895-122.235 -56.136  0.00  0.00     0.001 A 
ATOM     14  C   UNL d   1     -42.209-121.573 -55.742  0.00  0.00     0.000 A 
ATOM     15  C   UNL d   1     -42.173-121.536 -54.913  0.00  0.00     0.006 A 
ENDBRANCH   7   9
ENDBRANCH   1   6
BRANCH   3  16
ATOM     16  S   UNL d   1     -41.268-122.671 -50.131  0.00  0.00    -0.059 SA
BRANCH  16  17
ATOM     17  C   UNL d   1     -41.950-122.834 -49.880  0.00  0.00     0.037 C 
BRANCH  17  18
ATOM     18  C   UNL d   1     -42.057-123.068 -49.106  0.00  0.00     0.007 A 
ATOM     19  C   UNL d   1     -41.446-123.405 -48.675  0.00  0.00     0.001 A 
ATOM     20  C   UNL d   1     -41.555-123.642 -47.890  0.00  0.00     0.007 A 
ATOM     21  C   UNL d   1     -42.296-123.535 -47.536  0.00  0.00     0.035 A 
ATOM     22  C   UNL d   1     -42.928-123.188 -47.973  0.00  0.00     0.007 A 
ATOM     23 BR   UNL d   1     -42.448-123.784 -46.676  0.00  0.00    -0.049 Br
ATOM     24  C   UNL d   1     -42.780-122.962 -48.762  0.00  0.00     0.001 A 
ENDBRANCH  17  18
ENDBRANCH  16  17
ENDBRANCH   3  16
TORSDOF 5
ENDMDL
