MODEL 1
REMARK VINA RESULT:      -9.1      0.000      0.000
REMARK  7 active torsions:
REMARK  status: ('A' for Active; 'I' for Inactive)
REMARK    1  A    between atoms: C_10  and  N_2 
REMARK    2  A    between atoms: S_11  and  C_5 
REMARK    3  A    between atoms: C_12  and  C_10 
REMARK    4  A    between atoms: C_22  and  S_11 
REMARK    5  A    between atoms: C_14  and  C_22 
REMARK       I    between atoms: N_16  and  C_14 
REMARK    6  A    between atoms: C_23  and  N_16 
REMARK    7  A    between atoms: C_24  and  C_23 
ROOT
ATOM      1  C   UNL d   1      53.534  32.294  53.491  0.00  0.00     0.104 A 
ATOM      2  N   UNL d   1      53.104  33.640  53.325  0.00  0.00    -0.250 N 
ATOM      3  C   UNL d   1      52.782  32.024  53.257  0.00  0.00     0.095 A 
ATOM      4  C   UNL d   1      53.690  33.103  53.524  0.00  0.00     0.274 A 
ATOM      5  C   UNL d   1      52.351  33.370  53.090  0.00  0.00     0.182 A 
ATOM      6  N   UNL d   1      52.193  32.566  53.057  0.00  0.00    -0.222 NA
ATOM      7  S   UNL d   1      54.002  31.620  53.655  0.00  0.00    -0.081 SA
ATOM      8  C   UNL d   1      52.797  31.189  53.280  0.00  0.00     0.024 A 
ATOM      9  C   UNL d   1      53.540  30.943  53.522  0.00  0.00     0.031 A 
ATOM     10  O   UNL d   1      54.448  33.374  53.760  0.00  0.00    -0.266 OA
ATOM     11  C   UNL d   1      52.216  30.628  53.106  0.00  0.00     0.002 A 
ATOM     12  C   UNL d   1      53.724  30.139  53.598  0.00  0.00     0.006 A 
ATOM     13  C   UNL d   1      52.380  29.820  53.176  0.00  0.00     0.000 A 
ATOM     14  C   UNL d   1      53.138  29.577  53.423  0.00  0.00     0.001 A 
ENDROOT
BRANCH   5  15
ATOM     15  S   UNL d   1      51.753  33.917  52.887  0.00  0.00    -0.044 SA
BRANCH  15  16
ATOM     16  C   UNL d   1      50.972  33.647  52.749  0.00  0.00     0.101 C 
BRANCH  16  17
ATOM     17  C   UNL d   1      50.436  34.130  52.356  0.00  0.00     0.286 C 
ATOM     18  N   UNL d   1      49.837  34.504  52.783  0.00  0.00    -0.204 NA
ATOM     19  O   UNL d   1      50.499  34.239  51.541  0.00  0.00    -0.265 OA
BRANCH  18  20
ATOM     20  C   UNL d   1      49.298  34.989  52.389  0.00  0.00     0.127 C 
BRANCH  20  21
ATOM     21  C   UNL d   1      48.788  35.468  52.820  0.00  0.00     0.119 A 
ATOM     22  O   UNL d   1      48.777  35.833  53.561  0.00  0.00    -0.304 OA
ATOM     23  C   UNL d   1      48.070  36.243  53.636  0.00  0.00     0.123 A 
ATOM     24  C   UNL d   1      47.639  36.134  52.939  0.00  0.00     0.029 A 
ATOM     25  C   UNL d   1      48.086  35.657  52.443  0.00  0.00     0.028 A 
ENDBRANCH  20  21
ENDBRANCH  18  20
ENDBRANCH  16  17
ENDBRANCH  15  16
ENDBRANCH   5  15
BRANCH   2  26
ATOM     26  C   UNL d   1      53.257  34.456  53.356  0.00  0.00     0.110 C 
BRANCH  26  27
ATOM     27  C   UNL d   1      53.211  34.863  54.078  0.00  0.00     0.118 A 
ATOM     28  O   UNL d   1      53.452  34.570  54.796  0.00  0.00    -0.304 OA
ATOM     29  C   UNL d   1      53.313  35.134  55.353  0.00  0.00     0.123 A 
ATOM     30  C   UNL d   1      52.990  35.774  54.988  0.00  0.00     0.029 A 
ATOM     31  C   UNL d   1      52.929  35.602  54.205  0.00  0.00     0.028 A 
ENDBRANCH  26  27
ENDBRANCH   2  26
TORSDOF 7
ENDMDL
MODEL 2
REMARK VINA RESULT:      -7.8      1.655      4.943
REMARK  7 active torsions:
REMARK  status: ('A' for Active; 'I' for Inactive)
REMARK    1  A    between atoms: C_10  and  N_2 
REMARK    2  A    between atoms: S_11  and  C_5 
REMARK    3  A    between atoms: C_12  and  C_10 
REMARK    4  A    between atoms: C_22  and  S_11 
REMARK    5  A    between atoms: C_14  and  C_22 
REMARK       I    between atoms: N_16  and  C_14 
REMARK    6  A    between atoms: C_23  and  N_16 
REMARK    7  A    between atoms: C_24  and  C_23 
ROOT
ATOM      1  C   UNL d   1      52.168  34.268  53.294  0.00  0.00     0.104 A 
ATOM      2  N   UNL d   1      53.286  33.395  53.405  0.00  0.00    -0.250 N 
ATOM      3  C   UNL d   1      51.700  33.634  53.022  0.00  0.00     0.095 A 
ATOM      4  C   UNL d   1      52.960  34.143  53.484  0.00  0.00     0.274 A 
ATOM      5  C   UNL d   1      52.819  32.761  53.134  0.00  0.00     0.182 A 
ATOM      6  N   UNL d   1      52.030  32.883  52.944  0.00  0.00    -0.222 NA
ATOM      7  S   UNL d   1      51.682  34.948  53.313  0.00  0.00    -0.081 SA
ATOM      8  C   UNL d   1      50.933  33.934  52.878  0.00  0.00     0.024 A 
ATOM      9  C   UNL d   1      50.922  34.733  53.055  0.00  0.00     0.031 A 
ATOM     10  O   UNL d   1      53.431  34.781  53.757  0.00  0.00    -0.266 OA
ATOM     11  C   UNL d   1      50.247  33.564  52.606  0.00  0.00     0.002 A 
ATOM     12  C   UNL d   1      50.233  35.184  52.966  0.00  0.00     0.006 A 
ATOM     13  C   UNL d   1      49.548  33.997  52.511  0.00  0.00     0.000 A 
ATOM     14  C   UNL d   1      49.544  34.811  52.693  0.00  0.00     0.001 A 
ENDROOT
BRANCH   5  15
ATOM     15  S   UNL d   1      53.150  31.999  53.054  0.00  0.00    -0.044 SA
BRANCH  15  16
ATOM     16  C   UNL d   1      52.667  31.360  52.807  0.00  0.00     0.101 C 
BRANCH  16  17
ATOM     17  C   UNL d   1      52.945  30.589  52.872  0.00  0.00     0.286 C 
ATOM     18  N   UNL d   1      52.905  30.202  53.600  0.00  0.00    -0.204 NA
ATOM     19  O   UNL d   1      53.262  30.207  52.213  0.00  0.00    -0.265 OA
BRANCH  18  20
ATOM     20  C   UNL d   1      53.184  29.429  53.666  0.00  0.00     0.127 C 
BRANCH  20  21
ATOM     21  C   UNL d   1      53.241  29.076  54.406  0.00  0.00     0.119 A 
ATOM     22  O   UNL d   1      52.973  29.226  55.173  0.00  0.00    -0.304 OA
ATOM     23  C   UNL d   1      53.246  28.625  55.663  0.00  0.00     0.123 A 
ATOM     24  C   UNL d   1      53.685  28.100  55.199  0.00  0.00     0.029 A 
ATOM     25  C   UNL d   1      53.678  28.384  54.429  0.00  0.00     0.028 A 
ENDBRANCH  20  21
ENDBRANCH  18  20
ENDBRANCH  16  17
ENDBRANCH  15  16
ENDBRANCH   5  15
BRANCH   2  26
ATOM     26  C   UNL d   1      54.085  33.265  53.596  0.00  0.00     0.110 C 
BRANCH  26  27
ATOM     27  C   UNL d   1      54.335  33.287  54.388  0.00  0.00     0.118 A 
ATOM     28  O   UNL d   1      54.010  32.854  54.992  0.00  0.00    -0.304 OA
ATOM     29  C   UNL d   1      54.408  33.035  55.668  0.00  0.00     0.123 A 
ATOM     30  C   UNL d   1      54.977  33.575  55.489  0.00  0.00     0.029 A 
ATOM     31  C   UNL d   1      54.927  33.727  54.700  0.00  0.00     0.028 A 
ENDBRANCH  26  27
ENDBRANCH   2  26
TORSDOF 7
ENDMDL
MODEL 3
REMARK VINA RESULT:      -7.5      1.181      3.100
REMARK  7 active torsions:
REMARK  status: ('A' for Active; 'I' for Inactive)
REMARK    1  A    between atoms: C_10  and  N_2 
REMARK    2  A    between atoms: S_11  and  C_5 
REMARK    3  A    between atoms: C_12  and  C_10 
REMARK    4  A    between atoms: C_22  and  S_11 
REMARK    5  A    between atoms: C_14  and  C_22 
REMARK       I    between atoms: N_16  and  C_14 
REMARK    6  A    between atoms: C_23  and  N_16 
REMARK    7  A    between atoms: C_24  and  C_23 
ROOT
ATOM      1  C   UNL d   1      53.965  32.680  53.947  0.00  0.00     0.104 A 
ATOM      2  N   UNL d   1      52.905  32.232  53.110  0.00  0.00    -0.250 N 
ATOM      3  C   UNL d   1      53.537  33.374  54.117  0.00  0.00     0.095 A 
ATOM      4  C   UNL d   1      53.645  32.112  53.443  0.00  0.00     0.274 A 
ATOM      5  C   UNL d   1      52.477  32.926  53.280  0.00  0.00     0.182 A 
ATOM      6  N   UNL d   1      52.793  33.493  53.781  0.00  0.00    -0.222 NA
ATOM      7  S   UNL d   1      54.688  32.722  54.365  0.00  0.00    -0.081 SA
ATOM      8  C   UNL d   1      54.003  33.834  54.638  0.00  0.00     0.024 A 
ATOM      9  C   UNL d   1      54.703  33.437  54.788  0.00  0.00     0.031 A 
ATOM     10  O   UNL d   1      54.075  31.413  53.272  0.00  0.00    -0.266 OA
ATOM     11  C   UNL d   1      53.864  34.569  54.988  0.00  0.00     0.002 A 
ATOM     12  C   UNL d   1      55.280  33.758  55.289  0.00  0.00     0.006 A 
ATOM     13  C   UNL d   1      54.427  34.906  55.491  0.00  0.00     0.000 A 
ATOM     14  C   UNL d   1      55.138  34.496  55.640  0.00  0.00     0.001 A 
ENDROOT
BRANCH   5  15
ATOM     15  S   UNL d   1      51.724  33.049  52.941  0.00  0.00    -0.044 SA
BRANCH  15  16
ATOM     16  C   UNL d   1      51.281  33.730  53.147  0.00  0.00     0.101 C 
BRANCH  16  17
ATOM     17  C   UNL d   1      50.711  34.019  52.631  0.00  0.00     0.286 C 
ATOM     18  N   UNL d   1      50.071  34.446  52.929  0.00  0.00    -0.204 NA
ATOM     19  O   UNL d   1      50.780  33.883  51.820  0.00  0.00    -0.265 OA
BRANCH  18  20
ATOM     20  C   UNL d   1      49.498  34.736  52.411  0.00  0.00     0.127 C 
BRANCH  20  21
ATOM     21  C   UNL d   1      48.908  35.235  52.692  0.00  0.00     0.119 A 
ATOM     22  O   UNL d   1      48.750  35.662  53.381  0.00  0.00    -0.304 OA
ATOM     23  C   UNL d   1      48.036  36.055  53.282  0.00  0.00     0.123 A 
ATOM     24  C   UNL d   1      47.747  35.872  52.529  0.00  0.00     0.029 A 
ATOM     25  C   UNL d   1      48.289  35.368  52.173  0.00  0.00     0.028 A 
ENDBRANCH  20  21
ENDBRANCH  18  20
ENDBRANCH  16  17
ENDBRANCH  15  16
ENDBRANCH   5  15
BRANCH   2  26
ATOM     26  C   UNL d   1      52.579  31.661  52.601  0.00  0.00     0.110 C 
BRANCH  26  27
ATOM     27  C   UNL d   1      52.418  30.896  52.879  0.00  0.00     0.118 A 
ATOM     28  O   UNL d   1      51.807  30.699  53.376  0.00  0.00    -0.304 OA
ATOM     29  C   UNL d   1      51.844  29.906  53.512  0.00  0.00     0.123 A 
ATOM     30  C   UNL d   1      52.471  29.610  53.104  0.00  0.00     0.029 A 
ATOM     31  C   UNL d   1      52.821  30.223  52.717  0.00  0.00     0.028 A 
ENDBRANCH  26  27
ENDBRANCH   2  26
TORSDOF 7
ENDMDL
MODEL 4
REMARK VINA RESULT:      -6.3      1.776      4.920
REMARK  7 active torsions:
REMARK  status: ('A' for Active; 'I' for Inactive)
REMARK    1  A    between atoms: C_10  and  N_2 
REMARK    2  A    between atoms: S_11  and  C_5 
REMARK    3  A    between atoms: C_12  and  C_10 
REMARK    4  A    between atoms: C_22  and  S_11 
REMARK    5  A    between atoms: C_14  and  C_22 
REMARK       I    between atoms: N_16  and  C_14 
REMARK    6  A    between atoms: C_23  and  N_16 
REMARK    7  A    between atoms: C_24  and  C_23 
ROOT
ATOM      1  C   UNL d   1      53.208  34.275  53.869  0.00  0.00     0.104 A 
ATOM      2  N   UNL d   1      52.377  33.591  52.939  0.00  0.00    -0.250 N 
ATOM      3  C   UNL d   1      53.536  33.548  54.111  0.00  0.00     0.095 A 
ATOM      4  C   UNL d   1      52.629  34.291  53.283  0.00  0.00     0.274 A 
ATOM      5  C   UNL d   1      52.705  32.864  53.180  0.00  0.00     0.182 A 
ATOM      6  N   UNL d   1      53.281  32.845  53.763  0.00  0.00    -0.222 NA
ATOM      7  S   UNL d   1      53.575  34.877  54.319  0.00  0.00    -0.081 SA
ATOM      8  C   UNL d   1      54.101  33.713  54.705  0.00  0.00     0.024 A 
ATOM      9  C   UNL d   1      54.124  34.522  54.831  0.00  0.00     0.031 A 
ATOM     10  O   UNL d   1      52.298  35.023  53.040  0.00  0.00    -0.266 OA
ATOM     11  C   UNL d   1      54.593  33.215  55.142  0.00  0.00     0.002 A 
ATOM     12  C   UNL d   1      54.635  34.855  55.392  0.00  0.00     0.006 A 
ATOM     13  C   UNL d   1      55.110  33.528  55.707  0.00  0.00     0.000 A 
ATOM     14  C   UNL d   1      55.129  34.353  55.830  0.00  0.00     0.001 A 
ENDROOT
BRANCH   5  15
ATOM     15  S   UNL d   1      52.449  32.150  52.829  0.00  0.00    -0.044 SA
BRANCH  15  16
ATOM     16  C   UNL d   1      52.999  31.533  52.694  0.00  0.00     0.101 C 
BRANCH  16  17
ATOM     17  C   UNL d   1      52.779  30.753  52.831  0.00  0.00     0.286 C 
ATOM     18  N   UNL d   1      53.153  30.324  53.429  0.00  0.00    -0.204 NA
ATOM     19  O   UNL d   1      52.188  30.403  52.373  0.00  0.00    -0.265 OA
BRANCH  18  20
ATOM     20  C   UNL d   1      52.933  29.541  53.567  0.00  0.00     0.127 C 
BRANCH  20  21
ATOM     21  C   UNL d   1      53.109  29.188  54.288  0.00  0.00     0.119 A 
ATOM     22  O   UNL d   1      52.934  29.313  55.085  0.00  0.00    -0.304 OA
ATOM     23  C   UNL d   1      53.306  28.729  55.526  0.00  0.00     0.123 A 
ATOM     24  C   UNL d   1      53.716  28.238  55.002  0.00  0.00     0.029 A 
ATOM     25  C   UNL d   1      53.590  28.526  54.243  0.00  0.00     0.028 A 
ENDBRANCH  20  21
ENDBRANCH  18  20
ENDBRANCH  16  17
ENDBRANCH  15  16
ENDBRANCH   5  15
BRANCH   2  26
ATOM     26  C   UNL d   1      51.793  33.603  52.347  0.00  0.00     0.110 C 
BRANCH  26  27
ATOM     27  C   UNL d   1      51.019  33.840  52.529  0.00  0.00     0.118 A 
ATOM     28  O   UNL d   1      50.580  33.564  53.154  0.00  0.00    -0.304 OA
ATOM     29  C   UNL d   1      49.864  33.930  53.134  0.00  0.00     0.123 A 
ATOM     30  C   UNL d   1      49.853  34.429  52.504  0.00  0.00     0.029 A 
ATOM     31  C   UNL d   1      50.565  34.370  52.135  0.00  0.00     0.028 A 
ENDBRANCH  26  27
ENDBRANCH   2  26
TORSDOF 7
ENDMDL
