MODEL 1
REMARK VINA RESULT:      59.3      0.000      0.000
REMARK  4 active torsions:
REMARK  status: ('A' for Active; 'I' for Inactive)
REMARK    1  A    between atoms: S_10  and  C_6 
REMARK    2  A    between atoms: C_16  and  S_10 
REMARK    3  A    between atoms: C_11  and  C_16 
REMARK       I    between atoms: N_13  and  C_11 
REMARK    4  A    between atoms: C_14  and  N_13 
ROOT
ATOM      1  C   UNL d   1     -56.315-102.668 -39.650  0.00  0.00     0.155 A 
ATOM      2  C   UNL d   1     -55.503-102.740 -39.499  0.00  0.00     0.107 A 
ATOM      3  N   UNL d   1     -56.051-102.672 -41.055  0.00  0.00    -0.250 N 
ATOM      4  C   UNL d   1     -56.587-102.634 -40.424  0.00  0.00     0.285 A 
ATOM      5  N   UNL d   1     -54.966-102.777 -40.131  0.00  0.00    -0.220 NA
ATOM      6  C   UNL d   1     -55.248-102.743 -40.903  0.00  0.00     0.182 A 
ATOM      7  N   UNL d   1     -56.710-102.644 -38.926  0.00  0.00    -0.239 NA
ATOM      8  C   UNL d   1     -55.391-102.761 -38.683  0.00  0.00     0.037 A 
ATOM      9  C   UNL d   1     -56.141-102.701 -38.323  0.00  0.00     0.083 A 
ATOM     10  O   UNL d   1     -57.401-102.562 -40.584  0.00  0.00    -0.265 OA
ATOM     11  C   UNL d   1     -56.325-102.637 -41.839  0.00  0.00     0.104 C 
ATOM     12  C   UNL d   1     -54.716-102.825 -38.216  0.00  0.00     0.003 A 
ATOM     13  C   UNL d   1     -56.208-102.707 -37.496  0.00  0.00     0.019 A 
ATOM     14  C   UNL d   1     -54.782-102.831 -37.390  0.00  0.00     0.000 A 
ATOM     15  C   UNL d   1     -55.524-102.772 -37.035  0.00  0.00     0.002 A 
ENDROOT
BRANCH   6  16
ATOM     16  S   UNL d   1     -54.714-102.780 -41.535  0.00  0.00    -0.044 SA
BRANCH  16  17
ATOM     17  C   UNL d   1     -54.985-102.724 -42.313  0.00  0.00     0.101 C 
BRANCH  17  18
ATOM     18  C   UNL d   1     -54.913-102.014 -42.726  0.00  0.00     0.286 C 
ATOM     19  N   UNL d   1     -54.958-102.020 -43.545  0.00  0.00    -0.208 NA
ATOM     20  O   UNL d   1     -54.798-101.305 -42.331  0.00  0.00    -0.265 OA
BRANCH  19  21
ATOM     21  C   UNL d   1     -54.886-101.308 -43.966  0.00  0.00     0.085 A 
ATOM     22  C   UNL d   1     -54.836-100.602 -43.560  0.00  0.00     0.019 A 
ATOM     23  C   UNL d   1     -54.764 -99.890 -43.981  0.00  0.00     0.002 A 
ATOM     24  C   UNL d   1     -54.711 -99.157 -43.574  0.00  0.00     0.000 C 
ATOM     25  C   UNL d   1     -54.744 -99.898 -44.802  0.00  0.00     0.000 A 
ATOM     26  C   UNL d   1     -54.796-100.618 -45.212  0.00  0.00     0.002 A 
ATOM     27  C   UNL d   1     -54.866-101.317 -44.788  0.00  0.00     0.019 A 
ENDBRANCH  19  21
ENDBRANCH  17  18
ENDBRANCH  16  17
ENDBRANCH   6  16
TORSDOF 4
ENDMDL
MODEL 2
REMARK VINA RESULT:      61.0      2.517      4.115
REMARK  4 active torsions:
REMARK  status: ('A' for Active; 'I' for Inactive)
REMARK    1  A    between atoms: S_10  and  C_6 
REMARK    2  A    between atoms: C_16  and  S_10 
REMARK    3  A    between atoms: C_11  and  C_16 
REMARK       I    between atoms: N_13  and  C_11 
REMARK    4  A    between atoms: C_14  and  N_13 
ROOT
ATOM      1  C   UNL d   1     -55.226-101.699 -43.661  0.00  0.00     0.155 A 
ATOM      2  C   UNL d   1     -54.966-101.143 -43.105  0.00  0.00     0.107 A 
ATOM      3  N   UNL d   1     -55.144-100.706 -44.687  0.00  0.00    -0.250 N 
ATOM      4  C   UNL d   1     -55.314-101.482 -44.449  0.00  0.00     0.285 A 
ATOM      5  N   UNL d   1     -54.796-100.366 -43.344  0.00  0.00    -0.220 NA
ATOM      6  C   UNL d   1     -54.887-100.158 -44.134  0.00  0.00     0.182 A 
ATOM      7  N   UNL d   1     -55.351-102.415 -43.271  0.00  0.00    -0.239 NA
ATOM      8  C   UNL d   1     -54.929-101.510 -42.368  0.00  0.00     0.037 A 
ATOM      9  C   UNL d   1     -55.168-102.303 -42.468  0.00  0.00     0.083 A 
ATOM     10  O   UNL d   1     -55.574-102.035 -45.014  0.00  0.00    -0.265 OA
ATOM     11  C   UNL d   1     -55.233-100.485 -45.483  0.00  0.00     0.104 C 
ATOM     12  C   UNL d   1     -54.712-101.238 -41.622  0.00  0.00     0.003 A 
ATOM     13  C   UNL d   1     -55.188-102.817 -41.818  0.00  0.00     0.019 A 
ATOM     14  C   UNL d   1     -54.732-101.751 -40.972  0.00  0.00     0.000 A 
ATOM     15  C   UNL d   1     -54.968-102.535 -41.071  0.00  0.00     0.002 A 
ENDROOT
BRANCH   6  16
ATOM     16  S   UNL d   1     -54.718 -99.384 -44.375  0.00  0.00    -0.044 SA
BRANCH  16  17
ATOM     17  C   UNL d   1     -55.255 -98.775 -44.229  0.00  0.00     0.101 C 
BRANCH  17  18
ATOM     18  C   UNL d   1     -56.044 -98.856 -44.453  0.00  0.00     0.286 C 
ATOM     19  N   UNL d   1     -56.620 -98.939 -43.875  0.00  0.00    -0.208 NA
ATOM     20  O   UNL d   1     -56.260 -98.856 -45.244  0.00  0.00    -0.265 OA
BRANCH  19  21
ATOM     21  C   UNL d   1     -57.416 -99.021 -44.096  0.00  0.00     0.085 A 
ATOM     22  C   UNL d   1     -58.003 -98.860 -43.553  0.00  0.00     0.019 A 
ATOM     23  C   UNL d   1     -58.800 -98.943 -43.773  0.00  0.00     0.002 A 
ATOM     24  C   UNL d   1     -59.414 -98.780 -43.224  0.00  0.00     0.000 C 
ATOM     25  C   UNL d   1     -58.993 -99.185 -44.534  0.00  0.00     0.000 A 
ATOM     26  C   UNL d   1     -58.393 -99.348 -45.084  0.00  0.00     0.002 A 
ATOM     27  C   UNL d   1     -57.609 -99.264 -44.857  0.00  0.00     0.019 A 
ENDBRANCH  19  21
ENDBRANCH  17  18
ENDBRANCH  16  17
ENDBRANCH   6  16
TORSDOF 4
ENDMDL
