MODEL 1
REMARK VINA RESULT:      -3.1      0.000      0.000
REMARK  5 active torsions:
REMARK  status: ('A' for Active; 'I' for Inactive)
REMARK    1  A    between atoms: N_2  and  S_1 
REMARK    2  A    between atoms: C_6  and  S_1 
REMARK    3  A    between atoms: C_5  and  N_2 
REMARK    4  A    between atoms: C_3  and  C_8 
REMARK    5  A    between atoms: C_7  and  C_4 
ROOT
ATOM      1  S   UNL d   1      30.639  15.980 -24.134  0.00  0.00     0.285 S 
ATOM      2  O   UNL d   1      30.711  15.969 -24.943  0.00  0.00    -0.198 OA
ATOM      3  O   UNL d   1      30.566  15.991 -23.312  0.00  0.00    -0.198 OA
ENDROOT
BRANCH   1   4
ATOM      4  N   UNL d   1      31.455  15.998 -24.061  0.00  0.00    -0.158 NA
BRANCH   4   5
ATOM      5  C   UNL d   1      31.868  16.711 -24.084  0.00  0.00     0.100 A 
ATOM      6  C   UNL d   1      32.631  16.746 -23.885  0.00  0.00     0.083 A 
ATOM      7  C   UNL d   1      33.044  17.460 -23.908  0.00  0.00     0.008 A 
ATOM      8  C   UNL d   1      32.636  18.172 -24.151  0.00  0.00     0.000 A 
ATOM      9  C   UNL d   1      31.873  18.138 -24.350  0.00  0.00     0.002 A 
ATOM     10  C   UNL d   1      31.460  17.389 -24.321  0.00  0.00     0.020 A 
BRANCH   6  11
ATOM     11  C   UNL d   1      33.039  16.069 -23.648  0.00  0.00     0.212 C 
ATOM     12  O   UNL d   1      33.239  15.950 -22.863  0.00  0.00    -0.644 OA
ATOM     13  O   UNL d   1      33.241  15.517 -24.227  0.00  0.00    -0.644 OA
ENDBRANCH   6  11
ENDBRANCH   4   5
ENDBRANCH   1   4
BRANCH   1  14
ATOM     14  C   UNL d   1      29.817  15.962 -24.206  0.00  0.00     0.105 A 
ATOM     15  C   UNL d   1      29.338  16.436 -23.731  0.00  0.00     0.017 A 
ATOM     16  C   UNL d   1      28.546  16.419 -23.801  0.00  0.00     0.072 A 
ATOM     17  C   UNL d   1      28.179  15.927 -24.351  0.00  0.00     0.004 A 
ATOM     18  C   UNL d   1      28.658  15.453 -24.827  0.00  0.00     0.001 A 
ATOM     19  C   UNL d   1      29.450  15.470 -24.757  0.00  0.00     0.013 A 
BRANCH  16  20
ATOM     20  C   UNL d   1      28.065  16.918 -23.299  0.00  0.00     0.419 C 
ATOM     21  F   UNL d   1      27.600  17.425 -22.827  0.00  0.00    -0.166 F 
ATOM     22  F   UNL d   1      28.200  17.579 -23.825  0.00  0.00    -0.166 F 
ATOM     23  F   UNL d   1      27.943  16.271 -22.802  0.00  0.00    -0.166 F 
ENDBRANCH  16  20
ENDBRANCH   1  14
TORSDOF 5
ENDMDL
MODEL 2
REMARK VINA RESULT:      -1.0      3.818      4.958
REMARK  5 active torsions:
REMARK  status: ('A' for Active; 'I' for Inactive)
REMARK    1  A    between atoms: N_2  and  S_1 
REMARK    2  A    between atoms: C_6  and  S_1 
REMARK    3  A    between atoms: C_5  and  N_2 
REMARK    4  A    between atoms: C_3  and  C_8 
REMARK    5  A    between atoms: C_7  and  C_4 
ROOT
ATOM      1  S   UNL d   1      32.620  19.822 -22.373  0.00  0.00     0.285 S 
ATOM      2  O   UNL d   1      32.007  20.206 -22.747  0.00  0.00    -0.198 OA
ATOM      3  O   UNL d   1      33.241  19.433 -21.995  0.00  0.00    -0.198 OA
ENDROOT
BRANCH   1   4
ATOM      4  N   UNL d   1      32.604  20.381 -21.775  0.00  0.00    -0.158 NA
BRANCH   4   5
ATOM      5  C   UNL d   1      32.752  21.177 -21.933  0.00  0.00     0.100 A 
ATOM      6  C   UNL d   1      32.584  21.735 -21.401  0.00  0.00     0.083 A 
ATOM      7  C   UNL d   1      32.733  22.532 -21.559  0.00  0.00     0.008 A 
ATOM      8  C   UNL d   1      33.073  22.752 -22.313  0.00  0.00     0.000 A 
ATOM      9  C   UNL d   1      33.241  22.194 -22.845  0.00  0.00     0.002 A 
ATOM     10  C   UNL d   1      33.081  21.373 -22.665  0.00  0.00     0.020 A 
BRANCH   6  11
ATOM     11  C   UNL d   1      32.256  21.540 -20.669  0.00  0.00     0.212 C 
ATOM     12  O   UNL d   1      32.726  21.458 -20.004  0.00  0.00    -0.644 OA
ATOM     13  O   UNL d   1      31.440  21.430 -20.629  0.00  0.00    -0.644 OA
ENDBRANCH   6  11
ENDBRANCH   4   5
ENDBRANCH   1   4
BRANCH   1  14
ATOM     14  C   UNL d   1      32.635  19.259 -22.977  0.00  0.00     0.105 A 
ATOM     15  C   UNL d   1      32.077  18.652 -23.005  0.00  0.00     0.017 A 
ATOM     16  C   UNL d   1      32.092  18.109 -23.587  0.00  0.00     0.072 A 
ATOM     17  C   UNL d   1      32.665  18.137 -24.179  0.00  0.00     0.004 A 
ATOM     18  C   UNL d   1      33.223  18.744 -24.151  0.00  0.00     0.001 A 
ATOM     19  C   UNL d   1      33.208  19.287 -23.569  0.00  0.00     0.013 A 
BRANCH  16  20
ATOM     20  C   UNL d   1      31.506  17.486 -23.600  0.00  0.00     0.419 C 
ATOM     21  F   UNL d   1      30.954  16.861 -23.610  0.00  0.00    -0.166 F 
ATOM     22  F   UNL d   1      32.122  16.902 -23.501  0.00  0.00    -0.166 F 
ATOM     23  F   UNL d   1      30.922  18.062 -23.695  0.00  0.00    -0.166 F 
ENDBRANCH  16  20
ENDBRANCH   1  14
TORSDOF 5
ENDMDL
MODEL 3
REMARK VINA RESULT:      -0.6      2.471      3.334
REMARK  5 active torsions:
REMARK  status: ('A' for Active; 'I' for Inactive)
REMARK    1  A    between atoms: N_2  and  S_1 
REMARK    2  A    between atoms: C_6  and  S_1 
REMARK    3  A    between atoms: C_5  and  N_2 
REMARK    4  A    between atoms: C_3  and  C_8 
REMARK    5  A    between atoms: C_7  and  C_4 
ROOT
ATOM      1  S   UNL d   1      32.540  18.157 -24.195  0.00  0.00     0.285 S 
ATOM      2  O   UNL d   1      33.239  17.877 -23.890  0.00  0.00    -0.198 OA
ATOM      3  O   UNL d   1      31.830  18.442 -24.505  0.00  0.00    -0.198 OA
ENDROOT
BRANCH   1   4
ATOM      4  N   UNL d   1      32.842  18.918 -24.190  0.00  0.00    -0.158 NA
BRANCH   4   5
ATOM      5  C   UNL d   1      32.961  19.323 -23.481  0.00  0.00     0.100 A 
ATOM      6  C   UNL d   1      33.119  20.096 -23.476  0.00  0.00     0.083 A 
ATOM      7  C   UNL d   1      33.237  20.501 -22.766  0.00  0.00     0.008 A 
ATOM      8  C   UNL d   1      33.188  20.073 -22.026  0.00  0.00     0.000 A 
ATOM      9  C   UNL d   1      33.030  19.300 -22.032  0.00  0.00     0.002 A 
ATOM     10  C   UNL d   1      32.910  18.895 -22.776  0.00  0.00     0.020 A 
BRANCH   6  11
ATOM     11  C   UNL d   1      33.170  20.524 -24.179  0.00  0.00     0.212 C 
ATOM     12  O   UNL d   1      33.241  20.143 -24.901  0.00  0.00    -0.644 OA
ATOM     13  O   UNL d   1      33.148  21.347 -24.134  0.00  0.00    -0.644 OA
ENDBRANCH   6  11
ENDBRANCH   4   5
ENDBRANCH   1   4
BRANCH   1  14
ATOM     14  C   UNL d   1      32.234  17.390 -24.201  0.00  0.00     0.105 A 
ATOM     15  C   UNL d   1      31.483  17.230 -23.903  0.00  0.00     0.017 A 
ATOM     16  C   UNL d   1      31.188  16.491 -23.908  0.00  0.00     0.072 A 
ATOM     17  C   UNL d   1      31.627  15.862 -24.212  0.00  0.00     0.004 A 
ATOM     18  C   UNL d   1      32.379  16.022 -24.511  0.00  0.00     0.001 A 
ATOM     19  C   UNL d   1      32.673  16.761 -24.505  0.00  0.00     0.013 A 
BRANCH  16  20
ATOM     20  C   UNL d   1      30.406  16.343 -23.595  0.00  0.00     0.419 C 
ATOM     21  F   UNL d   1      29.655  16.192 -23.267  0.00  0.00    -0.166 F 
ATOM     22  F   UNL d   1      30.749  16.106 -22.848  0.00  0.00    -0.166 F 
ATOM     23  F   UNL d   1      30.090  16.575 -24.321  0.00  0.00    -0.166 F 
ENDBRANCH  16  20
ENDBRANCH   1  14
TORSDOF 5
ENDMDL
