MODEL 1
REMARK VINA RESULT:      34.0      0.000      0.000
REMARK  2 active torsions:
REMARK  status: ('A' for Active; 'I' for Inactive)
REMARK    1  A    between atoms: C_7  and  C_1 
REMARK    2  A    between atoms: C_9  and  C_1 
ROOT
ATOM      1  C   UNL d   1      14.444  12.716  -1.399  0.00  0.00     0.240 A 
ATOM      2  S   UNL d   1      14.814  13.038  -0.742  0.00  0.00    -0.043 SA
ATOM      3  N   UNL d   1      14.234  13.206  -2.028  0.00  0.00    -0.199 NA
ATOM      4  C   UNL d   1      14.975  13.844  -0.709  0.00  0.00     0.181 A 
ATOM      5  N   UNL d   1      14.765  14.334  -1.338  0.00  0.00    -0.237 N 
ATOM      6  C   UNL d   1      14.393  14.018  -2.001  0.00  0.00     0.352 A 
ATOM      7  N   UNL d   1      15.347  14.161  -0.046  0.00  0.00    -0.221 NA
ATOM      8  O   UNL d   1      14.180  14.502  -2.634  0.00  0.00    -0.244 OA
ATOM      9  C   UNL d   1      14.927  15.141  -1.305  0.00  0.00     0.088 A 
ATOM     10  C   UNL d   1      15.506  14.960  -0.016  0.00  0.00     0.103 A 
ATOM     11  C   UNL d   1      15.295  15.451  -0.646  0.00  0.00     0.040 A 
ENDROOT
BRANCH   1  12
ATOM     12  C   UNL d   1      14.654  12.226  -0.769  0.00  0.00     0.429 C 
ATOM     13  F   UNL d   1      14.834  11.781  -0.193  0.00  0.00    -0.167 F 
ATOM     14  F   UNL d   1      14.159  11.947  -0.127  0.00  0.00    -0.167 F 
ATOM     15  F   UNL d   1      15.407  11.869  -0.589  0.00  0.00    -0.167 F 
ENDBRANCH   1  12
BRANCH   1  16
ATOM     16  C   UNL d   1      14.070  12.405  -2.068  0.00  0.00     0.016 A 
ATOM     17  C   UNL d   1      13.287  12.132  -2.011  0.00  0.00    -0.001 A 
ATOM     18  C   UNL d   1      12.911  11.821  -2.677  0.00  0.00    -0.000 A 
ATOM     19  C   UNL d   1      13.319  11.782  -3.402  0.00  0.00    -0.000 A 
ATOM     20  C   UNL d   1      14.099  12.057  -3.446  0.00  0.00    -0.000 A 
ATOM     21  C   UNL d   1      14.478  12.368  -2.784  0.00  0.00    -0.001 A 
ENDBRANCH   1  16
TORSDOF 2
ENDMDL
MODEL 2
REMARK VINA RESULT:      35.3      8.528      9.160
REMARK  2 active torsions:
REMARK  status: ('A' for Active; 'I' for Inactive)
REMARK    1  A    between atoms: C_7  and  C_1 
REMARK    2  A    between atoms: C_9  and  C_1 
ROOT
ATOM      1  C   UNL d   1      23.822  13.068  -1.580  0.00  0.00     0.240 A 
ATOM      2  S   UNL d   1      23.495  13.332  -0.877  0.00  0.00    -0.043 SA
ATOM      3  N   UNL d   1      23.327  12.877  -2.212  0.00  0.00    -0.199 NA
ATOM      4  C   UNL d   1      22.680  13.406  -0.798  0.00  0.00     0.181 A 
ATOM      5  N   UNL d   1      22.185  13.214  -1.430  0.00  0.00    -0.237 N 
ATOM      6  C   UNL d   1      22.506  12.948  -2.140  0.00  0.00     0.352 A 
ATOM      7  N   UNL d   1      22.358  13.671  -0.088  0.00  0.00    -0.221 NA
ATOM      8  O   UNL d   1      22.017  12.755  -2.776  0.00  0.00    -0.244 OA
ATOM      9  C   UNL d   1      21.368  13.287  -1.351  0.00  0.00     0.088 A 
ATOM     10  C   UNL d   1      21.549  13.743  -0.014  0.00  0.00     0.103 A 
ATOM     11  C   UNL d   1      21.054  13.551  -0.646  0.00  0.00     0.040 A 
ENDROOT
BRANCH   1  12
ATOM     12  C   UNL d   1      24.317  13.260  -0.949  0.00  0.00     0.429 C 
ATOM     13  F   UNL d   1      24.768  13.447  -0.379  0.00  0.00    -0.167 F 
ATOM     14  F   UNL d   1      24.703  14.009  -0.788  0.00  0.00    -0.167 F 
ATOM     15  F   UNL d   1      24.575  12.776  -0.297  0.00  0.00    -0.167 F 
ENDBRANCH   1  12
BRANCH   1  16
ATOM     16  C   UNL d   1      24.138  12.801  -2.297  0.00  0.00     0.016 A 
ATOM     17  C   UNL d   1      24.141  13.305  -2.957  0.00  0.00    -0.001 A 
ATOM     18  C   UNL d   1      24.455  13.041  -3.673  0.00  0.00    -0.000 A 
ATOM     19  C   UNL d   1      24.768  12.272  -3.730  0.00  0.00    -0.000 A 
ATOM     20  C   UNL d   1      24.760  11.779  -3.064  0.00  0.00    -0.000 A 
ATOM     21  C   UNL d   1      24.447  12.038  -2.348  0.00  0.00    -0.001 A 
ENDBRANCH   1  16
TORSDOF 2
ENDMDL
