MODEL 1
REMARK VINA RESULT:      -2.9      0.000      0.000
REMARK  6 active torsions:
REMARK  status: ('A' for Active; 'I' for Inactive)
REMARK    1  A    between atoms: C_3  and  C_1 
REMARK    2  A    between atoms: C_2  and  C_3 
REMARK    3  A    between atoms: C_4  and  C_2 
REMARK    4  A    between atoms: C_7  and  C_4 
REMARK    5  A    between atoms: O_17  and  C_5 
REMARK    6  A    between atoms: O_20  and  C_13 
ROOT
ATOM      1  C   UNL d   1     -41.747-122.855 -53.156  0.00  0.00     0.042 C 
ENDROOT
BRANCH   1   2
ATOM      2  C   UNL d   1     -41.597-123.150 -53.912  0.00  0.00     0.199 C 
ATOM      3  O   UNL d   1     -41.124-123.817 -54.013  0.00  0.00    -0.286 OA
BRANCH   2   4
ATOM      4  C   UNL d   1     -41.924-122.771 -54.571  0.00  0.00     0.079 A 
ATOM      5  C   UNL d   1     -42.670-122.997 -54.849  0.00  0.00     0.199 A 
ATOM      6  C   UNL d   1     -42.997-122.617 -55.511  0.00  0.00     0.043 A 
ATOM      7  O   UNL d   1     -43.095-123.599 -54.474  0.00  0.00    -0.286 OA
ATOM      8  C   UNL d   1     -42.579-122.017 -55.889  0.00  0.00     0.015 A 
ATOM      9  C   UNL d   1     -41.832-121.791 -55.611  0.00  0.00     0.058 A 
ATOM     10  C   UNL d   1     -41.505-122.166 -54.956  0.00  0.00     0.018 A 
ATOM     11 CL   UNL d   1     -41.414-121.191 -55.990  0.00  0.00    -0.082 Cl
ENDBRANCH   2   4
ENDBRANCH   1   2
BRANCH   1  12
ATOM     12  C   UNL d   1     -41.124-122.759 -52.627  0.00  0.00     0.005 C 
BRANCH  12  13
ATOM     13  C   UNL d   1     -41.261-122.817 -51.818  0.00  0.00     0.022 A 
ATOM     14  C   UNL d   1     -41.334-122.131 -51.357  0.00  0.00     0.096 A 
ATOM     15  C   UNL d   1     -41.471-122.188 -50.547  0.00  0.00     0.048 A 
ATOM     16  C   UNL d   1     -41.537-122.928 -50.192  0.00  0.00     0.096 A 
ATOM     17  C   UNL d   1     -41.465-123.616 -50.652  0.00  0.00     0.024 A 
ATOM     18  C   UNL d   1     -41.327-123.554 -51.464  0.00  0.00     0.004 A 
BRANCH  14  19
ATOM     19  O   UNL d   1     -41.268-121.397 -51.710  0.00  0.00    -0.328 OA
ATOM     20  C   UNL d   1     -41.271-120.715 -51.247  0.00  0.00     0.181 C 
ENDBRANCH  14  19
BRANCH  16  21
ATOM     21  O   UNL d   1     -41.674-122.997 -49.387  0.00  0.00    -0.328 OA
ATOM     22  C   UNL d   1     -42.340-123.392 -49.102  0.00  0.00     0.181 C 
ENDBRANCH  16  21
ENDBRANCH  12  13
ENDBRANCH   1  12
TORSDOF 6
ENDMDL
