MODEL 1
REMARK VINA RESULT:       3.0      0.000      0.000
REMARK  8 active torsions:
REMARK  status: ('A' for Active; 'I' for Inactive)
REMARK    1  A    between atoms: O_8  and  C_1 
REMARK    2  A    between atoms: C_10  and  C_5 
REMARK    3  A    between atoms: C_12  and  O_8 
REMARK    4  A    between atoms: N_9  and  C_10 
REMARK    5  A    between atoms: C_25  and  N_14 
REMARK    6  A    between atoms: O_24  and  C_17 
REMARK    7  A    between atoms: C_30  and  O_24 
REMARK    8  A    between atoms: C_29  and  C_25 
ROOT
ATOM      1  C   UNL d   1      29.833  16.627 -24.333  0.00  0.00     0.161 A 
ATOM      2  C   UNL d   1      31.191  17.550 -24.580  0.00  0.00     0.108 A 
ATOM      3  C   UNL d   1      31.220  16.729 -24.713  0.00  0.00     0.064 A 
ATOM      4  C   UNL d   1      30.542  16.272 -24.589  0.00  0.00     0.222 A 
ATOM      5  C   UNL d   1      31.869  18.008 -24.704  0.00  0.00     0.079 A 
ATOM      6  O   UNL d   1      30.494  17.920 -24.325  0.00  0.00    -0.305 OA
ATOM      7  C   UNL d   1      29.809  17.450 -24.201  0.00  0.00     0.126 A 
ATOM      8  C   UNL d   1      31.917  16.380 -24.965  0.00  0.00     0.009 A 
ATOM      9  C   UNL d   1      32.566  17.651 -24.957  0.00  0.00     0.199 A 
ATOM     10  O   UNL d   1      30.566  15.456 -24.720  0.00  0.00    -0.284 OA
ATOM     11  C   UNL d   1      32.590  16.836 -25.087  0.00  0.00     0.042 A 
ATOM     12  O   UNL d   1      33.240  18.108 -25.079  0.00  0.00    -0.286 OA
ATOM     13  C   UNL d   1      29.111  17.807 -23.948  0.00  0.00     0.029 C 
ENDROOT
BRANCH   1  14
ATOM     14  O   UNL d   1      29.159  16.166 -24.211  0.00  0.00    -0.300 OA
BRANCH  14  15
ATOM     15  C   UNL d   1      28.960  15.931 -23.448  0.00  0.00     0.123 A 
ATOM     16  C   UNL d   1      28.171  15.800 -23.252  0.00  0.00     0.123 A 
ATOM     17  C   UNL d   1      27.966  15.566 -22.494  0.00  0.00     0.027 A 
ATOM     18  C   UNL d   1      28.550  15.459 -21.922  0.00  0.00     0.002 A 
ATOM     19  C   UNL d   1      29.350  15.590 -22.117  0.00  0.00     0.002 A 
ATOM     20  C   UNL d   1      29.550  15.825 -22.881  0.00  0.00     0.027 A 
BRANCH  16  21
ATOM     21  O   UNL d   1      27.584  15.907 -23.822  0.00  0.00    -0.303 OA
BRANCH  21  22
ATOM     22  C   UNL d   1      26.892  15.463 -23.783  0.00  0.00     0.123 C 
ATOM     23  C   UNL d   1      26.334  15.505 -24.387  0.00  0.00     0.029 C 
ENDBRANCH  21  22
ENDBRANCH  16  21
ENDBRANCH  14  15
ENDBRANCH   1  14
BRANCH   5  24
ATOM     24  C   UNL d   1      31.853  18.823 -24.575  0.00  0.00     0.086 C 
BRANCH  24  25
ATOM     25  N   UNL d   1      32.161  19.128 -23.867  0.00  0.00    -0.300 N 
ATOM     26  C   UNL d   1      32.942  18.967 -23.648  0.00  0.00     0.100 A 
ATOM     27  C   UNL d   1      33.241  19.271 -22.947  0.00  0.00     0.100 A 
ATOM     28  N   UNL d   1      32.768  19.736 -22.458  0.00  0.00    -0.297 N 
ATOM     29  C   UNL d   1      31.986  19.897 -22.677  0.00  0.00     0.100 A 
ATOM     30  C   UNL d   1      31.678  19.592 -23.386  0.00  0.00     0.100 A 
BRANCH  28  31
ATOM     31  C   UNL d   1      33.068  20.040 -21.755  0.00  0.00     0.126 C 
BRANCH  31  32
ATOM     32  C   UNL d   1      32.623  20.578 -21.317  0.00  0.00     0.253 C 
ATOM     33  O   UNL d   1      32.949  20.932 -20.650  0.00  0.00    -0.281 OA
ENDBRANCH  31  32
ENDBRANCH  28  31
ENDBRANCH  24  25
ENDBRANCH   5  24
TORSDOF 8
ENDMDL
