MODEL 1
REMARK VINA RESULT:      99.3      0.000      0.000
REMARK  5 active torsions:
REMARK  status: ('A' for Active; 'I' for Inactive)
REMARK    1  A    between atoms: S_2  and  N_1 
REMARK    2  A    between atoms: C_10  and  S_2 
REMARK    3  A    between atoms: N_7  and  C_3 
REMARK    4  A    between atoms: C_12  and  C_6 
REMARK    5  A    between atoms: C_13  and  N_7 
ROOT
ATOM      1  N   UNL d   1     -51.458  26.200  35.094  0.00  0.00    -0.176 N 
ATOM      2  C   UNL d   1     -51.960  25.615  34.809  0.00  0.00     0.191 A 
ATOM      3  C   UNL d   1     -51.564  26.278  35.899  0.00  0.00     0.281 A 
ATOM      4  S   UNL d   1     -52.382  25.330  35.459  0.00  0.00    -0.044 SA
ATOM      5  C   UNL d   1     -52.118  25.759  36.130  0.00  0.00     0.089 A 
ATOM      6  O   UNL d   1     -51.172  26.807  36.429  0.00  0.00    -0.265 OA
ENDROOT
BRANCH   1   7
ATOM      7  S   UNL d   1     -50.929  26.643  34.649  0.00  0.00     0.275 S 
ATOM      8  O   UNL d   1     -51.522  26.886  34.115  0.00  0.00    -0.199 OA
ATOM      9  O   UNL d   1     -50.306  26.426  35.159  0.00  0.00    -0.199 OA
BRANCH   7  10
ATOM     10  C   UNL d   1     -50.397  27.083  34.212  0.00  0.00     0.104 A 
ATOM     11  C   UNL d   1     -50.629  27.814  33.892  0.00  0.00     0.013 A 
ATOM     12  C   UNL d   1     -50.106  28.280  33.443  0.00  0.00     0.001 A 
ATOM     13  C   UNL d   1     -49.310  28.002  33.306  0.00  0.00     0.000 A 
ATOM     14  C   UNL d   1     -49.120  27.290  33.631  0.00  0.00     0.001 A 
ATOM     15  C   UNL d   1     -49.629  26.838  34.067  0.00  0.00     0.013 A 
ENDBRANCH   7  10
ENDBRANCH   1   7
BRANCH   2  16
ATOM     16  N   UNL d   1     -51.967  25.424  34.022  0.00  0.00    -0.222 NA
BRANCH  16  17
ATOM     17  C   UNL d   1     -52.240  24.675  33.783  0.00  0.00     0.084 A 
ATOM     18  C   UNL d   1     -51.700  24.098  33.561  0.00  0.00     0.019 A 
ATOM     19  C   UNL d   1     -51.957  23.351  33.321  0.00  0.00     0.002 A 
ATOM     20  C   UNL d   1     -52.785  23.191  33.309  0.00  0.00     0.000 A 
ATOM     21  C   UNL d   1     -53.325  23.769  33.532  0.00  0.00     0.002 A 
ATOM     22  C   UNL d   1     -53.045  24.513  33.769  0.00  0.00     0.019 A 
ENDBRANCH  16  17
ENDBRANCH   2  16
BRANCH   5  23
ATOM     23  C   UNL d   1     -52.362  25.688  36.909  0.00  0.00     0.011 A 
ATOM     24  C   UNL d   1     -51.885  25.949  37.509  0.00  0.00     0.001 A 
ATOM     25  C   UNL d   1     -52.126  25.880  38.297  0.00  0.00     0.000 A 
ATOM     26  C   UNL d   1     -52.850  25.548  38.487  0.00  0.00     0.000 A 
ATOM     27  C   UNL d   1     -53.339  25.280  37.867  0.00  0.00     0.000 A 
ATOM     28  C   UNL d   1     -53.101  25.347  37.076  0.00  0.00     0.001 A 
ENDBRANCH   5  23
TORSDOF 5
ENDMDL
MODEL 2
REMARK VINA RESULT:     101.0      2.066      4.601
REMARK  5 active torsions:
REMARK  status: ('A' for Active; 'I' for Inactive)
REMARK    1  A    between atoms: S_2  and  N_1 
REMARK    2  A    between atoms: C_10  and  S_2 
REMARK    3  A    between atoms: N_7  and  C_3 
REMARK    4  A    between atoms: C_12  and  C_6 
REMARK    5  A    between atoms: C_13  and  N_7 
ROOT
ATOM      1  N   UNL d   1     -49.838  27.291  35.287  0.00  0.00    -0.176 N 
ATOM      2  C   UNL d   1     -49.955  27.388  36.094  0.00  0.00     0.191 A 
ATOM      3  C   UNL d   1     -49.251  27.798  35.036  0.00  0.00     0.281 A 
ATOM      4  S   UNL d   1     -49.424  27.970  36.340  0.00  0.00    -0.044 SA
ATOM      5  C   UNL d   1     -48.994  28.212  35.661  0.00  0.00     0.089 A 
ATOM      6  O   UNL d   1     -48.943  27.894  34.255  0.00  0.00    -0.265 OA
ENDROOT
BRANCH   1   7
ATOM      7  S   UNL d   1     -50.242  26.769  34.798  0.00  0.00     0.275 S 
ATOM      8  O   UNL d   1     -50.840  27.326  34.633  0.00  0.00    -0.199 OA
ATOM      9  O   UNL d   1     -49.666  26.182  34.935  0.00  0.00    -0.199 OA
BRANCH   7  10
ATOM     10  C   UNL d   1     -50.638  26.244  34.313  0.00  0.00     0.104 A 
ATOM     11  C   UNL d   1     -50.208  25.727  33.825  0.00  0.00     0.013 A 
ATOM     12  C   UNL d   1     -50.588  25.184  33.322  0.00  0.00     0.001 A 
ATOM     13  C   UNL d   1     -51.442  25.154  33.306  0.00  0.00     0.000 A 
ATOM     14  C   UNL d   1     -51.826  25.670  33.792  0.00  0.00     0.001 A 
ATOM     15  C   UNL d   1     -51.456  26.197  34.279  0.00  0.00     0.013 A 
ENDBRANCH   7  10
ENDBRANCH   1   7
BRANCH   2  16
ATOM     16  N   UNL d   1     -50.511  26.949  36.487  0.00  0.00    -0.222 NA
BRANCH  16  17
ATOM     17  C   UNL d   1     -50.638  27.078  37.299  0.00  0.00     0.084 A 
ATOM     18  C   UNL d   1     -50.962  26.481  37.760  0.00  0.00     0.019 A 
ATOM     19  C   UNL d   1     -51.094  26.595  38.566  0.00  0.00     0.002 A 
ATOM     20  C   UNL d   1     -50.889  27.338  38.910  0.00  0.00     0.000 A 
ATOM     21  C   UNL d   1     -50.564  27.935  38.449  0.00  0.00     0.002 A 
ATOM     22  C   UNL d   1     -50.440  27.799  37.640  0.00  0.00     0.019 A 
ENDBRANCH  16  17
ENDBRANCH   2  16
BRANCH   5  23
ATOM     23  C   UNL d   1     -48.401  28.776  35.607  0.00  0.00     0.011 A 
ATOM     24  C   UNL d   1     -47.969  28.974  36.263  0.00  0.00     0.001 A 
ATOM     25  C   UNL d   1     -47.370  29.542  36.214  0.00  0.00     0.000 A 
ATOM     26  C   UNL d   1     -47.202  29.915  35.506  0.00  0.00     0.000 A 
ATOM     27  C   UNL d   1     -47.649  29.710  34.832  0.00  0.00     0.000 A 
ATOM     28  C   UNL d   1     -48.250  29.140  34.877  0.00  0.00     0.001 A 
ENDBRANCH   5  23
TORSDOF 5
ENDMDL
MODEL 3
REMARK VINA RESULT:     101.1      2.285      4.234
REMARK  5 active torsions:
REMARK  status: ('A' for Active; 'I' for Inactive)
REMARK    1  A    between atoms: S_2  and  N_1 
REMARK    2  A    between atoms: C_10  and  S_2 
REMARK    3  A    between atoms: N_7  and  C_3 
REMARK    4  A    between atoms: C_12  and  C_6 
REMARK    5  A    between atoms: C_13  and  N_7 
ROOT
ATOM      1  N   UNL d   1     -49.362  27.767  35.417  0.00  0.00    -0.176 N 
ATOM      2  C   UNL d   1     -49.787  27.493  36.065  0.00  0.00     0.191 A 
ATOM      3  C   UNL d   1     -49.620  27.385  34.744  0.00  0.00     0.281 A 
ATOM      4  S   UNL d   1     -50.318  26.930  35.777  0.00  0.00    -0.044 SA
ATOM      5  C   UNL d   1     -50.195  26.880  34.948  0.00  0.00     0.089 A 
ATOM      6  O   UNL d   1     -49.347  27.485  33.950  0.00  0.00    -0.265 OA
ENDROOT
BRANCH   1   7
ATOM      7  S   UNL d   1     -48.768  28.334  35.432  0.00  0.00     0.275 S 
ATOM      8  O   UNL d   1     -49.279  28.931  35.152  0.00  0.00    -0.199 OA
ATOM      9  O   UNL d   1     -48.223  27.769  35.713  0.00  0.00    -0.199 OA
BRANCH   7  10
ATOM     10  C   UNL d   1     -48.172  28.893  35.449  0.00  0.00     0.104 A 
ATOM     11  C   UNL d   1     -48.365  29.702  35.435  0.00  0.00     0.013 A 
ATOM     12  C   UNL d   1     -47.776  30.290  35.451  0.00  0.00     0.001 A 
ATOM     13  C   UNL d   1     -46.954  30.060  35.483  0.00  0.00     0.000 A 
ATOM     14  C   UNL d   1     -46.806  29.269  35.495  0.00  0.00     0.001 A 
ATOM     15  C   UNL d   1     -47.377  28.698  35.479  0.00  0.00     0.013 A 
ENDBRANCH   7  10
ENDBRANCH   1   7
BRANCH   2  16
ATOM     16  N   UNL d   1     -49.640  27.782  36.807  0.00  0.00    -0.222 NA
BRANCH  16  17
ATOM     17  C   UNL d   1     -50.133  27.559  37.439  0.00  0.00     0.084 A 
ATOM     18  C   UNL d   1     -50.480  28.138  37.907  0.00  0.00     0.019 A 
ATOM     19  C   UNL d   1     -50.971  27.932  38.538  0.00  0.00     0.002 A 
ATOM     20  C   UNL d   1     -51.110  27.114  38.693  0.00  0.00     0.000 A 
ATOM     21  C   UNL d   1     -50.763  26.536  38.224  0.00  0.00     0.002 A 
ATOM     22  C   UNL d   1     -50.272  26.765  37.596  0.00  0.00     0.019 A 
ENDBRANCH  16  17
ENDBRANCH   2  16
BRANCH   5  23
ATOM     23  C   UNL d   1     -50.581  26.403  34.404  0.00  0.00     0.011 A 
ATOM     24  C   UNL d   1     -51.385  26.452  34.320  0.00  0.00     0.001 A 
ATOM     25  C   UNL d   1     -51.779  25.974  33.773  0.00  0.00     0.000 A 
ATOM     26  C   UNL d   1     -51.368  25.443  33.306  0.00  0.00     0.000 A 
ATOM     27  C   UNL d   1     -50.540  25.395  33.394  0.00  0.00     0.000 A 
ATOM     28  C   UNL d   1     -50.140  25.873  33.941  0.00  0.00     0.001 A 
ENDBRANCH   5  23
TORSDOF 5
ENDMDL
MODEL 4
REMARK VINA RESULT:     101.9      2.152      2.854
REMARK  5 active torsions:
REMARK  status: ('A' for Active; 'I' for Inactive)
REMARK    1  A    between atoms: S_2  and  N_1 
REMARK    2  A    between atoms: C_10  and  S_2 
REMARK    3  A    between atoms: N_7  and  C_3 
REMARK    4  A    between atoms: C_12  and  C_6 
REMARK    5  A    between atoms: C_13  and  N_7 
ROOT
ATOM      1  N   UNL d   1     -49.478  27.787  36.089  0.00  0.00    -0.176 N 
ATOM      2  C   UNL d   1     -49.920  27.310  35.588  0.00  0.00     0.191 A 
ATOM      3  C   UNL d   1     -49.750  27.701  36.854  0.00  0.00     0.281 A 
ATOM      4  S   UNL d   1     -50.475  26.923  36.060  0.00  0.00    -0.044 SA
ATOM      5  C   UNL d   1     -50.350  27.183  36.849  0.00  0.00     0.089 A 
ATOM      6  O   UNL d   1     -49.466  28.080  37.554  0.00  0.00    -0.265 OA
ENDROOT
BRANCH   1   7
ATOM      7  S   UNL d   1     -48.858  28.278  35.869  0.00  0.00     0.275 S 
ATOM      8  O   UNL d   1     -49.128  28.900  36.354  0.00  0.00    -0.199 OA
ATOM      9  O   UNL d   1     -48.552  27.684  35.371  0.00  0.00    -0.199 OA
BRANCH   7  10
ATOM     10  C   UNL d   1     -48.238  28.761  35.645  0.00  0.00     0.104 A 
ATOM     11  C   UNL d   1     -48.283  29.580  35.781  0.00  0.00     0.013 A 
ATOM     12  C   UNL d   1     -47.665  30.093  35.562  0.00  0.00     0.001 A 
ATOM     13  C   UNL d   1     -46.966  29.773  35.189  0.00  0.00     0.000 A 
ATOM     14  C   UNL d   1     -46.958  28.976  35.073  0.00  0.00     0.001 A 
ATOM     15  C   UNL d   1     -47.558  28.478  35.286  0.00  0.00     0.013 A 
ENDBRANCH   7  10
ENDBRANCH   1   7
BRANCH   2  16
ATOM     16  N   UNL d   1     -49.765  27.290  34.793  0.00  0.00    -0.222 NA
BRANCH  16  17
ATOM     17  C   UNL d   1     -50.232  26.815  34.295  0.00  0.00     0.084 A 
ATOM     18  C   UNL d   1     -50.972  27.081  34.057  0.00  0.00     0.019 A 
ATOM     19  C   UNL d   1     -51.446  26.620  33.563  0.00  0.00     0.002 A 
ATOM     20  C   UNL d   1     -51.156  25.870  33.306  0.00  0.00     0.000 A 
ATOM     21  C   UNL d   1     -50.416  25.606  33.543  0.00  0.00     0.002 A 
ATOM     22  C   UNL d   1     -49.956  26.084  34.040  0.00  0.00     0.019 A 
ENDBRANCH  16  17
ENDBRANCH   2  16
BRANCH   5  23
ATOM     23  C   UNL d   1     -50.754  26.966  37.528  0.00  0.00     0.011 A 
ATOM     24  C   UNL d   1     -50.719  27.433  38.188  0.00  0.00     0.001 A 
ATOM     25  C   UNL d   1     -51.125  27.219  38.875  0.00  0.00     0.000 A 
ATOM     26  C   UNL d   1     -51.570  26.533  38.904  0.00  0.00     0.000 A 
ATOM     27  C   UNL d   1     -51.605  26.054  38.222  0.00  0.00     0.000 A 
ATOM     28  C   UNL d   1     -51.199  26.265  37.530  0.00  0.00     0.001 A 
ENDBRANCH   5  23
TORSDOF 5
ENDMDL
