MODEL 1
REMARK VINA RESULT:      -2.9      0.000      0.000
REMARK  3 active torsions:
REMARK  status: ('A' for Active; 'I' for Inactive)
REMARK    1  A    between atoms: N_2  and  C_1 
REMARK    2  A    between atoms: C_5  and  C_1 
REMARK    3  A    between atoms: C_3  and  N_2 
ROOT
ATOM      1  N   UNL d   1      30.513  17.639 -24.357  0.00  0.00    -0.233 NA
ENDROOT
BRANCH   1   2
ATOM      2  C   UNL d   1      31.265  17.334 -24.442  0.00  0.00     0.153 C 
ATOM      3  S   UNL d   1      31.377  16.547 -24.672  0.00  0.00    -0.056 SA
BRANCH   2   4
ATOM      4  C   UNL d   1      31.923  17.810 -24.299  0.00  0.00     0.109 A 
ATOM      5  N   UNL d   1      32.183  18.340 -24.879  0.00  0.00    -0.242 NA
ATOM      6  C   UNL d   1      32.840  18.815 -24.735  0.00  0.00     0.099 A 
ATOM      7  C   UNL d   1      33.239  18.764 -24.015  0.00  0.00     0.021 A 
ATOM      8  C   UNL d   1      32.985  18.237 -23.430  0.00  0.00     0.003 A 
ATOM      9  C   UNL d   1      32.325  17.758 -23.572  0.00  0.00     0.021 A 
ENDBRANCH   2   4
ENDBRANCH   1   2
BRANCH   1  10
ATOM     10  C   UNL d   1      29.883  17.135 -24.162  0.00  0.00     0.082 A 
ATOM     11  C   UNL d   1      29.154  17.238 -24.536  0.00  0.00     0.018 A 
ATOM     12  C   UNL d   1      28.525  16.733 -24.341  0.00  0.00     0.002 A 
ATOM     13  C   UNL d   1      29.050  17.832 -25.096  0.00  0.00     0.002 C 
ATOM     14  C   UNL d   1      28.629  16.139 -23.782  0.00  0.00     0.000 A 
ATOM     15  C   UNL d   1      29.366  16.048 -23.415  0.00  0.00     0.002 A 
ATOM     16  C   UNL d   1      29.990  16.547 -23.607  0.00  0.00     0.019 A 
ATOM     17  C   UNL d   1      29.478  15.453 -22.851  0.00  0.00     0.000 C 
ENDBRANCH   1  10
TORSDOF 3
ENDMDL
MODEL 2
REMARK VINA RESULT:      -2.1      1.429      3.785
REMARK  3 active torsions:
REMARK  status: ('A' for Active; 'I' for Inactive)
REMARK    1  A    between atoms: N_2  and  C_1 
REMARK    2  A    between atoms: C_5  and  C_1 
REMARK    3  A    between atoms: C_3  and  N_2 
ROOT
ATOM      1  N   UNL d   1      32.397  18.081 -24.120  0.00  0.00    -0.233 NA
ENDROOT
BRANCH   1   2
ATOM      2  C   UNL d   1      32.469  17.369 -23.728  0.00  0.00     0.153 C 
ATOM      3  S   UNL d   1      33.157  17.189 -23.306  0.00  0.00    -0.056 SA
BRANCH   2   4
ATOM      4  C   UNL d   1      31.854  16.822 -23.750  0.00  0.00     0.109 A 
ATOM      5  N   UNL d   1      31.283  16.865 -24.347  0.00  0.00    -0.242 NA
ATOM      6  C   UNL d   1      30.668  16.318 -24.368  0.00  0.00     0.099 A 
ATOM      7  C   UNL d   1      30.621  15.726 -23.794  0.00  0.00     0.021 A 
ATOM      8  C   UNL d   1      31.187  15.676 -23.194  0.00  0.00     0.003 A 
ATOM      9  C   UNL d   1      31.806  16.225 -23.171  0.00  0.00     0.021 A 
ENDBRANCH   2   4
ENDBRANCH   1   2
BRANCH   1  10
ATOM     10  C   UNL d   1      32.678  18.778 -23.766  0.00  0.00     0.082 A 
ATOM     11  C   UNL d   1      32.957  19.389 -24.245  0.00  0.00     0.018 A 
ATOM     12  C   UNL d   1      33.237  20.085 -23.890  0.00  0.00     0.002 A 
ATOM     13  C   UNL d   1      32.958  19.313 -25.064  0.00  0.00     0.002 C 
ATOM     14  C   UNL d   1      33.236  20.162 -23.071  0.00  0.00     0.000 A 
ATOM     15  C   UNL d   1      32.953  19.539 -22.604  0.00  0.00     0.002 A 
ATOM     16  C   UNL d   1      32.675  18.850 -22.953  0.00  0.00     0.019 A 
ATOM     17  C   UNL d   1      32.948  19.609 -21.779  0.00  0.00     0.000 C 
ENDBRANCH   1  10
TORSDOF 3
ENDMDL
MODEL 3
REMARK VINA RESULT:      -1.9      6.268      7.649
REMARK  3 active torsions:
REMARK  status: ('A' for Active; 'I' for Inactive)
REMARK    1  A    between atoms: N_2  and  C_1 
REMARK    2  A    between atoms: C_5  and  C_1 
REMARK    3  A    between atoms: C_3  and  N_2 
ROOT
ATOM      1  N   UNL d   1      32.369  22.409 -19.827  0.00  0.00    -0.233 NA
ENDROOT
BRANCH   1   2
ATOM      2  C   UNL d   1      32.662  23.081 -19.469  0.00  0.00     0.153 C 
ATOM      3  S   UNL d   1      32.964  23.702 -19.924  0.00  0.00    -0.056 SA
BRANCH   2   4
ATOM      4  C   UNL d   1      32.658  23.147 -18.648  0.00  0.00     0.109 A 
ATOM      5  N   UNL d   1      32.076  23.599 -18.272  0.00  0.00    -0.242 NA
ATOM      6  C   UNL d   1      32.073  23.664 -17.452  0.00  0.00     0.099 A 
ATOM      7  C   UNL d   1      32.649  23.281 -17.003  0.00  0.00     0.021 A 
ATOM      8  C   UNL d   1      33.235  22.827 -17.371  0.00  0.00     0.003 A 
ATOM      9  C   UNL d   1      33.240  22.760 -18.196  0.00  0.00     0.021 A 
ENDBRANCH   2   4
ENDBRANCH   1   2
BRANCH   1  10
ATOM     10  C   UNL d   1      32.540  22.258 -20.626  0.00  0.00     0.082 A 
ATOM     11  C   UNL d   1      32.674  21.482 -20.870  0.00  0.00     0.018 A 
ATOM     12  C   UNL d   1      32.845  21.332 -21.669  0.00  0.00     0.002 A 
ATOM     13  C   UNL d   1      32.641  20.861 -20.331  0.00  0.00     0.002 C 
ATOM     14  C   UNL d   1      32.878  21.953 -22.208  0.00  0.00     0.000 A 
ATOM     15  C   UNL d   1      32.740  22.728 -21.947  0.00  0.00     0.002 A 
ATOM     16  C   UNL d   1      32.572  22.877 -21.157  0.00  0.00     0.019 A 
ATOM     17  C   UNL d   1      32.772  23.357 -22.484  0.00  0.00     0.000 C 
ENDBRANCH   1  10
TORSDOF 3
ENDMDL
MODEL 4
REMARK VINA RESULT:      -1.7      4.198      5.933
REMARK  3 active torsions:
REMARK  status: ('A' for Active; 'I' for Inactive)
REMARK    1  A    between atoms: N_2  and  C_1 
REMARK    2  A    between atoms: C_5  and  C_1 
REMARK    3  A    between atoms: C_3  and  N_2 
ROOT
ATOM      1  N   UNL d   1      32.884  21.644 -22.138  0.00  0.00    -0.233 NA
ENDROOT
BRANCH   1   2
ATOM      2  C   UNL d   1      33.079  20.912 -21.833  0.00  0.00     0.153 C 
ATOM      3  S   UNL d   1      33.241  20.822 -21.027  0.00  0.00    -0.056 SA
BRANCH   2   4
ATOM      4  C   UNL d   1      33.117  20.255 -22.328  0.00  0.00     0.109 A 
ATOM      5  N   UNL d   1      33.203  20.357 -23.145  0.00  0.00    -0.242 NA
ATOM      6  C   UNL d   1      33.241  19.700 -23.639  0.00  0.00     0.099 A 
ATOM      7  C   UNL d   1      33.192  18.940 -23.322  0.00  0.00     0.021 A 
ATOM      8  C   UNL d   1      33.105  18.828 -22.507  0.00  0.00     0.003 A 
ATOM      9  C   UNL d   1      33.067  19.487 -22.008  0.00  0.00     0.021 A 
ENDBRANCH   2   4
ENDBRANCH   1   2
BRANCH   1  10
ATOM     10  C   UNL d   1      32.789  22.292 -21.628  0.00  0.00     0.082 A 
ATOM     11  C   UNL d   1      32.781  23.055 -21.943  0.00  0.00     0.018 A 
ATOM     12  C   UNL d   1      32.686  23.702 -21.432  0.00  0.00     0.002 A 
ATOM     13  C   UNL d   1      32.865  23.175 -22.752  0.00  0.00     0.002 C 
ATOM     14  C   UNL d   1      32.602  23.582 -20.623  0.00  0.00     0.000 A 
ATOM     15  C   UNL d   1      32.612  22.810 -20.321  0.00  0.00     0.002 A 
ATOM     16  C   UNL d   1      32.706  22.168 -20.825  0.00  0.00     0.019 A 
ATOM     17  C   UNL d   1      32.528  22.681 -19.508  0.00  0.00     0.000 C 
ENDBRANCH   1  10
TORSDOF 3
ENDMDL
MODEL 5
REMARK VINA RESULT:      -0.8      3.948      5.447
REMARK  3 active torsions:
REMARK  status: ('A' for Active; 'I' for Inactive)
REMARK    1  A    between atoms: N_2  and  C_1 
REMARK    2  A    between atoms: C_5  and  C_1 
REMARK    3  A    between atoms: C_3  and  N_2 
ROOT
ATOM      1  N   UNL d   1      32.957  21.259 -22.005  0.00  0.00    -0.233 NA
ENDROOT
BRANCH   1   2
ATOM      2  C   UNL d   1      33.029  21.059 -21.218  0.00  0.00     0.153 C 
ATOM      3  S   UNL d   1      33.238  20.290 -20.997  0.00  0.00    -0.056 SA
BRANCH   2   4
ATOM      4  C   UNL d   1      32.893  21.624 -20.633  0.00  0.00     0.109 A 
ATOM      5  N   UNL d   1      32.412  22.277 -20.794  0.00  0.00    -0.242 NA
ATOM      6  C   UNL d   1      32.277  22.842 -20.210  0.00  0.00     0.099 A 
ATOM      7  C   UNL d   1      32.620  22.756 -19.465  0.00  0.00     0.021 A 
ATOM      8  C   UNL d   1      33.102  22.106 -19.295  0.00  0.00     0.003 A 
ATOM      9  C   UNL d   1      33.240  21.538 -19.881  0.00  0.00     0.021 A 
ENDBRANCH   2   4
ENDBRANCH   1   2
BRANCH   1  10
ATOM     10  C   UNL d   1      33.032  20.673 -22.589  0.00  0.00     0.082 A 
ATOM     11  C   UNL d   1      33.164  20.900 -23.372  0.00  0.00     0.018 A 
ATOM     12  C   UNL d   1      33.239  20.313 -23.955  0.00  0.00     0.002 A 
ATOM     13  C   UNL d   1      33.220  21.695 -23.575  0.00  0.00     0.002 C 
ATOM     14  C   UNL d   1      33.183  19.518 -23.752  0.00  0.00     0.000 A 
ATOM     15  C   UNL d   1      33.051  19.307 -22.961  0.00  0.00     0.002 A 
ATOM     16  C   UNL d   1      32.976  19.886 -22.383  0.00  0.00     0.019 A 
ATOM     17  C   UNL d   1      32.993  18.509 -22.750  0.00  0.00     0.000 C 
ENDBRANCH   1  10
TORSDOF 3
ENDMDL
