MODEL 1
REMARK VINA RESULT:      -8.3      0.000      0.000
REMARK  4 active torsions:
REMARK  status: ('A' for Active; 'I' for Inactive)
REMARK    1  A    between atoms: C_2  and  N_1 
REMARK    2  A    between atoms: C_12  and  C_5 
REMARK    3  A    between atoms: O_20  and  C_12 
REMARK    4  A    between atoms: C_21  and  C_13 
ROOT
ATOM      1  N   UNL d   1     -48.485  13.719  22.976  0.00  0.00    -0.237 N 
ATOM      2  C   UNL d   1     -47.810  14.081  22.639  0.00  0.00     0.263 A 
ATOM      3  C   UNL d   1     -48.248  13.000  23.321  0.00  0.00     0.263 A 
ATOM      4  C   UNL d   1     -47.434  12.916  23.200  0.00  0.00     0.039 A 
ATOM      5  C   UNL d   1     -47.164  13.587  22.777  0.00  0.00     0.039 A 
ATOM      6  C   UNL d   1     -46.896  12.312  23.420  0.00  0.00     0.049 A 
ATOM      7  C   UNL d   1     -46.353  13.658  22.571  0.00  0.00     0.049 A 
ATOM      8  C   UNL d   1     -46.079  12.391  23.208  0.00  0.00    -0.026 A 
ATOM      9  C   UNL d   1     -45.817  13.062  22.787  0.00  0.00    -0.026 A 
ATOM     10  C   UNL d   1     -47.005  13.010  23.060  0.00  0.00     0.018 A 
ATOM     11  O   UNL d   1     -48.727  12.496  23.696  0.00  0.00    -0.267 OA
ATOM     12  O   UNL d   1     -47.802  14.772  22.259  0.00  0.00    -0.267 OA
ENDROOT
BRANCH   1  13
ATOM     13  C   UNL d   1     -49.230  14.020  22.965  0.00  0.00     0.105 A 
ATOM     14  C   UNL d   1     -49.777  13.878  22.407  0.00  0.00     0.086 A 
ATOM     15  C   UNL d   1     -50.441  14.283  22.603  0.00  0.00     0.014 A 
ATOM     16  C   UNL d   1     -50.289  14.666  23.279  0.00  0.00     0.031 A 
ATOM     17  S   UNL d   1     -49.550  14.511  23.507  0.00  0.00    -0.069 SA
BRANCH  14  18
ATOM     18  C   UNL d   1     -49.683  13.414  21.765  0.00  0.00     0.298 C 
ATOM     19  O   UNL d   1     -49.308  13.694  21.118  0.00  0.00    -0.259 OA
BRANCH  18  20
ATOM     20  O   UNL d   1     -49.966  12.659  21.768  0.00  0.00    -0.296 OA
ATOM     21  C   UNL d   1     -50.258  12.439  21.067  0.00  0.00     0.185 C 
ENDBRANCH  18  20
ENDBRANCH  14  18
BRANCH  16  22
ATOM     22  C   UNL d   1     -50.861  15.121  23.608  0.00  0.00     0.006 C 
ATOM     23  C   UNL d   1     -50.749  15.922  23.698  0.00  0.00     0.001 C 
ENDBRANCH  16  22
ENDBRANCH   1  13
TORSDOF 4
ENDMDL
MODEL 2
REMARK VINA RESULT:      -8.3      0.160      1.118
REMARK  4 active torsions:
REMARK  status: ('A' for Active; 'I' for Inactive)
REMARK    1  A    between atoms: C_2  and  N_1 
REMARK    2  A    between atoms: C_12  and  C_5 
REMARK    3  A    between atoms: O_20  and  C_12 
REMARK    4  A    between atoms: C_21  and  C_13 
ROOT
ATOM      1  N   UNL d   1     -48.495  13.642  23.055  0.00  0.00    -0.237 N 
ATOM      2  C   UNL d   1     -48.316  12.888  23.370  0.00  0.00     0.263 A 
ATOM      3  C   UNL d   1     -47.789  13.977  22.770  0.00  0.00     0.263 A 
ATOM      4  C   UNL d   1     -47.177  13.437  22.907  0.00  0.00     0.039 A 
ATOM      5  C   UNL d   1     -47.506  12.762  23.279  0.00  0.00     0.039 A 
ATOM      6  C   UNL d   1     -46.356  13.469  22.741  0.00  0.00     0.049 A 
ATOM      7  C   UNL d   1     -47.015  12.115  23.488  0.00  0.00     0.049 A 
ATOM      8  C   UNL d   1     -45.867  12.811  22.955  0.00  0.00    -0.026 A 
ATOM      9  C   UNL d   1     -46.201  12.142  23.326  0.00  0.00    -0.026 A 
ATOM     10  C   UNL d   1     -46.961  13.054  23.044  0.00  0.00     0.018 A 
ATOM     11  O   UNL d   1     -47.728  14.688  22.431  0.00  0.00    -0.267 OA
ATOM     12  O   UNL d   1     -48.836  12.392  23.695  0.00  0.00    -0.267 OA
ENDROOT
BRANCH   1  13
ATOM     13  C   UNL d   1     -49.225  13.977  23.035  0.00  0.00     0.105 A 
ATOM     14  C   UNL d   1     -49.755  13.895  22.449  0.00  0.00     0.086 A 
ATOM     15  C   UNL d   1     -50.408  14.318  22.646  0.00  0.00     0.014 A 
ATOM     16  C   UNL d   1     -50.266  14.652  23.348  0.00  0.00     0.031 A 
ATOM     17  S   UNL d   1     -49.544  14.449  23.594  0.00  0.00    -0.069 SA
BRANCH  14  18
ATOM     18  C   UNL d   1     -49.656  13.467  21.784  0.00  0.00     0.298 C 
ATOM     19  O   UNL d   1     -49.244  13.767  21.169  0.00  0.00    -0.259 OA
BRANCH  18  20
ATOM     20  O   UNL d   1     -49.971  12.726  21.730  0.00  0.00    -0.296 OA
ATOM     21  C   UNL d   1     -50.218  12.551  21.000  0.00  0.00     0.185 C 
ENDBRANCH  18  20
ENDBRANCH  14  18
BRANCH  16  22
ATOM     22  C   UNL d   1     -50.830  15.112  23.684  0.00  0.00     0.006 C 
ATOM     23  C   UNL d   1     -50.745  15.922  23.698  0.00  0.00     0.001 C 
ENDBRANCH  16  22
ENDBRANCH   1  13
TORSDOF 4
ENDMDL
MODEL 3
REMARK VINA RESULT:      -7.4      1.309      3.274
REMARK  4 active torsions:
REMARK  status: ('A' for Active; 'I' for Inactive)
REMARK    1  A    between atoms: C_2  and  N_1 
REMARK    2  A    between atoms: C_12  and  C_5 
REMARK    3  A    between atoms: O_20  and  C_12 
REMARK    4  A    between atoms: C_21  and  C_13 
ROOT
ATOM      1  N   UNL d   1     -49.122  13.429  23.234  0.00  0.00    -0.237 N 
ATOM      2  C   UNL d   1     -48.863  14.216  23.121  0.00  0.00     0.263 A 
ATOM      3  C   UNL d   1     -49.921  13.451  23.463  0.00  0.00     0.263 A 
ATOM      4  C   UNL d   1     -50.157  14.243  23.491  0.00  0.00     0.039 A 
ATOM      5  C   UNL d   1     -49.499  14.717  23.279  0.00  0.00     0.039 A 
ATOM      6  C   UNL d   1     -50.890  14.602  23.683  0.00  0.00     0.049 A 
ATOM      7  C   UNL d   1     -49.570  15.553  23.257  0.00  0.00     0.049 A 
ATOM      8  C   UNL d   1     -50.954  15.447  23.659  0.00  0.00    -0.026 A 
ATOM      9  C   UNL d   1     -50.294  15.913  23.447  0.00  0.00    -0.026 A 
ATOM     10  C   UNL d   1     -50.135  14.703  23.462  0.00  0.00     0.018 A 
ATOM     11  O   UNL d   1     -50.366  12.817  23.622  0.00  0.00    -0.267 OA
ATOM     12  O   UNL d   1     -48.136  14.433  22.902  0.00  0.00    -0.267 OA
ENDROOT
BRANCH   1  13
ATOM     13  C   UNL d   1     -48.670  12.771  23.138  0.00  0.00     0.105 A 
ATOM     14  C   UNL d   1     -48.598  12.355  22.465  0.00  0.00     0.086 A 
ATOM     15  C   UNL d   1     -48.099  11.743  22.605  0.00  0.00     0.014 A 
ATOM     16  C   UNL d   1     -47.874  11.796  23.362  0.00  0.00     0.031 A 
ATOM     17  S   UNL d   1     -48.219  12.422  23.696  0.00  0.00    -0.069 SA
BRANCH  14  18
ATOM     18  C   UNL d   1     -48.959  12.517  21.773  0.00  0.00     0.298 C 
ATOM     19  O   UNL d   1     -49.732  12.344  21.670  0.00  0.00    -0.259 OA
BRANCH  18  20
ATOM     20  O   UNL d   1     -48.543  12.859  21.172  0.00  0.00    -0.296 OA
ATOM     21  C   UNL d   1     -48.807  12.648  20.457  0.00  0.00     0.185 C 
ENDBRANCH  18  20
ENDBRANCH  14  18
BRANCH  16  22
ATOM     22  C   UNL d   1     -47.368  11.249  23.659  0.00  0.00     0.006 C 
ATOM     23  C   UNL d   1     -46.569  11.403  23.692  0.00  0.00     0.001 C 
ENDBRANCH  16  22
ENDBRANCH   1  13
TORSDOF 4
ENDMDL
MODEL 4
REMARK VINA RESULT:      -7.2      8.434     10.093
REMARK  4 active torsions:
REMARK  status: ('A' for Active; 'I' for Inactive)
REMARK    1  A    between atoms: C_2  and  N_1 
REMARK    2  A    between atoms: C_12  and  C_5 
REMARK    3  A    between atoms: O_20  and  C_12 
REMARK    4  A    between atoms: C_21  and  C_13 
ROOT
ATOM      1  N   UNL d   1     -39.779  14.593  18.935  0.00  0.00    -0.237 N 
ATOM      2  C   UNL d   1     -39.449  15.234  19.359  0.00  0.00     0.263 A 
ATOM      3  C   UNL d   1     -40.451  14.329  19.350  0.00  0.00     0.263 A 
ATOM      4  C   UNL d   1     -40.537  14.801  20.023  0.00  0.00     0.039 A 
ATOM      5  C   UNL d   1     -39.915  15.362  20.028  0.00  0.00     0.039 A 
ATOM      6  C   UNL d   1     -41.104  14.796  20.641  0.00  0.00     0.049 A 
ATOM      7  C   UNL d   1     -39.855  15.922  20.650  0.00  0.00     0.049 A 
ATOM      8  C   UNL d   1     -41.037  15.365  21.266  0.00  0.00    -0.026 A 
ATOM      9  C   UNL d   1     -40.414  15.921  21.263  0.00  0.00    -0.026 A 
ATOM     10  C   UNL d   1     -40.453  15.130  20.335  0.00  0.00     0.018 A 
ATOM     11  O   UNL d   1     -40.916  13.731  19.127  0.00  0.00    -0.267 OA
ATOM     12  O   UNL d   1     -38.805  15.639  19.148  0.00  0.00    -0.267 OA
ENDROOT
BRANCH   1  13
ATOM     13  C   UNL d   1     -39.493  14.290  18.248  0.00  0.00     0.105 A 
ATOM     14  C   UNL d   1     -39.684  14.538  17.518  0.00  0.00     0.086 A 
ATOM     15  C   UNL d   1     -39.278  14.091  16.991  0.00  0.00     0.014 A 
ATOM     16  C   UNL d   1     -38.844  13.576  17.408  0.00  0.00     0.031 A 
ATOM     17  S   UNL d   1     -38.970  13.691  18.179  0.00  0.00    -0.069 SA
BRANCH  14  18
ATOM     18  C   UNL d   1     -40.191  15.128  17.342  0.00  0.00     0.298 C 
ATOM     19  O   UNL d   1     -39.946  15.888  17.357  0.00  0.00    -0.259 OA
BRANCH  18  20
ATOM     20  O   UNL d   1     -40.955  14.957  17.148  0.00  0.00    -0.296 OA
ATOM     21  C   UNL d   1     -41.271  15.486  16.652  0.00  0.00     0.185 C 
ENDBRANCH  18  20
ENDBRANCH  14  18
BRANCH  16  22
ATOM     22  C   UNL d   1     -38.377  13.054  17.019  0.00  0.00     0.006 C 
ATOM     23  C   UNL d   1     -38.110  12.383  17.395  0.00  0.00     0.001 C 
ENDBRANCH  16  22
ENDBRANCH   1  13
TORSDOF 4
ENDMDL
MODEL 5
REMARK VINA RESULT:      -7.1      1.346      1.702
REMARK  4 active torsions:
REMARK  status: ('A' for Active; 'I' for Inactive)
REMARK    1  A    between atoms: C_2  and  N_1 
REMARK    2  A    between atoms: C_12  and  C_5 
REMARK    3  A    between atoms: O_20  and  C_12 
REMARK    4  A    between atoms: C_21  and  C_13 
ROOT
ATOM      1  N   UNL d   1     -48.448  13.159  22.770  0.00  0.00    -0.237 N 
ATOM      2  C   UNL d   1     -48.113  13.878  23.034  0.00  0.00     0.263 A 
ATOM      3  C   UNL d   1     -47.845  12.707  22.418  0.00  0.00     0.263 A 
ATOM      4  C   UNL d   1     -47.142  13.141  22.463  0.00  0.00     0.039 A 
ATOM      5  C   UNL d   1     -47.310  13.867  22.845  0.00  0.00     0.039 A 
ATOM      6  C   UNL d   1     -46.363  12.971  22.204  0.00  0.00     0.049 A 
ATOM      7  C   UNL d   1     -46.699  14.428  22.972  0.00  0.00     0.049 A 
ATOM      8  C   UNL d   1     -45.751  13.543  22.335  0.00  0.00    -0.026 A 
ATOM      9  C   UNL d   1     -45.926  14.265  22.717  0.00  0.00    -0.026 A 
ATOM     10  C   UNL d   1     -46.851  13.485  22.559  0.00  0.00     0.018 A 
ATOM     11  O   UNL d   1     -47.941  11.990  22.101  0.00  0.00    -0.267 OA
ATOM     12  O   UNL d   1     -48.503  14.459  23.399  0.00  0.00    -0.267 OA
ENDROOT
BRANCH   1  13
ATOM     13  C   UNL d   1     -49.220  12.948  22.847  0.00  0.00     0.105 A 
ATOM     14  C   UNL d   1     -49.804  13.142  22.345  0.00  0.00     0.086 A 
ATOM     15  C   UNL d   1     -50.485  12.822  22.623  0.00  0.00     0.014 A 
ATOM     16  C   UNL d   1     -50.306  12.438  23.292  0.00  0.00     0.031 A 
ATOM     17  S   UNL d   1     -49.533  12.510  23.436  0.00  0.00    -0.069 SA
BRANCH  14  18
ATOM     18  C   UNL d   1     -49.726  13.577  21.681  0.00  0.00     0.298 C 
ATOM     19  O   UNL d   1     -49.414  13.253  21.021  0.00  0.00    -0.259 OA
BRANCH  18  20
ATOM     20  O   UNL d   1     -49.963  14.348  21.676  0.00  0.00    -0.296 OA
ATOM     21  C   UNL d   1     -50.397  14.530  21.040  0.00  0.00     0.185 C 
ENDBRANCH  18  20
ENDBRANCH  14  18
BRANCH  16  22
ATOM     22  C   UNL d   1     -50.887  12.061  23.694  0.00  0.00     0.006 C 
ATOM     23  C   UNL d   1     -50.928  11.248  23.694  0.00  0.00     0.001 C 
ENDBRANCH  16  22
ENDBRANCH   1  13
TORSDOF 4
ENDMDL
MODEL 6
REMARK VINA RESULT:      -6.0      9.148     10.985
REMARK  4 active torsions:
REMARK  status: ('A' for Active; 'I' for Inactive)
REMARK    1  A    between atoms: C_2  and  N_1 
REMARK    2  A    between atoms: C_12  and  C_5 
REMARK    3  A    between atoms: O_20  and  C_12 
REMARK    4  A    between atoms: C_21  and  C_13 
ROOT
ATOM      1  N   UNL d   1     -38.913  14.285  17.847  0.00  0.00    -0.237 N 
ATOM      2  C   UNL d   1     -38.905  13.616  17.344  0.00  0.00     0.263 A 
ATOM      3  C   UNL d   1     -38.604  14.930  17.422  0.00  0.00     0.263 A 
ATOM      4  C   UNL d   1     -38.407  14.666  16.663  0.00  0.00     0.039 A 
ATOM      5  C   UNL d   1     -38.594  13.851  16.617  0.00  0.00     0.039 A 
ATOM      6  C   UNL d   1     -38.078  15.062  16.001  0.00  0.00     0.049 A 
ATOM      7  C   UNL d   1     -38.454  13.426  15.907  0.00  0.00     0.049 A 
ATOM      8  C   UNL d   1     -37.940  14.625  15.288  0.00  0.00    -0.026 A 
ATOM      9  C   UNL d   1     -38.129  13.813  15.248  0.00  0.00    -0.026 A 
ATOM     10  C   UNL d   1     -38.353  14.382  16.305  0.00  0.00     0.018 A 
ATOM     11  O   UNL d   1     -38.520  15.663  17.706  0.00  0.00    -0.267 OA
ATOM     12  O   UNL d   1     -39.153  12.893  17.539  0.00  0.00    -0.267 OA
ENDROOT
BRANCH   1  13
ATOM     13  C   UNL d   1     -39.174  14.294  18.607  0.00  0.00     0.105 A 
ATOM     14  C   UNL d   1     -39.920  14.441  18.837  0.00  0.00     0.086 A 
ATOM     15  C   UNL d   1     -39.944  14.397  19.637  0.00  0.00     0.014 A 
ATOM     16  C   UNL d   1     -39.212  14.224  19.883  0.00  0.00     0.031 A 
ATOM     17  S   UNL d   1     -38.734  14.159  19.259  0.00  0.00    -0.069 SA
BRANCH  14  18
ATOM     18  C   UNL d   1     -40.535  14.604  18.356  0.00  0.00     0.298 C 
ATOM     19  O   UNL d   1     -40.956  14.011  18.026  0.00  0.00    -0.259 OA
BRANCH  18  20
ATOM     20  O   UNL d   1     -40.734  15.370  18.202  0.00  0.00    -0.296 OA
ATOM     21  C   UNL d   1     -41.512  15.470  18.104  0.00  0.00     0.185 C 
ENDBRANCH  18  20
ENDBRANCH  14  18
BRANCH  16  22
ATOM     22  C   UNL d   1     -39.072  14.145  20.669  0.00  0.00     0.006 C 
ATOM     23  C   UNL d   1     -38.377  13.811  20.931  0.00  0.00     0.001 C 
ENDBRANCH  16  22
ENDBRANCH   1  13
TORSDOF 4
ENDMDL
MODEL 7
REMARK VINA RESULT:      -5.9      9.487     10.848
REMARK  4 active torsions:
REMARK  status: ('A' for Active; 'I' for Inactive)
REMARK    1  A    between atoms: C_2  and  N_1 
REMARK    2  A    between atoms: C_12  and  C_5 
REMARK    3  A    between atoms: O_20  and  C_12 
REMARK    4  A    between atoms: C_21  and  C_13 
ROOT
ATOM      1  N   UNL d   1     -39.351  14.478  18.468  0.00  0.00    -0.237 N 
ATOM      2  C   UNL d   1     -40.162  14.308  18.358  0.00  0.00     0.263 A 
ATOM      3  C   UNL d   1     -39.139  15.082  17.935  0.00  0.00     0.263 A 
ATOM      4  C   UNL d   1     -39.812  15.284  17.499  0.00  0.00     0.039 A 
ATOM      5  C   UNL d   1     -40.445  14.803  17.762  0.00  0.00     0.039 A 
ATOM      6  C   UNL d   1     -39.935  15.848  16.891  0.00  0.00     0.049 A 
ATOM      7  C   UNL d   1     -41.207  14.883  17.418  0.00  0.00     0.049 A 
ATOM      8  C   UNL d   1     -40.707  15.922  16.548  0.00  0.00    -0.026 A 
ATOM      9  C   UNL d   1     -41.334  15.440  16.815  0.00  0.00    -0.026 A 
ATOM     10  C   UNL d   1     -40.248  15.282  17.350  0.00  0.00     0.018 A 
ATOM     11  O   UNL d   1     -38.417  15.397  17.869  0.00  0.00    -0.267 OA
ATOM     12  O   UNL d   1     -40.575  13.767  18.757  0.00  0.00    -0.267 OA
ENDROOT
BRANCH   1  13
ATOM     13  C   UNL d   1     -38.865  14.118  18.998  0.00  0.00     0.105 A 
ATOM     14  C   UNL d   1     -38.397  13.494  18.846  0.00  0.00     0.086 A 
ATOM     15  C   UNL d   1     -38.008  13.308  19.522  0.00  0.00     0.014 A 
ATOM     16  C   UNL d   1     -38.244  13.821  20.076  0.00  0.00     0.031 A 
ATOM     17  S   UNL d   1     -38.769  14.321  19.764  0.00  0.00    -0.069 SA
BRANCH  14  18
ATOM     18  C   UNL d   1     -38.328  13.120  18.146  0.00  0.00     0.298 C 
ATOM     19  O   UNL d   1     -37.940  13.466  17.540  0.00  0.00    -0.259 OA
BRANCH  18  20
ATOM     20  O   UNL d   1     -38.652  12.388  18.047  0.00  0.00    -0.296 OA
ATOM     21  C   UNL d   1     -38.229  11.929  17.561  0.00  0.00     0.185 C 
ENDBRANCH  18  20
ENDBRANCH  14  18
BRANCH  16  22
ATOM     22  C   UNL d   1     -37.941  13.766  20.816  0.00  0.00     0.006 C 
ATOM     23  C   UNL d   1     -38.392  13.971  21.462  0.00  0.00     0.001 C 
ENDBRANCH  16  22
ENDBRANCH   1  13
TORSDOF 4
ENDMDL
MODEL 8
REMARK VINA RESULT:      -5.7      7.816      9.877
REMARK  4 active torsions:
REMARK  status: ('A' for Active; 'I' for Inactive)
REMARK    1  A    between atoms: C_2  and  N_1 
REMARK    2  A    between atoms: C_12  and  C_5 
REMARK    3  A    between atoms: O_20  and  C_12 
REMARK    4  A    between atoms: C_21  and  C_13 
ROOT
ATOM      1  N   UNL d   1     -39.792  14.701  19.132  0.00  0.00    -0.237 N 
ATOM      2  C   UNL d   1     -39.478  15.359  18.722  0.00  0.00     0.263 A 
ATOM      3  C   UNL d   1     -40.348  14.330  18.637  0.00  0.00     0.263 A 
ATOM      4  C   UNL d   1     -40.380  14.752  17.926  0.00  0.00     0.039 A 
ATOM      5  C   UNL d   1     -39.839  15.390  17.981  0.00  0.00     0.039 A 
ATOM      6  C   UNL d   1     -40.832  14.641  17.230  0.00  0.00     0.049 A 
ATOM      7  C   UNL d   1     -39.748  15.922  17.337  0.00  0.00     0.049 A 
ATOM      8  C   UNL d   1     -40.734  15.182  16.585  0.00  0.00    -0.026 A 
ATOM      9  C   UNL d   1     -40.194  15.816  16.645  0.00  0.00    -0.026 A 
ATOM     10  C   UNL d   1     -40.287  15.074  17.610  0.00  0.00     0.018 A 
ATOM     11  O   UNL d   1     -40.766  13.686  18.826  0.00  0.00    -0.267 OA
ATOM     12  O   UNL d   1     -38.933  15.856  19.001  0.00  0.00    -0.267 OA
ENDROOT
BRANCH   1  13
ATOM     13  C   UNL d   1     -39.587  14.474  19.875  0.00  0.00     0.105 A 
ATOM     14  C   UNL d   1     -39.971  14.672  20.541  0.00  0.00     0.086 A 
ATOM     15  C   UNL d   1     -39.587  14.332  21.158  0.00  0.00     0.014 A 
ATOM     16  C   UNL d   1     -38.975  13.931  20.858  0.00  0.00     0.031 A 
ATOM     17  S   UNL d   1     -38.967  14.012  20.073  0.00  0.00    -0.069 SA
BRANCH  14  18
ATOM     18  C   UNL d   1     -40.623  15.129  20.588  0.00  0.00     0.298 C 
ATOM     19  O   UNL d   1     -40.566  15.922  20.514  0.00  0.00    -0.259 OA
BRANCH  18  20
ATOM     20  O   UNL d   1     -41.344  14.789  20.710  0.00  0.00    -0.296 OA
ATOM     21  C   UNL d   1     -41.848  15.268  21.089  0.00  0.00     0.185 C 
ENDBRANCH  18  20
ENDBRANCH  14  18
BRANCH  16  22
ATOM     22  C   UNL d   1     -38.488  13.531  21.354  0.00  0.00     0.006 C 
ATOM     23  C   UNL d   1     -38.005  12.941  21.069  0.00  0.00     0.001 C 
ENDBRANCH  16  22
ENDBRANCH   1  13
TORSDOF 4
ENDMDL
