MODEL 1
REMARK VINA RESULT:      -3.8      0.000      0.000
REMARK  3 active torsions:
REMARK  status: ('A' for Active; 'I' for Inactive)
REMARK    1  A    between atoms: S_7  and  C_3 
REMARK       I    between atoms: N_4  and  C_5 
REMARK    2  A    between atoms: C_5  and  C_10 
REMARK    3  A    between atoms: C_10  and  S_7 
ROOT
ATOM      1  N   UNL d   1      56.623   0.532  32.003  0.00  0.00    -0.236 NA
ATOM      2  N   UNL d   1      57.516   0.619  33.394  0.00  0.00    -0.242 NA
ATOM      3  C   UNL d   1      57.446   0.585  31.955  0.00  0.00     0.129 A 
ATOM      4  C   UNL d   1      57.896   0.629  32.657  0.00  0.00     0.105 A 
ATOM      5  C   UNL d   1      56.246   0.522  32.729  0.00  0.00     0.100 A 
ATOM      6  C   UNL d   1      56.697   0.566  33.431  0.00  0.00     0.099 A 
ATOM      7  C   UNL d   1      58.709   0.681  32.624  0.00  0.00     0.023 C 
ATOM      8  C   UNL d   1      56.321   0.557  34.166  0.00  0.00     0.021 A 
ATOM      9  C   UNL d   1      55.428   0.470  32.775  0.00  0.00     0.021 A 
ATOM     10  C   UNL d   1      55.487   0.503  34.197  0.00  0.00     0.002 A 
ATOM     11  C   UNL d   1      55.043   0.460  33.506  0.00  0.00     0.002 A 
ENDROOT
BRANCH   3  12
ATOM     12  S   UNL d   1      57.809   0.593  31.224  0.00  0.00    -0.061 SA
BRANCH  12  13
ATOM     13  C   UNL d   1      57.823  -0.078  30.762  0.00  0.00     0.098 C 
BRANCH  13  14
ATOM     14  C   UNL d   1      58.132  -0.047  29.988  0.00  0.00     0.271 C 
ATOM     15  N   UNL d   1      58.358  -0.753  29.616  0.00  0.00    -0.272 N 
ATOM     16  C   UNL d   1      58.668  -0.723  28.839  0.00  0.00     0.083 A 
ATOM     17  C   UNL d   1      58.280  -1.467  30.000  0.00  0.00     0.083 A 
ATOM     18  C   UNL d   1      58.891  -1.425  28.473  0.00  0.00     0.019 A 
ATOM     19  C   UNL d   1      58.813  -2.140  28.857  0.00  0.00     0.003 A 
ATOM     20  C   UNL d   1      58.510  -2.170  29.616  0.00  0.00     0.019 A 
ATOM     21  C   UNL d   1      59.052  -2.858  28.456  0.00  0.00     0.000 C 
ATOM     22  O   UNL d   1      58.211   0.671  29.602  0.00  0.00    -0.266 OA
ENDBRANCH  13  14
ENDBRANCH  12  13
ENDBRANCH   3  12
TORSDOF 3
ENDMDL
MODEL 2
REMARK VINA RESULT:      -2.0      8.772      9.418
REMARK  3 active torsions:
REMARK  status: ('A' for Active; 'I' for Inactive)
REMARK    1  A    between atoms: S_7  and  C_3 
REMARK       I    between atoms: N_4  and  C_5 
REMARK    2  A    between atoms: C_5  and  C_10 
REMARK    3  A    between atoms: C_10  and  S_7 
ROOT
ATOM      1  N   UNL d   1      59.419  -8.350  34.780  0.00  0.00    -0.236 NA
ATOM      2  N   UNL d   1      60.996  -8.639  35.190  0.00  0.00    -0.242 NA
ATOM      3  C   UNL d   1      59.801  -9.017  34.479  0.00  0.00     0.129 A 
ATOM      4  C   UNL d   1      60.596  -9.163  34.685  0.00  0.00     0.105 A 
ATOM      5  C   UNL d   1      59.811  -7.832  35.277  0.00  0.00     0.100 A 
ATOM      6  C   UNL d   1      60.607  -7.978  35.484  0.00  0.00     0.099 A 
ATOM      7  C   UNL d   1      60.986  -9.818  34.395  0.00  0.00     0.023 C 
ATOM      8  C   UNL d   1      61.006  -7.459  35.986  0.00  0.00     0.021 A 
ATOM      9  C   UNL d   1      59.429  -7.169  35.576  0.00  0.00     0.021 A 
ATOM     10  C   UNL d   1      60.606  -6.788  36.282  0.00  0.00     0.002 A 
ATOM     11  C   UNL d   1      59.821  -6.644  36.078  0.00  0.00     0.002 A 
ENDROOT
BRANCH   3  12
ATOM     12  S   UNL d   1      59.397  -9.526  33.983  0.00  0.00    -0.061 SA
BRANCH  12  13
ATOM     13  C   UNL d   1      59.216  -9.302  33.221  0.00  0.00     0.098 C 
BRANCH  13  14
ATOM     14  C   UNL d   1      58.468  -9.483  32.899  0.00  0.00     0.271 C 
ATOM     15  N   UNL d   1      58.392  -9.560  32.077  0.00  0.00    -0.272 N 
ATOM     16  C   UNL d   1      57.642  -9.742  31.752  0.00  0.00     0.083 A 
ATOM     17  C   UNL d   1      59.038  -9.461  31.589  0.00  0.00     0.083 A 
ATOM     18  C   UNL d   1      57.571  -9.818  30.936  0.00  0.00     0.019 A 
ATOM     19  C   UNL d   1      58.216  -9.718  30.449  0.00  0.00     0.003 A 
ATOM     20  C   UNL d   1      58.949  -9.541  30.765  0.00  0.00     0.019 A 
ATOM     21  C   UNL d   1      58.118  -9.802  29.602  0.00  0.00     0.000 C 
ATOM     22  O   UNL d   1      57.819  -9.582  33.389  0.00  0.00    -0.266 OA
ENDBRANCH  13  14
ENDBRANCH  12  13
ENDBRANCH   3  12
TORSDOF 3
ENDMDL
MODEL 3
REMARK VINA RESULT:      -1.6      1.614      4.731
REMARK  3 active torsions:
REMARK  status: ('A' for Active; 'I' for Inactive)
REMARK    1  A    between atoms: S_7  and  C_3 
REMARK       I    between atoms: N_4  and  C_5 
REMARK    2  A    between atoms: C_5  and  C_10 
REMARK    3  A    between atoms: C_10  and  S_7 
ROOT
ATOM      1  N   UNL d   1      58.925  -0.424  30.391  0.00  0.00    -0.236 NA
ATOM      2  N   UNL d   1      59.047   0.398  28.960  0.00  0.00    -0.242 NA
ATOM      3  C   UNL d   1      58.245  -0.285  29.944  0.00  0.00     0.129 A 
ATOM      4  C   UNL d   1      58.307   0.130  29.222  0.00  0.00     0.105 A 
ATOM      5  C   UNL d   1      59.656  -0.161  30.135  0.00  0.00     0.100 A 
ATOM      6  C   UNL d   1      59.717   0.254  29.413  0.00  0.00     0.099 A 
ATOM      7  C   UNL d   1      57.644   0.275  28.770  0.00  0.00     0.023 C 
ATOM      8  C   UNL d   1      60.453   0.521  29.151  0.00  0.00     0.021 A 
ATOM      9  C   UNL d   1      60.331  -0.301  30.582  0.00  0.00     0.021 A 
ATOM     10  C   UNL d   1      61.131   0.372  29.615  0.00  0.00     0.002 A 
ATOM     11  C   UNL d   1      61.071  -0.037  30.327  0.00  0.00     0.002 A 
ENDROOT
BRANCH   3  12
ATOM     12  S   UNL d   1      57.521  -0.553  30.211  0.00  0.00    -0.061 SA
BRANCH  12  13
ATOM     13  C   UNL d   1      57.196  -0.252  30.895  0.00  0.00     0.098 C 
BRANCH  13  14
ATOM     14  C   UNL d   1      56.857  -0.765  31.458  0.00  0.00     0.271 C 
ATOM     15  N   UNL d   1      56.472  -0.441  32.117  0.00  0.00    -0.272 N 
ATOM     16  C   UNL d   1      56.130  -0.954  32.683  0.00  0.00     0.083 A 
ATOM     17  C   UNL d   1      56.425   0.367  32.214  0.00  0.00     0.083 A 
ATOM     18  C   UNL d   1      55.749  -0.629  33.335  0.00  0.00     0.019 A 
ATOM     19  C   UNL d   1      55.703   0.179  33.433  0.00  0.00     0.003 A 
ATOM     20  C   UNL d   1      56.036   0.681  32.880  0.00  0.00     0.019 A 
ATOM     21  C   UNL d   1      55.301   0.495  34.120  0.00  0.00     0.000 C 
ATOM     22  O   UNL d   1      56.903  -1.577  31.360  0.00  0.00    -0.266 OA
ENDBRANCH  13  14
ENDBRANCH  12  13
ENDBRANCH   3  12
TORSDOF 3
ENDMDL
MODEL 4
REMARK VINA RESULT:      -0.9      1.267      4.904
REMARK  3 active torsions:
REMARK  status: ('A' for Active; 'I' for Inactive)
REMARK    1  A    between atoms: S_7  and  C_3 
REMARK       I    between atoms: N_4  and  C_5 
REMARK    2  A    between atoms: C_5  and  C_10 
REMARK    3  A    between atoms: C_10  and  S_7 
ROOT
ATOM      1  N   UNL d   1      58.746  -1.888  29.290  0.00  0.00    -0.236 NA
ATOM      2  N   UNL d   1      60.380  -1.714  29.092  0.00  0.00    -0.242 NA
ATOM      3  C   UNL d   1      59.103  -1.166  29.472  0.00  0.00     0.129 A 
ATOM      4  C   UNL d   1      59.927  -1.078  29.372  0.00  0.00     0.105 A 
ATOM      5  C   UNL d   1      59.191  -2.516  29.013  0.00  0.00     0.100 A 
ATOM      6  C   UNL d   1      60.015  -2.428  28.914  0.00  0.00     0.099 A 
ATOM      7  C   UNL d   1      60.292  -0.371  29.548  0.00  0.00     0.023 C 
ATOM      8  C   UNL d   1      60.468  -3.060  28.635  0.00  0.00     0.021 A 
ATOM      9  C   UNL d   1      58.834  -3.234  28.833  0.00  0.00     0.021 A 
ATOM     10  C   UNL d   1      60.092  -3.784  28.455  0.00  0.00     0.002 A 
ATOM     11  C   UNL d   1      59.280  -3.870  28.554  0.00  0.00     0.002 A 
ENDROOT
BRANCH   3  12
ATOM     12  S   UNL d   1      58.646  -0.546  29.747  0.00  0.00    -0.061 SA
BRANCH  12  13
ATOM     13  C   UNL d   1      58.063  -0.678  30.301  0.00  0.00     0.098 C 
BRANCH  13  14
ATOM     14  C   UNL d   1      57.601  -0.042  30.579  0.00  0.00     0.271 C 
ATOM     15  N   UNL d   1      57.125  -0.154  31.249  0.00  0.00    -0.272 N 
ATOM     16  C   UNL d   1      56.661   0.483  31.531  0.00  0.00     0.083 A 
ATOM     17  C   UNL d   1      57.108  -0.874  31.630  0.00  0.00     0.083 A 
ATOM     18  C   UNL d   1      56.190   0.368  32.196  0.00  0.00     0.019 A 
ATOM     19  C   UNL d   1      56.174  -0.352  32.577  0.00  0.00     0.003 A 
ATOM     20  C   UNL d   1      56.627  -0.975  32.302  0.00  0.00     0.019 A 
ATOM     21  C   UNL d   1      55.676  -0.448  33.267  0.00  0.00     0.000 C 
ATOM     22  O   UNL d   1      57.618   0.682  30.197  0.00  0.00    -0.266 OA
ENDBRANCH  13  14
ENDBRANCH  12  13
ENDBRANCH   3  12
TORSDOF 3
ENDMDL
