MODEL 1
REMARK VINA RESULT:     139.5      0.000      0.000
REMARK  6 active torsions:
REMARK  status: ('A' for Active; 'I' for Inactive)
REMARK    1  A    between atoms: C_3  and  C_1 
REMARK    2  A    between atoms: S_2  and  C_3 
REMARK    3  A    between atoms: C_8  and  S_2 
REMARK    4  A    between atoms: C_9  and  C_3 
REMARK    5  A    between atoms: N_7  and  C_4 
REMARK    6  A    between atoms: C_25  and  N_16 
ROOT
ATOM      1  C   UNL d   1     -58.360 -99.818 -44.129  0.00  0.00     0.128 A 
ATOM      2  C   UNL d   1     -58.982 -99.342 -43.881  0.00  0.00     0.166 A 
ATOM      3  N   UNL d   1     -58.230 -99.943 -44.928  0.00  0.00    -0.240 NA
ATOM      4  N   UNL d   1     -59.473 -98.992 -44.433  0.00  0.00    -0.225 NA
ATOM      5  C   UNL d   1     -58.724 -99.591 -45.477  0.00  0.00     0.099 A 
ATOM      6  C   UNL d   1     -59.347 -99.114 -45.233  0.00  0.00     0.101 A 
ATOM      7  C   UNL d   1     -59.840 -98.763 -45.793  0.00  0.00     0.021 A 
ATOM      8  C   UNL d   1     -58.591 -99.719 -46.282  0.00  0.00     0.021 A 
ATOM      9  C   UNL d   1     -59.085 -99.367 -46.841  0.00  0.00     0.002 A 
ATOM     10  C   UNL d   1     -59.707 -98.890 -46.593  0.00  0.00     0.002 A 
ENDROOT
BRANCH   1  11
ATOM     11  C   UNL d   1     -57.866-100.170 -43.579  0.00  0.00     0.129 C 
BRANCH  11  12
ATOM     12  S   UNL d   1     -56.979-100.066 -43.674  0.00  0.00     0.213 S 
ATOM     13  O   UNL d   1     -57.090-100.348 -42.894  0.00  0.00    -0.217 OA
ATOM     14  O   UNL d   1     -56.459-100.266 -42.981  0.00  0.00    -0.217 OA
BRANCH  12  15
ATOM     15  C   UNL d   1     -56.506 -99.805 -44.309  0.00  0.00     0.088 A 
ATOM     16  C   UNL d   1     -55.998-100.336 -44.689  0.00  0.00     0.011 A 
ATOM     17  C   UNL d   1     -55.530-100.080 -45.317  0.00  0.00     0.001 A 
ATOM     18  C   UNL d   1     -55.023-100.604 -45.697  0.00  0.00     0.000 C 
ATOM     19  C   UNL d   1     -55.569 -99.289 -45.567  0.00  0.00     0.000 A 
ATOM     20  C   UNL d   1     -56.079 -98.762 -45.184  0.00  0.00     0.001 A 
ATOM     21  C   UNL d   1     -55.100 -99.030 -46.197  0.00  0.00     0.000 C 
ATOM     22  C   UNL d   1     -56.549 -99.016 -44.554  0.00  0.00     0.011 A 
ENDBRANCH  12  15
ENDBRANCH  11  12
BRANCH  11  23
ATOM     23  C   UNL d   1     -58.051-100.655 -42.881  0.00  0.00     0.135 C 
ATOM     24  N   UNL d   1     -57.618-101.362 -42.576  0.00  0.00    -0.146 N 
ENDBRANCH  11  23
ENDBRANCH   1  11
BRANCH   2  25
ATOM     25  N   UNL d   1     -59.103 -99.222 -43.063  0.00  0.00    -0.285 N 
ATOM     26  C   UNL d   1     -58.516 -98.875 -42.600  0.00  0.00     0.101 A 
ATOM     27  C   UNL d   1     -58.647 -98.761 -41.787  0.00  0.00     0.100 A 
ATOM     28  N   UNL d   1     -59.370 -98.997 -41.443  0.00  0.00    -0.300 N 
ATOM     29  C   UNL d   1     -59.960 -99.347 -41.914  0.00  0.00     0.100 A 
ATOM     30  C   UNL d   1     -59.826 -99.458 -42.720  0.00  0.00     0.101 A 
BRANCH  28  31
ATOM     31  C   UNL d   1     -59.499 -98.880 -40.622  0.00  0.00     0.080 C 
ATOM     32  C   UNL d   1     -59.817 -99.503 -40.168  0.00  0.00     0.021 C 
ENDBRANCH  28  31
ENDBRANCH   2  25
TORSDOF 6
ENDMDL
