MODEL 1
REMARK VINA RESULT:      77.4      0.000      0.000
REMARK  12 active torsions:
REMARK  status: ('A' for Active; 'I' for Inactive)
REMARK    1  A    between atoms: C_7  and  C_1 
REMARK    2  A    between atoms: C_8  and  N_2 
REMARK    3  A    between atoms: C_6  and  C_5 
REMARK    4  A    between atoms: C_9  and  C_7 
REMARK    5  A    between atoms: C_24  and  C_8 
REMARK    6  A    between atoms: C_12  and  C_9 
REMARK    7  A    between atoms: C_11  and  C_12 
REMARK    8  A    between atoms: O_27  and  C_13 
REMARK    9  A    between atoms: N_14  and  C_24 
REMARK   10  A    between atoms: O_28  and  C_18 
REMARK   11  A    between atoms: C_33  and  O_28 
REMARK   12  A    between atoms: C_35  and  C_33 
ROOT
ATOM      1  C   UNL d   1     -57.323 -98.957 -44.146  0.00  0.00     0.099 A 
ATOM      2  N   UNL d   1     -58.453 -99.029 -43.438  0.00  0.00    -0.269 N 
ATOM      3  C   UNL d   1     -57.128 -99.016 -43.346  0.00  0.00     0.256 A 
ATOM      4  C   UNL d   1     -57.822 -99.060 -42.907  0.00  0.00     0.304 A 
ATOM      5  C   UNL d   1     -58.146 -98.966 -44.203  0.00  0.00     0.073 A 
ATOM      6  O   UNL d   1     -57.878 -99.124 -42.088  0.00  0.00    -0.263 OA
ATOM      7  O   UNL d   1     -56.364 -99.027 -43.039  0.00  0.00    -0.281 OA
ENDROOT
BRANCH   5   8
ATOM      8  C   UNL d   1     -58.587 -98.919 -44.895  0.00  0.00     0.018 A 
ATOM      9  C   UNL d   1     -58.213 -98.922 -45.620  0.00  0.00     0.028 A 
ATOM     10  C   UNL d   1     -58.654 -98.876 -46.312  0.00  0.00     0.117 A 
ATOM     11  C   UNL d   1     -59.484 -98.826 -46.271  0.00  0.00     0.122 A 
ATOM     12  C   UNL d   1     -59.857 -98.824 -45.536  0.00  0.00     0.027 A 
ATOM     13  C   UNL d   1     -59.409 -98.870 -44.841  0.00  0.00     0.004 A 
BRANCH  10  14
ATOM     14  O   UNL d   1     -58.279 -98.878 -47.042  0.00  0.00    -0.326 OA
ATOM     15  C   UNL d   1     -58.563 -99.363 -47.651  0.00  0.00     0.181 C 
ENDBRANCH  10  14
BRANCH  11  16
ATOM     16  O   UNL d   1     -59.925 -98.780 -46.963  0.00  0.00    -0.303 OA
BRANCH  16  17
ATOM     17  C   UNL d   1     -59.620 -99.096 -47.666  0.00  0.00     0.123 C 
BRANCH  17  18
ATOM     18  C   UNL d   1     -59.956 -99.776 -47.989  0.00  0.00     0.027 C 
ATOM     19  C   UNL d   1     -59.617-100.119 -48.655  0.00  0.00     0.002 C 
ENDBRANCH  17  18
ENDBRANCH  16  17
ENDBRANCH  11  16
ENDBRANCH   5   8
BRANCH   2  20
ATOM     20  C   UNL d   1     -59.254 -99.057 -43.239  0.00  0.00     0.102 C 
BRANCH  20  21
ATOM     21  C   UNL d   1     -59.511 -98.767 -42.510  0.00  0.00     0.100 C 
BRANCH  21  22
ATOM     22  N   UNL d   1     -59.659 -99.285 -41.891  0.00  0.00    -0.298 N 
ATOM     23  C   UNL d   1     -59.785 -98.990 -41.140  0.00  0.00     0.107 A 
ATOM     24  C   UNL d   1     -59.934 -99.511 -40.515  0.00  0.00     0.142 A 
ATOM     25  O   UNL d   1     -59.954-100.324 -40.653  0.00  0.00    -0.300 OA
ATOM     26  C   UNL d   1     -59.826-100.617 -41.414  0.00  0.00     0.142 A 
ATOM     27  C   UNL d   1     -59.678-100.101 -42.031  0.00  0.00     0.107 A 
ENDBRANCH  21  22
ENDBRANCH  20  21
ENDBRANCH   2  20
BRANCH   1  28
ATOM     28  C   UNL d   1     -56.797 -98.901 -44.771  0.00  0.00     0.200 C 
ATOM     29  O   UNL d   1     -57.075 -98.755 -45.536  0.00  0.00    -0.286 OA
BRANCH  28  30
ATOM     30  C   UNL d   1     -55.984 -98.990 -44.638  0.00  0.00     0.044 C 
BRANCH  30  31
ATOM     31  C   UNL d   1     -55.506 -99.342 -45.217  0.00  0.00     0.028 C 
BRANCH  31  32
ATOM     32  C   UNL d   1     -55.276-100.121 -45.134  0.00  0.00     0.100 A 
ATOM     33  O   UNL d   1     -54.815-100.430 -44.532  0.00  0.00    -0.305 OA
ATOM     34  C   UNL d   1     -54.717-101.242 -44.665  0.00  0.00     0.123 A 
ATOM     35  C   UNL d   1     -55.120-101.435 -45.353  0.00  0.00     0.029 A 
ATOM     36  C   UNL d   1     -55.469-100.743 -45.648  0.00  0.00     0.027 A 
ENDBRANCH  31  32
ENDBRANCH  30  31
ENDBRANCH  28  30
ENDBRANCH   1  28
TORSDOF 12
ENDMDL
