MODEL 1
REMARK VINA RESULT:      15.4      0.000      0.000
REMARK  5 active torsions:
REMARK  status: ('A' for Active; 'I' for Inactive)
REMARK    1  A    between atoms: N_2  and  S_1 
REMARK    2  A    between atoms: C_14  and  S_1 
REMARK    3  A    between atoms: C_4  and  N_2 
REMARK    4  A    between atoms: S_6  and  C_3 
REMARK    5  A    between atoms: C_10  and  S_6 
ROOT
ATOM      1  C   UNL d   1     -41.775-122.434 -52.512  0.00  0.00     0.070 A 
ATOM      2  C   UNL d   1     -41.914-121.503 -53.582  0.00  0.00     0.095 A 
ATOM      3  C   UNL d   1     -41.603-123.031 -53.055  0.00  0.00     0.202 A 
ATOM      4  C   UNL d   1     -41.930-121.669 -52.776  0.00  0.00     0.030 A 
ATOM      5  C   UNL d   1     -41.587-122.864 -53.861  0.00  0.00     0.041 A 
ATOM      6  C   UNL d   1     -41.742-122.101 -54.125  0.00  0.00     0.022 A 
ATOM      7  O   UNL d   1     -41.444-123.813 -52.790  0.00  0.00    -0.286 OA
ATOM      8  C   UNL d   1     -41.413-123.468 -54.409  0.00  0.00     0.003 A 
ATOM      9  C   UNL d   1     -41.726-121.931 -54.934  0.00  0.00     0.002 A 
ATOM     10  C   UNL d   1     -41.397-123.302 -55.214  0.00  0.00     0.000 A 
ATOM     11  C   UNL d   1     -41.553-122.535 -55.482  0.00  0.00     0.000 A 
ENDROOT
BRANCH   1  12
ATOM     12  S   UNL d   1     -41.791-122.600 -51.706  0.00  0.00    -0.082 SA
BRANCH  12  13
ATOM     13  C   UNL d   1     -41.811-122.766 -50.898  0.00  0.00     0.047 A 
ATOM     14  C   UNL d   1     -42.509-122.669 -50.469  0.00  0.00     0.087 A 
ATOM     15  N   UNL d   1     -43.190-122.404 -50.852  0.00  0.00    -0.244 NA
ATOM     16  C   UNL d   1     -42.525-122.836 -49.664  0.00  0.00     0.018 A 
ATOM     17  C   UNL d   1     -43.888-122.307 -50.424  0.00  0.00     0.099 A 
ATOM     18  C   UNL d   1     -43.901-122.476 -49.614  0.00  0.00     0.021 A 
ATOM     19  C   UNL d   1     -43.230-122.738 -49.231  0.00  0.00     0.003 A 
ATOM     20  C   UNL d   1     -41.849-123.100 -49.281  0.00  0.00     0.002 A 
ATOM     21  C   UNL d   1     -41.145-123.201 -49.700  0.00  0.00     0.001 A 
ATOM     22  C   UNL d   1     -41.124-123.033 -50.513  0.00  0.00     0.008 A 
ENDBRANCH  12  13
ENDBRANCH   1  12
BRANCH   2  23
ATOM     23  N   UNL d   1     -42.073-120.722 -53.847  0.00  0.00    -0.158 NA
BRANCH  23  24
ATOM     24  S   UNL d   1     -41.836-120.076 -53.388  0.00  0.00     0.285 S 
ATOM     25  O   UNL d   1     -41.307-119.839 -53.988  0.00  0.00    -0.198 OA
ATOM     26  O   UNL d   1     -42.359-120.308 -52.792  0.00  0.00    -0.198 OA
BRANCH  24  27
ATOM     27  C   UNL d   1     -41.599-119.428 -52.925  0.00  0.00     0.105 A 
ATOM     28  C   UNL d   1     -41.425-119.532 -52.127  0.00  0.00     0.013 A 
ATOM     29  C   UNL d   1     -41.186-118.887 -51.659  0.00  0.00     0.001 A 
ATOM     30  C   UNL d   1     -41.124-118.133 -52.000  0.00  0.00     0.000 A 
ATOM     31  C   UNL d   1     -41.302-118.035 -52.809  0.00  0.00     0.001 A 
ATOM     32  C   UNL d   1     -41.537-118.679 -53.264  0.00  0.00     0.013 A 
ENDBRANCH  24  27
ENDBRANCH  23  24
ENDBRANCH   2  23
TORSDOF 5
ENDMDL
MODEL 2
REMARK VINA RESULT:      16.0      1.941      4.779
REMARK  5 active torsions:
REMARK  status: ('A' for Active; 'I' for Inactive)
REMARK    1  A    between atoms: N_2  and  S_1 
REMARK    2  A    between atoms: C_14  and  S_1 
REMARK    3  A    between atoms: C_4  and  N_2 
REMARK    4  A    between atoms: S_6  and  C_3 
REMARK    5  A    between atoms: C_10  and  S_6 
ROOT
ATOM      1  C   UNL d   1     -42.299-122.347 -52.019  0.00  0.00     0.070 A 
ATOM      2  C   UNL d   1     -42.010-121.962 -50.678  0.00  0.00     0.095 A 
ATOM      3  C   UNL d   1     -43.105-122.243 -51.876  0.00  0.00     0.202 A 
ATOM      4  C   UNL d   1     -41.751-122.206 -51.420  0.00  0.00     0.030 A 
ATOM      5  C   UNL d   1     -43.363-121.998 -51.133  0.00  0.00     0.041 A 
ATOM      6  C   UNL d   1     -42.816-121.858 -50.534  0.00  0.00     0.022 A 
ATOM      7  O   UNL d   1     -43.667-122.385 -52.484  0.00  0.00    -0.286 OA
ATOM      8  C   UNL d   1     -44.177-121.893 -50.988  0.00  0.00     0.003 A 
ATOM      9  C   UNL d   1     -43.073-121.613 -49.787  0.00  0.00     0.002 A 
ATOM     10  C   UNL d   1     -44.435-121.649 -50.246  0.00  0.00     0.000 A 
ATOM     11  C   UNL d   1     -43.888-121.507 -49.642  0.00  0.00     0.000 A 
ENDROOT
BRANCH   1  12
ATOM     12  S   UNL d   1     -42.040-122.591 -52.761  0.00  0.00    -0.082 SA
BRANCH  12  13
ATOM     13  C   UNL d   1     -41.782-122.834 -53.507  0.00  0.00     0.047 A 
ATOM     14  C   UNL d   1     -41.889-122.347 -54.164  0.00  0.00     0.087 A 
ATOM     15  N   UNL d   1     -42.255-121.614 -54.073  0.00  0.00    -0.244 NA
ATOM     16  C   UNL d   1     -41.630-122.593 -54.906  0.00  0.00     0.018 A 
ATOM     17  C   UNL d   1     -42.362-121.126 -54.730  0.00  0.00     0.099 A 
ATOM     18  C   UNL d   1     -42.102-121.376 -55.474  0.00  0.00     0.021 A 
ATOM     19  C   UNL d   1     -41.738-122.101 -55.569  0.00  0.00     0.003 A 
ATOM     20  C   UNL d   1     -41.266-123.321 -54.998  0.00  0.00     0.002 A 
ATOM     21  C   UNL d   1     -41.154-123.817 -54.347  0.00  0.00     0.001 A 
ATOM     22  C   UNL d   1     -41.413-123.573 -53.596  0.00  0.00     0.008 A 
ENDBRANCH  12  13
ENDBRANCH   1  12
BRANCH   2  23
ATOM     23  N   UNL d   1     -41.448-121.820 -50.069  0.00  0.00    -0.158 NA
BRANCH  23  24
ATOM     24  S   UNL d   1     -41.490-122.250 -49.364  0.00  0.00     0.285 S 
ATOM     25  O   UNL d   1     -41.311-122.952 -49.778  0.00  0.00    -0.198 OA
ATOM     26  O   UNL d   1     -41.667-121.557 -48.951  0.00  0.00    -0.198 OA
BRANCH  24  27
ATOM     27  C   UNL d   1     -41.532-122.682 -48.655  0.00  0.00     0.105 A 
ATOM     28  C   UNL d   1     -41.124-122.421 -47.989  0.00  0.00     0.013 A 
ATOM     29  C   UNL d   1     -41.162-122.849 -47.276  0.00  0.00     0.001 A 
ATOM     30  C   UNL d   1     -41.615-123.543 -47.238  0.00  0.00     0.000 A 
ATOM     31  C   UNL d   1     -42.025-123.801 -47.917  0.00  0.00     0.001 A 
ATOM     32  C   UNL d   1     -41.982-123.372 -48.617  0.00  0.00     0.013 A 
ENDBRANCH  24  27
ENDBRANCH  23  24
ENDBRANCH   2  23
TORSDOF 5
ENDMDL
