MODEL 1
REMARK VINA RESULT:       0.9      0.000      0.000
REMARK  7 active torsions:
REMARK  status: ('A' for Active; 'I' for Inactive)
REMARK    1  A    between atoms: C_10  and  N_3 
REMARK    2  A    between atoms: C_12  and  C_10 
REMARK    3  A    between atoms: C_16  and  N_11 
REMARK    4  A    between atoms: O_29  and  C_15 
REMARK    5  A    between atoms: C_27  and  C_16 
REMARK    6  A    between atoms: O_30  and  C_17 
REMARK    7  A    between atoms: C_23  and  C_27 
ROOT
ATOM      1  C   UNL d   1      30.379  18.196 -24.440  0.00  0.00     0.191 A 
ATOM      2  C   UNL d   1      30.610  17.426 -24.209  0.00  0.00     0.173 A 
ATOM      3  N   UNL d   1      29.309  16.929 -24.564  0.00  0.00    -0.224 N 
ATOM      4  N   UNL d   1      31.014  18.711 -24.320  0.00  0.00    -0.042 NA
ATOM      5  C   UNL d   1      31.805  18.325 -23.970  0.00  0.00     0.722 A 
ATOM      6  N   UNL d   1      29.616  18.349 -24.734  0.00  0.00    -0.240 N 
ATOM      7  C   UNL d   1      29.078  17.700 -24.794  0.00  0.00     0.343 A 
ATOM      8  C   UNL d   1      30.078  16.807 -24.273  0.00  0.00     0.288 A 
ATOM      9  N   UNL d   1      31.384  17.478 -23.951  0.00  0.00    -0.132 N 
ATOM     10  N   UNL d   1      32.582  18.364 -23.709  0.00  0.00    -0.139 N 
ATOM     11  O   UNL d   1      28.302  17.848 -25.092  0.00  0.00    -0.245 OA
ATOM     12  O   UNL d   1      30.309  16.037 -24.043  0.00  0.00    -0.265 OA
ATOM     13  C   UNL d   1      31.827  16.844 -23.674  0.00  0.00     0.100 A 
ATOM     14  C   UNL d   1      29.384  19.120 -24.965  0.00  0.00     0.105 C 
ATOM     15  C   UNL d   1      32.621  16.918 -23.413  0.00  0.00     0.039 A 
ATOM     16  C   UNL d   1      33.007  17.696 -23.431  0.00  0.00     0.100 A 
ENDROOT
BRANCH  10  17
ATOM     17  C   UNL d   1      33.239  18.830 -23.572  0.00  0.00     0.098 C 
BRANCH  17  18
ATOM     18  C   UNL d   1      33.230  19.617 -23.791  0.00  0.00     0.020 C 
BRANCH  18  19
ATOM     19  C   UNL d   1      33.224  20.195 -23.218  0.00  0.00     0.004 A 
ATOM     20  C   UNL d   1      33.205  20.980 -23.437  0.00  0.00     0.026 A 
ATOM     21  C   UNL d   1      33.198  21.564 -22.865  0.00  0.00     0.116 A 
ATOM     22  C   UNL d   1      33.210  21.354 -22.069  0.00  0.00     0.116 A 
ATOM     23  C   UNL d   1      33.229  20.570 -21.854  0.00  0.00     0.026 A 
ATOM     24  C   UNL d   1      33.236  19.986 -22.432  0.00  0.00     0.002 A 
BRANCH  21  25
ATOM     25  O   UNL d   1      33.179  22.353 -23.083  0.00  0.00    -0.326 OA
ATOM     26  C   UNL d   1      33.217  22.562 -23.863  0.00  0.00     0.181 C 
ENDBRANCH  21  25
BRANCH  22  27
ATOM     27  O   UNL d   1      33.199  22.063 -21.662  0.00  0.00    -0.326 OA
ATOM     28  C   UNL d   1      33.098  22.070 -20.856  0.00  0.00     0.181 C 
ENDBRANCH  22  27
ENDBRANCH  18  19
ENDBRANCH  17  18
ENDBRANCH  10  17
BRANCH   3  29
ATOM     29  C   UNL d   1      29.126  16.115 -24.468  0.00  0.00     0.090 C 
BRANCH  29  30
ATOM     30  C   UNL d   1      28.387  15.894 -24.157  0.00  0.00     0.045 A 
ATOM     31  C   UNL d   1      28.289  15.846 -23.326  0.00  0.00     0.141 A 
ATOM     32  F   UNL d   1      28.928  16.017 -22.816  0.00  0.00    -0.204 F 
ATOM     33  C   UNL d   1      27.547  15.624 -23.009  0.00  0.00     0.030 A 
ATOM     34  C   UNL d   1      26.913  15.453 -23.520  0.00  0.00     0.002 A 
ATOM     35  C   UNL d   1      27.016  15.503 -24.348  0.00  0.00     0.000 A 
ATOM     36  C   UNL d   1      27.756  15.724 -24.660  0.00  0.00     0.004 A 
ENDBRANCH  29  30
ENDBRANCH   3  29
TORSDOF 7
ENDMDL
