MODEL 1
REMARK VINA RESULT:      55.1      0.000      0.000
REMARK  5 active torsions:
REMARK  status: ('A' for Active; 'I' for Inactive)
REMARK    1  A    between atoms: C_9  and  C_1 
REMARK    2  A    between atoms: S_2  and  N_8 
REMARK    3  A    between atoms: C_10  and  S_2 
REMARK    4  A    between atoms: C_14  and  C_3 
REMARK    5  A    between atoms: N_8  and  C_9 
ROOT
ATOM      1  C   UNL d   1      46.147 -17.573  43.526  0.00  0.00     0.078 A 
ATOM      2  C   UNL d   1      46.158 -17.912  42.766  0.00  0.00     0.008 A 
ATOM      3  C   UNL d   1      46.293 -18.038  44.187  0.00  0.00     0.281 A 
ATOM      4  C   UNL d   1      46.315 -18.715  42.687  0.00  0.00     0.019 A 
ATOM      5  N   UNL d   1      46.452 -18.851  44.101  0.00  0.00    -0.208 NA
ATOM      6  C   UNL d   1      46.461 -19.180  43.347  0.00  0.00     0.085 A 
ATOM      7  C   UNL d   1      46.325 -19.047  41.932  0.00  0.00     0.013 A 
ATOM      8  O   UNL d   1      46.281 -17.691  44.955  0.00  0.00    -0.265 OA
ATOM      9  C   UNL d   1      46.619 -19.985  43.266  0.00  0.00     0.020 A 
ATOM     10  C   UNL d   1      46.484 -19.860  41.844  0.00  0.00     0.058 A 
ATOM     11  C   UNL d   1      46.629 -20.325  42.505  0.00  0.00     0.013 A 
ATOM     12 CL   UNL d   1      46.496 -20.207  41.078  0.00  0.00    -0.082 Cl
ENDROOT
BRANCH   1  13
ATOM     13  C   UNL d   1      45.988 -16.760  43.614  0.00  0.00     0.117 C 
BRANCH  13  14
ATOM     14  N   UNL d   1      45.804 -16.457  44.364  0.00  0.00    -0.157 NA
BRANCH  14  15
ATOM     15  S   UNL d   1      45.676 -15.637  44.264  0.00  0.00     0.285 S 
ATOM     16  O   UNL d   1      44.862 -15.749  44.381  0.00  0.00    -0.198 OA
ATOM     17  O   UNL d   1      46.495 -15.533  44.148  0.00  0.00    -0.198 OA
BRANCH  15  18
ATOM     18  C   UNL d   1      45.549 -14.822  44.166  0.00  0.00     0.105 A 
ATOM     19  C   UNL d   1      46.176 -14.289  44.243  0.00  0.00     0.013 A 
ATOM     20  C   UNL d   1      46.061 -13.484  44.148  0.00  0.00     0.001 A 
ATOM     21  C   UNL d   1      45.295 -13.195  43.968  0.00  0.00     0.000 A 
ATOM     22  C   UNL d   1      44.667 -13.728  43.891  0.00  0.00     0.001 A 
ATOM     23  C   UNL d   1      45.170 -12.388  43.870  0.00  0.00     0.000 C 
ATOM     24  C   UNL d   1      44.794 -14.542  43.989  0.00  0.00     0.013 A 
ENDBRANCH  15  18
ENDBRANCH  14  15
ENDBRANCH  13  14
ENDBRANCH   1  13
BRANCH   2  25
ATOM     25  C   UNL d   1      46.013 -17.447  42.104  0.00  0.00     0.000 A 
ATOM     26  C   UNL d   1      45.255 -17.386  41.794  0.00  0.00     0.000 A 
ATOM     27  C   UNL d   1      45.110 -16.921  41.133  0.00  0.00     0.000 A 
ATOM     28  C   UNL d   1      45.719 -16.508  40.770  0.00  0.00     0.000 A 
ATOM     29  C   UNL d   1      46.496 -16.564  41.079  0.00  0.00     0.000 A 
ATOM     30  C   UNL d   1      46.636 -17.030  41.741  0.00  0.00     0.000 A 
ENDBRANCH   2  25
TORSDOF 5
ENDMDL
