MODEL 1
REMARK VINA RESULT:      45.7      0.000      0.000
REMARK  4 active torsions:
REMARK  status: ('A' for Active; 'I' for Inactive)
REMARK    1  A    between atoms: N_8  and  C_2 
REMARK    2  A    between atoms: C_9  and  C_3 
REMARK       I    between atoms: C_6  and  N_7 
REMARK    3  A    between atoms: C_10  and  C_6 
REMARK    4  A    between atoms: N_7  and  N_8 
ROOT
ATOM      1  C   UNL d   1      60.203  49.187  51.740  0.00  0.00     0.297 C 
ATOM      2  N   UNL d   1      59.496  49.615  51.572  0.00  0.00    -0.104 NA
ATOM      3  O   UNL d   1      60.447  49.094  52.513  0.00  0.00    -0.264 OA
ENDROOT
BRANCH   2   4
ATOM      4  N   UNL d   1      59.257  49.705  50.804  0.00  0.00    -0.119 NA
BRANCH   4   5
ATOM      5  C   UNL d   1      58.488  49.614  50.618  0.00  0.00     0.214 A 
ATOM      6  N   UNL d   1      58.108  49.427  49.901  0.00  0.00    -0.224 NA
ATOM      7  C   UNL d   1      57.275  49.410  50.058  0.00  0.00     0.067 A 
ATOM      8  C   UNL d   1      57.181  49.584  50.847  0.00  0.00     0.053 A 
ATOM      9  S   UNL d   1      57.910  49.708  51.188  0.00  0.00    -0.045 SA
BRANCH   7  10
ATOM     10  C   UNL d   1      56.659  49.248  49.516  0.00  0.00     0.036 C 
ATOM     11  C   UNL d   1      56.038  49.082  48.989  0.00  0.00     0.006 C 
ATOM     12  C   UNL d   1      56.190  48.989  50.148  0.00  0.00     0.006 C 
ATOM     13  C   UNL d   1      57.149  49.514  48.894  0.00  0.00     0.006 C 
ENDBRANCH   7  10
ENDBRANCH   4   5
ENDBRANCH   2   4
BRANCH   1  14
ATOM     14  C   UNL d   1      60.656  48.854  51.106  0.00  0.00     0.059 A 
ATOM     15  C   UNL d   1      60.962  49.355  50.516  0.00  0.00     0.005 A 
ATOM     16  C   UNL d   1      61.386  49.028  49.926  0.00  0.00     0.007 A 
ATOM     17  C   UNL d   1      61.533  48.217  49.879  0.00  0.00     0.035 A 
ATOM     18  C   UNL d   1      61.233  47.721  50.460  0.00  0.00     0.007 A 
ATOM     19 BR   UNL d   1      61.971  47.909  49.263  0.00  0.00    -0.049 Br
ATOM     20  C   UNL d   1      60.796  48.045  51.070  0.00  0.00     0.005 A 
ENDBRANCH   1  14
TORSDOF 4
ENDMDL
