MODEL 1
REMARK VINA RESULT:      19.5      0.000      0.000
REMARK  4 active torsions:
REMARK  status: ('A' for Active; 'I' for Inactive)
REMARK       I    between atoms: C_2  and  N_1 
REMARK    1  A    between atoms: C_6  and  C_2 
REMARK       I    between atoms: C_4  and  N_7 
REMARK    2  A    between atoms: C_5  and  C_4 
REMARK       I    between atoms: N_10  and  C_5 
REMARK    3  A    between atoms: N_7  and  C_13 
REMARK    4  A    between atoms: C_19  and  N_10 
ROOT
ATOM      1  N   UNL d   1      46.352 -18.955  42.418  0.00  0.00    -0.273 N 
ATOM      2  C   UNL d   1      46.213 -18.344  41.865  0.00  0.00     0.265 C 
ATOM      3  C   UNL d   1      46.354 -18.798  43.223  0.00  0.00     0.068 A 
ATOM      4  C   UNL d   1      46.219 -18.030  43.494  0.00  0.00     0.037 A 
ATOM      5  C   UNL d   1      46.490 -19.404  43.762  0.00  0.00     0.016 A 
ATOM      6  C   UNL d   1      46.221 -17.872  44.304  0.00  0.00     0.086 A 
ATOM      7  O   UNL d   1      46.079 -17.580  42.136  0.00  0.00    -0.267 OA
ATOM      8  C   UNL d   1      46.492 -19.246  44.571  0.00  0.00     0.003 A 
ATOM      9  C   UNL d   1      46.486 -19.719  42.146  0.00  0.00     0.083 A 
ATOM     10  C   UNL d   1      46.358 -18.482  44.842  0.00  0.00     0.019 A 
ATOM     11  C   UNL d   1      46.623 -20.329  42.685  0.00  0.00     0.019 A 
ATOM     12  C   UNL d   1      46.626 -20.172  43.490  0.00  0.00     0.003 A 
ENDROOT
BRANCH   6  13
ATOM     13  N   UNL d   1      46.085 -17.100  44.574  0.00  0.00    -0.204 NA
ATOM     14  C   UNL d   1      45.763 -16.538  44.063  0.00  0.00     0.337 C 
ATOM     15  O   UNL d   1      45.576 -16.745  43.286  0.00  0.00    -0.260 OA
BRANCH  14  16
ATOM     16  C   UNL d   1      45.626 -15.771  44.326  0.00  0.00     0.337 C 
ATOM     17  N   UNL d   1      46.005 -15.135  43.963  0.00  0.00    -0.204 NA
ATOM     18  O   UNL d   1      45.107 -15.639  44.955  0.00  0.00    -0.260 OA
BRANCH  17  19
ATOM     19  C   UNL d   1      45.867 -14.366  44.229  0.00  0.00     0.085 A 
ATOM     20  C   UNL d   1      46.436 -13.980  44.671  0.00  0.00     0.019 A 
ATOM     21  C   UNL d   1      46.300 -13.204  44.941  0.00  0.00     0.002 A 
ATOM     22  C   UNL d   1      45.588 -12.829  44.761  0.00  0.00     0.000 A 
ATOM     23  C   UNL d   1      45.012 -13.229  44.311  0.00  0.00     0.002 A 
ATOM     24  C   UNL d   1      45.154 -13.991  44.050  0.00  0.00     0.019 A 
ENDBRANCH  17  19
ENDBRANCH  14  16
ENDBRANCH   6  13
BRANCH   2  25
ATOM     25  C   UNL d   1      46.212 -18.506  41.056  0.00  0.00     0.057 A 
ATOM     26  C   UNL d   1      46.212 -18.664  40.247  0.00  0.00     0.005 A 
ATOM     27  C   UNL d   1      46.437 -17.919  40.521  0.00  0.00     0.005 A 
ENDBRANCH   2  25
TORSDOF 4
ENDMDL
