MODEL 1
REMARK VINA RESULT:      80.0      0.000      0.000
REMARK  6 active torsions:
REMARK  status: ('A' for Active; 'I' for Inactive)
REMARK    1  A    between atoms: C_8  and  C_1 
REMARK    2  A    between atoms: S_10  and  C_2 
REMARK    3  A    between atoms: C_7  and  C_4 
REMARK    4  A    between atoms: C_23  and  S_10 
REMARK    5  A    between atoms: C_16  and  C_23 
REMARK    6  A    between atoms: O_25  and  C_16 
ROOT
ATOM      1  C   UNL d   1      59.949  49.184  50.725  0.00  0.00     0.045 A 
ATOM      2  C   UNL d   1      60.780  49.108  50.929  0.00  0.00     0.112 A 
ATOM      3  C   UNL d   1      59.651  49.437  52.106  0.00  0.00     0.057 A 
ATOM      4  C   UNL d   1      59.402  49.347  51.320  0.00  0.00     0.008 A 
ATOM      5  C   UNL d   1      60.451  49.364  52.302  0.00  0.00     0.085 A 
ATOM      6  N   UNL d   1      61.012  49.200  51.715  0.00  0.00    -0.239 NA
ATOM      7  C   UNL d   1      59.090  49.600  52.687  0.00  0.00     0.197 A 
ATOM      8  O   UNL d   1      58.285  49.674  52.489  0.00  0.00    -0.286 OA
ATOM      9  C   UNL d   1      60.700  49.452  53.081  0.00  0.00     0.019 A 
ATOM     10  C   UNL d   1      59.321  49.692  53.474  0.00  0.00     0.042 A 
ATOM     11  C   UNL d   1      60.153  49.616  53.678  0.00  0.00     0.005 A 
ENDROOT
BRANCH   4  12
ATOM     12  C   UNL d   1      58.597  49.421  51.123  0.00  0.00     0.002 A 
ATOM     13  C   UNL d   1      58.356  49.408  50.336  0.00  0.00     0.026 A 
ATOM     14  C   UNL d   1      57.557  49.481  50.140  0.00  0.00     0.119 A 
ATOM     15  O   UNL d   1      57.153  49.487  49.410  0.00  0.00    -0.300 OA
ATOM     16  C   UNL d   1      56.993  49.569  50.730  0.00  0.00     0.119 A 
ATOM     17  C   UNL d   1      56.363  49.577  49.561  0.00  0.00     0.304 A 
ATOM     18  O   UNL d   1      56.258  49.627  50.361  0.00  0.00    -0.300 OA
ATOM     19  C   UNL d   1      57.240  49.584  51.565  0.00  0.00     0.026 A 
ATOM     20  C   UNL d   1      58.039  49.510  51.738  0.00  0.00     0.002 A 
ENDBRANCH   4  12
BRANCH   1  21
ATOM     21  C   UNL d   1      59.670  49.095  49.921  0.00  0.00     0.124 C 
ATOM     22  N   UNL d   1      60.160  49.287  49.297  0.00  0.00    -0.146 N 
ENDBRANCH   1  21
BRANCH   2  23
ATOM     23  S   UNL d   1      61.378  48.939  50.340  0.00  0.00    -0.062 SA
BRANCH  23  24
ATOM     24  C   UNL d   1      61.788  48.232  50.367  0.00  0.00     0.105 C 
BRANCH  24  25
ATOM     25  C   UNL d   1      62.071  47.895  49.671  0.00  0.00     0.303 C 
ATOM     26  O   UNL d   1      62.731  48.212  49.298  0.00  0.00    -0.259 OA
BRANCH  25  27
ATOM     27  O   UNL d   1      61.693  47.241  49.349  0.00  0.00    -0.295 OA
ATOM     28  C   UNL d   1      62.048  46.496  49.359  0.00  0.00     0.185 C 
ENDBRANCH  25  27
ENDBRANCH  24  25
ENDBRANCH  23  24
ENDBRANCH   2  23
TORSDOF 6
ENDMDL
