MODEL 1
REMARK VINA RESULT:      53.9      0.000      0.000
REMARK  4 active torsions:
REMARK  status: ('A' for Active; 'I' for Inactive)
REMARK    1  A    between atoms: C_2  and  C_1 
REMARK    2  A    between atoms: C_16  and  C_4 
REMARK    3  A    between atoms: C_28  and  C_15 
REMARK    4  A    between atoms: N_17  and  C_16 
ROOT
ATOM      1  C   UNL d   1      46.141 -16.309  43.475  0.00  0.00     0.098 A 
ATOM      2  C   UNL d   1      46.421 -18.581  42.515  0.00  0.00     0.079 A 
ATOM      3  C   UNL d   1      46.101 -17.739  43.623  0.00  0.00     0.062 A 
ATOM      4  C   UNL d   1      46.006 -16.988  43.948  0.00  0.00     0.202 A 
ATOM      5  C   UNL d   1      46.330 -17.836  42.828  0.00  0.00     0.108 A 
ATOM      6  C   UNL d   1      46.370 -16.407  42.679  0.00  0.00     0.129 A 
ATOM      7  O   UNL d   1      46.466 -17.169  42.351  0.00  0.00    -0.305 OA
ATOM      8  C   UNL d   1      46.288 -19.245  42.983  0.00  0.00     0.199 A 
ATOM      9  C   UNL d   1      45.967 -18.403  44.094  0.00  0.00     0.008 A 
ATOM     10  C   UNL d   1      46.062 -19.149  43.768  0.00  0.00     0.039 A 
ATOM     11  O   UNL d   1      45.781 -16.897  44.730  0.00  0.00    -0.286 OA
ATOM     12  O   UNL d   1      46.378 -19.999  42.672  0.00  0.00    -0.286 OA
ENDROOT
BRANCH   1  13
ATOM     13  C   UNL d   1      46.048 -15.554  43.795  0.00  0.00     0.153 A 
ATOM     14  N   UNL d   1      46.619 -14.953  43.796  0.00  0.00    -0.227 NA
ATOM     15  C   UNL d   1      46.287 -14.293  44.174  0.00  0.00     0.099 A 
ATOM     16  C   UNL d   1      46.594 -13.552  44.331  0.00  0.00     0.021 A 
ATOM     17  C   UNL d   1      45.528 -14.484  44.401  0.00  0.00     0.083 A 
ATOM     18  C   UNL d   1      46.133 -12.991  44.723  0.00  0.00     0.002 A 
ATOM     19  C   UNL d   1      45.369 -13.180  44.952  0.00  0.00     0.002 A 
ATOM     20  C   UNL d   1      45.060 -13.938  44.790  0.00  0.00     0.019 A 
ATOM     21  N   UNL d   1      45.372 -15.272  44.167  0.00  0.00    -0.288 N 
ATOM     22  C   UNL d   1      44.672 -15.696  44.283  0.00  0.00     0.101 C 
ENDBRANCH   1  13
BRANCH  10  23
ATOM     23  C   UNL d   1      45.927 -19.822  44.241  0.00  0.00     0.003 C 
ATOM     24  C   UNL d   1      46.353 -19.935  44.942  0.00  0.00     0.000 C 
ENDBRANCH  10  23
BRANCH   2  25
ATOM     25  C   UNL d   1      46.647 -18.677  41.730  0.00  0.00     0.086 C 
BRANCH  25  26
ATOM     26  N   UNL d   1      46.140 -18.458  41.128  0.00  0.00    -0.300 N 
ATOM     27  C   UNL d   1      46.406 -17.955  40.519  0.00  0.00     0.100 A 
ATOM     28  C   UNL d   1      45.877 -17.737  39.908  0.00  0.00     0.100 A 
ATOM     29  N   UNL d   1      45.103 -18.015  39.905  0.00  0.00    -0.299 N 
ATOM     30  C   UNL d   1      44.845 -18.518  40.517  0.00  0.00     0.100 A 
ATOM     31  C   UNL d   1      44.583 -17.797  39.298  0.00  0.00     0.100 C 
ATOM     32  C   UNL d   1      45.361 -18.737  41.124  0.00  0.00     0.100 A 
ENDBRANCH  25  26
ENDBRANCH   2  25
TORSDOF 4
ENDMDL
