MODEL 1
REMARK VINA RESULT:      60.3      0.000      0.000
REMARK  4 active torsions:
REMARK  status: ('A' for Active; 'I' for Inactive)
REMARK    1  A    between atoms: C_2  and  C_1 
REMARK       I    between atoms: N_7  and  C_2 
REMARK    2  A    between atoms: N_6  and  C_5 
REMARK    3  A    between atoms: C_10  and  N_7 
REMARK    4  A    between atoms: C_8  and  C_9 
ROOT
ATOM      1  C   UNL d   1     -48.276  29.330  34.826  0.00  0.00     0.021 A 
ATOM      2  C   UNL d   1     -47.768  30.650  34.621  0.00  0.00     0.085 A 
ATOM      3  C   UNL d   1     -48.239  30.019  34.374  0.00  0.00     0.021 A 
ATOM      4  C   UNL d   1     -47.841  29.272  35.526  0.00  0.00     0.002 A 
ATOM      5  C   UNL d   1     -47.375  29.899  35.766  0.00  0.00     0.002 A 
ATOM      6  C   UNL d   1     -47.339  30.588  35.314  0.00  0.00     0.019 A 
ENDROOT
BRANCH   1   7
ATOM      7  C   UNL d   1     -48.753  28.695  34.574  0.00  0.00     0.103 A 
ATOM      8  N   UNL d   1     -48.575  27.932  34.808  0.00  0.00    -0.147 NA
ATOM      9  N   UNL d   1     -49.050  27.306  34.556  0.00  0.00    -0.130 NA
ATOM     10  C   UNL d   1     -49.701  27.451  34.069  0.00  0.00     0.169 A 
ATOM     11  C   UNL d   1     -49.875  28.227  33.836  0.00  0.00     0.041 A 
ATOM     12  C   UNL d   1     -49.403  28.841  34.088  0.00  0.00     0.024 A 
BRANCH  10  13
ATOM     13  N   UNL d   1     -50.174  26.834  33.818  0.00  0.00    -0.288 N 
ATOM     14  C   UNL d   1     -50.987  26.947  33.734  0.00  0.00     0.082 A 
ATOM     15  C   UNL d   1     -51.467  26.327  33.480  0.00  0.00     0.019 A 
ATOM     16  C   UNL d   1     -51.135  25.591  33.310  0.00  0.00     0.003 A 
ATOM     17  C   UNL d   1     -50.321  25.477  33.393  0.00  0.00     0.019 A 
ATOM     18  C   UNL d   1     -49.841  26.098  33.647  0.00  0.00     0.082 A 
ENDBRANCH  10  13
ENDBRANCH   1   7
BRANCH   2  19
ATOM     19  N   UNL d   1     -47.731  31.339  34.169  0.00  0.00    -0.205 NA
ATOM     20  C   UNL d   1     -47.708  32.071  34.533  0.00  0.00     0.351 C 
ATOM     21  O   UNL d   1     -47.720  32.118  35.357  0.00  0.00    -0.261 OA
BRANCH  20  22
ATOM     22  C   UNL d   1     -47.671  32.756  34.083  0.00  0.00     0.474 C 
ATOM     23  F   UNL d   1     -47.635  33.445  33.631  0.00  0.00    -0.162 F 
ATOM     24  F   UNL d   1     -46.901  32.888  34.347  0.00  0.00    -0.162 F 
ATOM     25  F   UNL d   1     -48.442  32.624  33.820  0.00  0.00    -0.162 F 
ENDBRANCH  20  22
ENDBRANCH   2  19
TORSDOF 4
ENDMDL
MODEL 2
REMARK VINA RESULT:      62.5      4.064      6.372
REMARK  4 active torsions:
REMARK  status: ('A' for Active; 'I' for Inactive)
REMARK    1  A    between atoms: C_2  and  C_1 
REMARK       I    between atoms: N_7  and  C_2 
REMARK    2  A    between atoms: N_6  and  C_5 
REMARK    3  A    between atoms: C_10  and  N_7 
REMARK    4  A    between atoms: C_8  and  C_9 
ROOT
ATOM      1  C   UNL d   1     -50.018  25.741  33.865  0.00  0.00     0.021 A 
ATOM      2  C   UNL d   1     -51.211  25.036  33.516  0.00  0.00     0.085 A 
ATOM      3  C   UNL d   1     -50.840  25.718  33.797  0.00  0.00     0.021 A 
ATOM      4  C   UNL d   1     -49.567  25.083  33.652  0.00  0.00     0.002 A 
ATOM      5  C   UNL d   1     -49.940  24.410  33.374  0.00  0.00     0.002 A 
ATOM      6  C   UNL d   1     -50.762  24.387  33.306  0.00  0.00     0.019 A 
ENDROOT
BRANCH   1   7
ATOM      7  C   UNL d   1     -49.647  26.430  34.150  0.00  0.00     0.103 A 
ATOM      8  N   UNL d   1     -49.495  26.513  34.950  0.00  0.00    -0.147 NA
ATOM      9  N   UNL d   1     -49.127  27.197  35.228  0.00  0.00    -0.130 NA
ATOM     10  C   UNL d   1     -48.914  27.795  34.700  0.00  0.00     0.169 A 
ATOM     11  C   UNL d   1     -49.070  27.705  33.891  0.00  0.00     0.041 A 
ATOM     12  C   UNL d   1     -49.434  27.028  33.622  0.00  0.00     0.024 A 
BRANCH  10  13
ATOM     13  N   UNL d   1     -48.549  28.474  34.971  0.00  0.00    -0.288 N 
ATOM     14  C   UNL d   1     -48.371  28.550  35.773  0.00  0.00     0.082 A 
ATOM     15  C   UNL d   1     -48.002  29.234  36.052  0.00  0.00     0.019 A 
ATOM     16  C   UNL d   1     -47.813  29.843  35.528  0.00  0.00     0.003 A 
ATOM     17  C   UNL d   1     -47.991  29.767  34.725  0.00  0.00     0.019 A 
ATOM     18  C   UNL d   1     -48.359  29.082  34.447  0.00  0.00     0.082 A 
ENDBRANCH  10  13
ENDBRANCH   1   7
BRANCH   2  19
ATOM     19  N   UNL d   1     -52.033  25.013  33.447  0.00  0.00    -0.205 NA
ATOM     20  C   UNL d   1     -52.439  24.315  33.577  0.00  0.00     0.351 C 
ATOM     21  O   UNL d   1     -52.022  23.631  33.778  0.00  0.00    -0.261 OA
BRANCH  20  22
ATOM     22  C   UNL d   1     -53.256  24.292  33.509  0.00  0.00     0.474 C 
ATOM     23  F   UNL d   1     -54.077  24.269  33.441  0.00  0.00    -0.162 F 
ATOM     24  F   UNL d   1     -53.248  23.487  33.688  0.00  0.00    -0.162 F 
ATOM     25  F   UNL d   1     -53.263  25.098  33.331  0.00  0.00    -0.162 F 
ENDBRANCH  20  22
ENDBRANCH   2  19
TORSDOF 4
ENDMDL
