MODEL 1
REMARK VINA RESULT:      -7.1      0.000      0.000
REMARK  6 active torsions:
REMARK  status: ('A' for Active; 'I' for Inactive)
REMARK    1  A    between atoms: C_6  and  C_1 
REMARK    2  A    between atoms: C_10  and  N_3 
REMARK    3  A    between atoms: O_7  and  C_6 
REMARK    4  A    between atoms: C_8  and  O_7 
REMARK    5  A    between atoms: O_11  and  C_9 
REMARK    6  A    between atoms: C_17  and  C_10 
ROOT
ATOM      1  C   UNL d   1      51.668  34.047  53.026  0.00  0.00     0.173 A 
ATOM      2  N   UNL d   1      51.920  34.802  53.282  0.00  0.00    -0.225 NA
ATOM      3  N   UNL d   1      52.151  33.504  53.420  0.00  0.00    -0.287 N 
ATOM      4  C   UNL d   1      52.679  33.897  53.901  0.00  0.00     0.083 A 
ATOM      5  C   UNL d   1      52.533  34.717  53.814  0.00  0.00     0.099 A 
ATOM      6  C   UNL d   1      53.284  33.638  54.416  0.00  0.00     0.019 A 
ATOM      7  C   UNL d   1      52.999  35.240  54.246  0.00  0.00     0.021 A 
ATOM      8  C   UNL d   1      53.720  34.180  54.823  0.00  0.00     0.002 A 
ATOM      9  C   UNL d   1      53.574  35.001  54.736  0.00  0.00     0.002 A 
ENDROOT
BRANCH   1  10
ATOM     10  C   UNL d   1      51.058  34.110  52.496  0.00  0.00     0.160 C 
BRANCH  10  11
ATOM     11  O   UNL d   1      50.348  34.507  52.708  0.00  0.00    -0.300 OA
BRANCH  11  12
ATOM     12  C   UNL d   1      49.720  34.596  52.158  0.00  0.00     0.122 A 
ATOM     13  C   UNL d   1      49.038  35.006  52.379  0.00  0.00     0.117 A 
ATOM     14  C   UNL d   1      48.403  35.106  51.848  0.00  0.00     0.026 A 
ATOM     15  C   UNL d   1      48.482  34.781  51.098  0.00  0.00     0.002 A 
ATOM     16  C   UNL d   1      49.166  34.369  50.875  0.00  0.00     0.002 A 
ATOM     17  C   UNL d   1      49.796  34.271  51.404  0.00  0.00     0.027 A 
BRANCH  13  18
ATOM     18  O   UNL d   1      48.981  35.328  53.148  0.00  0.00    -0.326 OA
ATOM     19  C   UNL d   1      48.347  35.850  53.355  0.00  0.00     0.181 C 
ENDBRANCH  13  18
ENDBRANCH  11  12
ENDBRANCH  10  11
ENDBRANCH   1  10
BRANCH   3  20
ATOM     20  C   UNL d   1      51.985  32.744  53.239  0.00  0.00     0.082 C 
BRANCH  20  21
ATOM     21  C   UNL d   1      52.541  32.240  52.894  0.00  0.00     0.019 C 
ATOM     22  C   UNL d   1      52.442  31.425  52.842  0.00  0.00     0.002 C 
ENDBRANCH  20  21
ENDBRANCH   3  20
TORSDOF 6
ENDMDL
MODEL 2
REMARK VINA RESULT:      -6.9      2.523      4.617
REMARK  6 active torsions:
REMARK  status: ('A' for Active; 'I' for Inactive)
REMARK    1  A    between atoms: C_6  and  C_1 
REMARK    2  A    between atoms: C_10  and  N_3 
REMARK    3  A    between atoms: O_7  and  C_6 
REMARK    4  A    between atoms: C_8  and  O_7 
REMARK    5  A    between atoms: O_11  and  C_9 
REMARK    6  A    between atoms: C_17  and  C_10 
ROOT
ATOM      1  C   UNL d   1      53.516  32.563  53.880  0.00  0.00     0.173 A 
ATOM      2  N   UNL d   1      54.267  32.524  54.244  0.00  0.00    -0.225 NA
ATOM      3  N   UNL d   1      53.216  33.310  54.067  0.00  0.00    -0.287 N 
ATOM      4  C   UNL d   1      53.750  33.720  54.524  0.00  0.00     0.083 A 
ATOM      5  C   UNL d   1      54.415  33.223  54.636  0.00  0.00     0.099 A 
ATOM      6  C   UNL d   1      53.742  34.483  54.867  0.00  0.00     0.019 A 
ATOM      7  C   UNL d   1      55.042  33.512  55.085  0.00  0.00     0.021 A 
ATOM      8  C   UNL d   1      54.375  34.731  55.300  0.00  0.00     0.002 A 
ATOM      9  C   UNL d   1      55.040  34.234  55.412  0.00  0.00     0.002 A 
ENDROOT
BRANCH   1  10
ATOM     10  C   UNL d   1      53.350  31.875  53.484  0.00  0.00     0.160 C 
BRANCH  10  11
ATOM     11  O   UNL d   1      53.444  31.131  53.862  0.00  0.00    -0.300 OA
BRANCH  11  12
ATOM     12  C   UNL d   1      53.171  30.424  53.502  0.00  0.00     0.122 A 
ATOM     13  C   UNL d   1      53.127  29.729  53.947  0.00  0.00     0.117 A 
ATOM     14  C   UNL d   1      52.859  29.016  53.608  0.00  0.00     0.026 A 
ATOM     15  C   UNL d   1      52.641  29.031  52.817  0.00  0.00     0.002 A 
ATOM     16  C   UNL d   1      52.684  29.728  52.370  0.00  0.00     0.002 A 
ATOM     17  C   UNL d   1      52.951  30.436  52.708  0.00  0.00     0.027 A 
BRANCH  13  18
ATOM     18  O   UNL d   1      53.356  29.739  54.751  0.00  0.00    -0.326 OA
ATOM     19  C   UNL d   1      53.359  29.027  55.210  0.00  0.00     0.181 C 
ENDBRANCH  13  18
ENDBRANCH  11  12
ENDBRANCH  10  11
ENDBRANCH   1  10
BRANCH   3  20
ATOM     20  C   UNL d   1      52.490  33.445  53.760  0.00  0.00     0.082 C 
BRANCH  20  21
ATOM     21  C   UNL d   1      52.353  34.021  53.184  0.00  0.00     0.019 C 
ATOM     22  C   UNL d   1      51.607  34.186  52.878  0.00  0.00     0.002 C 
ENDBRANCH  20  21
ENDBRANCH   3  20
TORSDOF 6
ENDMDL
MODEL 3
REMARK VINA RESULT:      -6.7      0.770      2.265
REMARK  6 active torsions:
REMARK  status: ('A' for Active; 'I' for Inactive)
REMARK    1  A    between atoms: C_6  and  C_1 
REMARK    2  A    between atoms: C_10  and  N_3 
REMARK    3  A    between atoms: O_7  and  C_6 
REMARK    4  A    between atoms: C_8  and  O_7 
REMARK    5  A    between atoms: O_11  and  C_9 
REMARK    6  A    between atoms: C_17  and  C_10 
ROOT
ATOM      1  C   UNL d   1      51.504  33.900  53.298  0.00  0.00     0.173 A 
ATOM      2  N   UNL d   1      51.322  33.097  53.155  0.00  0.00    -0.225 NA
ATOM      3  N   UNL d   1      52.328  33.934  53.361  0.00  0.00    -0.287 N 
ATOM      4  C   UNL d   1      52.647  33.191  53.263  0.00  0.00     0.083 A 
ATOM      5  C   UNL d   1      52.011  32.661  53.132  0.00  0.00     0.099 A 
ATOM      6  C   UNL d   1      53.431  32.900  53.270  0.00  0.00     0.019 A 
ATOM      7  C   UNL d   1      52.188  31.866  53.016  0.00  0.00     0.021 A 
ATOM      8  C   UNL d   1      53.565  32.114  53.152  0.00  0.00     0.002 A 
ATOM      9  C   UNL d   1      52.929  31.585  53.022  0.00  0.00     0.002 A 
ENDROOT
BRANCH   1  10
ATOM     10  C   UNL d   1      50.831  34.350  53.323  0.00  0.00     0.160 C 
BRANCH  10  11
ATOM     11  O   UNL d   1      50.290  34.346  52.681  0.00  0.00    -0.300 OA
BRANCH  11  12
ATOM     12  C   UNL d   1      49.583  34.798  52.705  0.00  0.00     0.122 A 
ATOM     13  C   UNL d   1      49.089  34.822  52.044  0.00  0.00     0.117 A 
ATOM     14  C   UNL d   1      48.383  35.265  52.048  0.00  0.00     0.026 A 
ATOM     15  C   UNL d   1      48.197  35.675  52.735  0.00  0.00     0.002 A 
ATOM     16  C   UNL d   1      48.692  35.650  53.400  0.00  0.00     0.002 A 
ATOM     17  C   UNL d   1      49.393  35.210  53.394  0.00  0.00     0.027 A 
BRANCH  13  18
ATOM     18  O   UNL d   1      49.300  34.396  51.356  0.00  0.00    -0.326 OA
ATOM     19  C   UNL d   1      48.803  34.404  50.672  0.00  0.00     0.181 C 
ENDBRANCH  13  18
ENDBRANCH  11  12
ENDBRANCH  10  11
ENDBRANCH   1  10
BRANCH   3  20
ATOM     20  C   UNL d   1      52.604  34.670  53.500  0.00  0.00     0.082 C 
BRANCH  20  21
ATOM     21  C   UNL d   1      52.921  34.895  54.229  0.00  0.00     0.019 C 
ATOM     22  C   UNL d   1      53.203  35.651  54.386  0.00  0.00     0.002 C 
ENDBRANCH  20  21
ENDBRANCH   3  20
TORSDOF 6
ENDMDL
MODEL 4
REMARK VINA RESULT:      -6.5      2.603      4.927
REMARK  6 active torsions:
REMARK  status: ('A' for Active; 'I' for Inactive)
REMARK    1  A    between atoms: C_6  and  C_1 
REMARK    2  A    between atoms: C_10  and  N_3 
REMARK    3  A    between atoms: O_7  and  C_6 
REMARK    4  A    between atoms: C_8  and  O_7 
REMARK    5  A    between atoms: O_11  and  C_9 
REMARK    6  A    between atoms: C_17  and  C_10 
ROOT
ATOM      1  C   UNL d   1      53.304  32.593  54.081  0.00  0.00     0.173 A 
ATOM      2  N   UNL d   1      52.534  32.673  53.766  0.00  0.00    -0.225 NA
ATOM      3  N   UNL d   1      53.650  33.342  54.020  0.00  0.00    -0.287 N 
ATOM      4  C   UNL d   1      53.124  33.866  53.683  0.00  0.00     0.083 A 
ATOM      5  C   UNL d   1      52.419  33.443  53.523  0.00  0.00     0.099 A 
ATOM      6  C   UNL d   1      53.171  34.678  53.491  0.00  0.00     0.019 A 
ATOM      7  C   UNL d   1      51.793  33.852  53.178  0.00  0.00     0.021 A 
ATOM      8  C   UNL d   1      52.537  35.044  53.153  0.00  0.00     0.002 A 
ATOM      9  C   UNL d   1      51.832  34.621  52.993  0.00  0.00     0.002 A 
ENDROOT
BRANCH   1  10
ATOM     10  C   UNL d   1      53.439  31.834  54.330  0.00  0.00     0.160 C 
BRANCH  10  11
ATOM     11  O   UNL d   1      53.273  31.183  53.824  0.00  0.00    -0.300 OA
BRANCH  11  12
ATOM     12  C   UNL d   1      53.296  30.395  54.109  0.00  0.00     0.122 A 
ATOM     13  C   UNL d   1      53.236  29.765  53.577  0.00  0.00     0.117 A 
ATOM     14  C   UNL d   1      53.257  28.975  53.840  0.00  0.00     0.026 A 
ATOM     15  C   UNL d   1      53.339  28.846  54.647  0.00  0.00     0.002 A 
ATOM     16  C   UNL d   1      53.399  29.476  55.181  0.00  0.00     0.002 A 
ATOM     17  C   UNL d   1      53.378  30.262  54.919  0.00  0.00     0.027 A 
BRANCH  13  18
ATOM     18  O   UNL d   1      53.154  29.922  52.761  0.00  0.00    -0.326 OA
ATOM     19  C   UNL d   1      52.693  29.413  52.266  0.00  0.00     0.181 C 
ENDBRANCH  13  18
ENDBRANCH  11  12
ENDBRANCH  10  11
ENDBRANCH   1  10
BRANCH   3  20
ATOM     20  C   UNL d   1      54.398  33.369  54.299  0.00  0.00     0.082 C 
BRANCH  20  21
ATOM     21  C   UNL d   1      54.590  33.732  55.015  0.00  0.00     0.019 C 
ATOM     22  C   UNL d   1      55.362  33.803  55.293  0.00  0.00     0.002 C 
ENDBRANCH  20  21
ENDBRANCH   3  20
TORSDOF 6
ENDMDL
MODEL 5
REMARK VINA RESULT:      -6.0      1.372      2.805
REMARK  6 active torsions:
REMARK  status: ('A' for Active; 'I' for Inactive)
REMARK    1  A    between atoms: C_6  and  C_1 
REMARK    2  A    between atoms: C_10  and  N_3 
REMARK    3  A    between atoms: O_7  and  C_6 
REMARK    4  A    between atoms: C_8  and  O_7 
REMARK    5  A    between atoms: O_11  and  C_9 
REMARK    6  A    between atoms: C_17  and  C_10 
ROOT
ATOM      1  C   UNL d   1      52.469  32.791  53.431  0.00  0.00     0.173 A 
ATOM      2  N   UNL d   1      52.083  32.108  53.143  0.00  0.00    -0.225 NA
ATOM      3  N   UNL d   1      53.240  32.554  53.611  0.00  0.00    -0.287 N 
ATOM      4  C   UNL d   1      53.335  31.762  53.445  0.00  0.00     0.083 A 
ATOM      5  C   UNL d   1      52.603  31.480  53.149  0.00  0.00     0.099 A 
ATOM      6  C   UNL d   1      53.982  31.237  53.516  0.00  0.00     0.019 A 
ATOM      7  C   UNL d   1      52.553  30.686  52.938  0.00  0.00     0.021 A 
ATOM      8  C   UNL d   1      53.894  30.466  53.298  0.00  0.00     0.002 A 
ATOM      9  C   UNL d   1      53.162  30.184  53.003  0.00  0.00     0.002 A 
ENDROOT
BRANCH   1  10
ATOM     10  C   UNL d   1      51.967  33.428  53.432  0.00  0.00     0.160 C 
BRANCH  10  11
ATOM     11  O   UNL d   1      51.456  33.571  52.781  0.00  0.00    -0.300 OA
BRANCH  11  12
ATOM     12  C   UNL d   1      50.796  34.084  52.851  0.00  0.00     0.122 A 
ATOM     13  C   UNL d   1      50.380  34.312  52.174  0.00  0.00     0.117 A 
ATOM     14  C   UNL d   1      49.722  34.820  52.223  0.00  0.00     0.026 A 
ATOM     15  C   UNL d   1      49.501  35.084  52.968  0.00  0.00     0.002 A 
ATOM     16  C   UNL d   1      49.917  34.856  53.648  0.00  0.00     0.002 A 
ATOM     17  C   UNL d   1      50.572  34.351  53.598  0.00  0.00     0.027 A 
BRANCH  13  18
ATOM     18  O   UNL d   1      50.624  34.029  51.426  0.00  0.00    -0.326 OA
ATOM     19  C   UNL d   1      50.233  34.281  50.719  0.00  0.00     0.181 C 
ENDBRANCH  13  18
ENDBRANCH  11  12
ENDBRANCH  10  11
ENDBRANCH   1  10
BRANCH   3  20
ATOM     20  C   UNL d   1      53.694  33.146  53.897  0.00  0.00     0.082 C 
BRANCH  20  21
ATOM     21  C   UNL d   1      53.976  33.151  54.673  0.00  0.00     0.019 C 
ATOM     22  C   UNL d   1      54.494  33.722  54.962  0.00  0.00     0.002 C 
ENDBRANCH  20  21
ENDBRANCH   3  20
TORSDOF 6
ENDMDL
MODEL 6
REMARK VINA RESULT:      -4.9      2.546      4.909
REMARK  6 active torsions:
REMARK  status: ('A' for Active; 'I' for Inactive)
REMARK    1  A    between atoms: C_6  and  C_1 
REMARK    2  A    between atoms: C_10  and  N_3 
REMARK    3  A    between atoms: O_7  and  C_6 
REMARK    4  A    between atoms: C_8  and  O_7 
REMARK    5  A    between atoms: O_11  and  C_9 
REMARK    6  A    between atoms: C_17  and  C_10 
ROOT
ATOM      1  C   UNL d   1      53.535  31.744  53.594  0.00  0.00     0.173 A 
ATOM      2  N   UNL d   1      53.843  31.089  54.011  0.00  0.00    -0.225 NA
ATOM      3  N   UNL d   1      52.908  31.448  53.143  0.00  0.00    -0.287 N 
ATOM      4  C   UNL d   1      52.826  30.647  53.269  0.00  0.00     0.083 A 
ATOM      5  C   UNL d   1      53.417  30.420  53.818  0.00  0.00     0.099 A 
ATOM      6  C   UNL d   1      52.298  30.073  52.969  0.00  0.00     0.019 A 
ATOM      7  C   UNL d   1      53.453  29.628  54.041  0.00  0.00     0.021 A 
ATOM      8  C   UNL d   1      52.364  29.307  53.211  0.00  0.00     0.002 A 
ATOM      9  C   UNL d   1      52.955  29.079  53.760  0.00  0.00     0.002 A 
ENDROOT
BRANCH   1  10
ATOM     10  C   UNL d   1      53.946  32.419  53.772  0.00  0.00     0.160 C 
BRANCH  10  11
ATOM     11  O   UNL d   1      53.796  32.835  54.487  0.00  0.00    -0.300 OA
BRANCH  11  12
ATOM     12  C   UNL d   1      54.313  33.438  54.755  0.00  0.00     0.122 A 
ATOM     13  C   UNL d   1      54.003  34.161  55.009  0.00  0.00     0.117 A 
ATOM     14  C   UNL d   1      54.500  34.773  55.279  0.00  0.00     0.026 A 
ATOM     15  C   UNL d   1      55.308  34.631  55.283  0.00  0.00     0.002 A 
ATOM     16  C   UNL d   1      55.621  33.906  55.028  0.00  0.00     0.002 A 
ATOM     17  C   UNL d   1      55.126  33.298  54.760  0.00  0.00     0.027 A 
BRANCH  13  18
ATOM     18  O   UNL d   1      53.176  34.281  54.995  0.00  0.00    -0.326 OA
ATOM     19  C   UNL d   1      52.852  35.063  55.006  0.00  0.00     0.181 C 
ENDBRANCH  13  18
ENDBRANCH  11  12
ENDBRANCH  10  11
ENDBRANCH   1  10
BRANCH   3  20
ATOM     20  C   UNL d   1      52.544  32.007  52.703  0.00  0.00     0.082 C 
BRANCH  20  21
ATOM     21  C   UNL d   1      51.756  32.221  52.824  0.00  0.00     0.019 C 
ATOM     22  C   UNL d   1      51.400  32.865  52.454  0.00  0.00     0.002 C 
ENDBRANCH  20  21
ENDBRANCH   3  20
TORSDOF 6
ENDMDL
