MODEL 1
REMARK VINA RESULT:      -9.1      0.000      0.000
REMARK  5 active torsions:
REMARK  status: ('A' for Active; 'I' for Inactive)
REMARK    1  A    between atoms: C_2  and  C_1 
REMARK    2  A    between atoms: S_3  and  C_4 
REMARK    3  A    between atoms: C_7  and  S_3 
REMARK    4  A    between atoms: C_5  and  C_7 
REMARK    5  A    between atoms: C_6  and  C_5 
ROOT
ATOM      1  S   UNL d   1      52.578  32.941  53.115  0.00  0.00    -0.083 SA
ENDROOT
BRANCH   1   2
ATOM      2  C   UNL d   1      52.724  33.660  53.533  0.00  0.00     0.035 A 
ATOM      3  C   UNL d   1      52.285  34.344  53.392  0.00  0.00     0.070 A 
ATOM      4  C   UNL d   1      52.441  35.024  53.803  0.00  0.00     0.007 A 
ATOM      5  C   UNL d   1      53.037  35.050  54.368  0.00  0.00     0.000 A 
ATOM      6  C   UNL d   1      53.491  34.359  54.520  0.00  0.00     0.001 A 
ATOM      7  C   UNL d   1      53.312  33.672  54.084  0.00  0.00     0.007 A 
BRANCH   3   8
ATOM      8  C   UNL d   1      51.687  34.334  52.832  0.00  0.00     0.211 C 
ATOM      9  O   UNL d   1      50.904  34.159  53.080  0.00  0.00    -0.644 OA
ATOM     10  O   UNL d   1      51.850  34.492  52.036  0.00  0.00    -0.644 OA
ENDBRANCH   3   8
ENDBRANCH   1   2
BRANCH   1  11
ATOM     11  C   UNL d   1      52.948  32.271  53.367  0.00  0.00     0.077 C 
BRANCH  11  12
ATOM     12  C   UNL d   1      52.870  31.562  52.935  0.00  0.00     0.202 C 
ATOM     13  O   UNL d   1      52.640  31.594  52.148  0.00  0.00    -0.286 OA
BRANCH  12  14
ATOM     14  C   UNL d   1      53.031  30.860  53.328  0.00  0.00     0.040 A 
ATOM     15  C   UNL d   1      52.453  30.254  53.289  0.00  0.00     0.003 A 
ATOM     16  C   UNL d   1      52.599  29.542  53.678  0.00  0.00     0.000 A 
ATOM     17  C   UNL d   1      53.276  29.442  54.080  0.00  0.00     0.000 A 
ATOM     18  C   UNL d   1      53.852  30.048  54.118  0.00  0.00     0.000 A 
ATOM     19  C   UNL d   1      53.429  28.711  54.481  0.00  0.00     0.000 C 
ATOM     20  C   UNL d   1      53.695  30.766  53.720  0.00  0.00     0.003 A 
ENDBRANCH  12  14
ENDBRANCH  11  12
ENDBRANCH   1  11
TORSDOF 5
ENDMDL
MODEL 2
REMARK VINA RESULT:      -9.1      1.573      4.262
REMARK  5 active torsions:
REMARK  status: ('A' for Active; 'I' for Inactive)
REMARK    1  A    between atoms: C_2  and  C_1 
REMARK    2  A    between atoms: S_3  and  C_4 
REMARK    3  A    between atoms: C_7  and  S_3 
REMARK    4  A    between atoms: C_5  and  C_7 
REMARK    5  A    between atoms: C_6  and  C_5 
ROOT
ATOM      1  S   UNL d   1      52.884  32.993  53.303  0.00  0.00    -0.083 SA
ENDROOT
BRANCH   1   2
ATOM      2  C   UNL d   1      53.080  32.173  53.349  0.00  0.00     0.035 A 
ATOM      3  C   UNL d   1      53.711  31.900  53.807  0.00  0.00     0.070 A 
ATOM      4  C   UNL d   1      53.882  31.108  53.839  0.00  0.00     0.007 A 
ATOM      5  C   UNL d   1      53.436  30.562  53.419  0.00  0.00     0.000 A 
ATOM      6  C   UNL d   1      52.791  30.829  52.950  0.00  0.00     0.001 A 
ATOM      7  C   UNL d   1      52.635  31.646  52.933  0.00  0.00     0.007 A 
BRANCH   3   8
ATOM      8  C   UNL d   1      54.165  32.434  54.231  0.00  0.00     0.211 C 
ATOM      9  O   UNL d   1      53.961  32.590  55.031  0.00  0.00    -0.644 OA
ATOM     10  O   UNL d   1      54.812  32.812  53.880  0.00  0.00    -0.644 OA
ENDBRANCH   3   8
ENDBRANCH   1   2
BRANCH   1  11
ATOM     11  C   UNL d   1      52.195  33.201  52.941  0.00  0.00     0.077 C 
BRANCH  11  12
ATOM     12  C   UNL d   1      51.997  34.005  52.849  0.00  0.00     0.202 C 
ATOM     13  O   UNL d   1      52.560  34.579  53.009  0.00  0.00    -0.286 OA
BRANCH  12  14
ATOM     14  C   UNL d   1      51.234  34.181  52.599  0.00  0.00     0.040 A 
ATOM     15  C   UNL d   1      51.086  34.170  51.774  0.00  0.00     0.003 A 
ATOM     16  C   UNL d   1      50.326  34.344  51.507  0.00  0.00     0.000 A 
ATOM     17  C   UNL d   1      49.752  34.517  52.028  0.00  0.00     0.000 A 
ATOM     18  C   UNL d   1      49.903  34.527  52.851  0.00  0.00     0.000 A 
ATOM     19  C   UNL d   1      48.970  34.697  51.756  0.00  0.00     0.000 C 
ATOM     20  C   UNL d   1      50.677  34.349  53.113  0.00  0.00     0.003 A 
ENDBRANCH  12  14
ENDBRANCH  11  12
ENDBRANCH   1  11
TORSDOF 5
ENDMDL
