MODEL 1
REMARK VINA RESULT:      19.8      0.000      0.000
REMARK  5 active torsions:
REMARK  status: ('A' for Active; 'I' for Inactive)
REMARK    1  A    between atoms: C_5  and  C_1 
REMARK    2  A    between atoms: N_15  and  C_4 
REMARK       I    between atoms: N_9  and  C_5 
REMARK    3  A    between atoms: C_7  and  N_9 
REMARK    4  A    between atoms: C_18  and  N_15 
REMARK    5  A    between atoms: C_16  and  C_18 
ROOT
ATOM      1  C   UNL d   1      14.591  12.984  -1.248  0.00  0.00     0.128 A 
ATOM      2  N   UNL d   1      15.333  13.766  -0.014  0.00  0.00    -0.200 NA
ATOM      3  C   UNL d   1      14.780  12.579  -0.559  0.00  0.00     0.196 A 
ATOM      4  C   UNL d   1      15.143  14.170  -0.703  0.00  0.00     0.196 A 
ATOM      5  S   UNL d   1      14.778  13.786  -1.311  0.00  0.00    -0.041 SA
ATOM      6  N   UNL d   1      14.598  11.781  -0.488  0.00  0.00    -0.126 N 
ENDROOT
BRANCH   1   7
ATOM      7  C   UNL d   1      14.216  12.582  -1.867  0.00  0.00     0.290 C 
ATOM      8  N   UNL d   1      14.024  12.994  -2.569  0.00  0.00    -0.186 NA
ATOM      9  O   UNL d   1      14.028  11.779  -1.801  0.00  0.00    -0.264 OA
BRANCH   8  10
ATOM     10  C   UNL d   1      13.648  12.597  -3.195  0.00  0.00     0.194 A 
ATOM     11  N   UNL d   1      13.005  12.074  -3.259  0.00  0.00    -0.107 NA
ATOM     12  O   UNL d   1      12.777  11.779  -3.989  0.00  0.00    -0.210 OA
ATOM     13  C   UNL d   1      13.201  12.009  -4.684  0.00  0.00     0.128 A 
ATOM     14  C   UNL d   1      13.839  12.529  -4.619  0.00  0.00     0.068 A 
ATOM     15  C   UNL d   1      13.141  11.835  -5.505  0.00  0.00     0.029 C 
ENDBRANCH   8  10
ENDBRANCH   1   7
BRANCH   4  16
ATOM     16  N   UNL d   1      15.328  14.967  -0.768  0.00  0.00    -0.220 NA
BRANCH  16  17
ATOM     17  C   UNL d   1      15.662  15.362  -0.125  0.00  0.00     0.101 C 
BRANCH  17  18
ATOM     18  C   UNL d   1      15.824  16.161  -0.177  0.00  0.00     0.021 C 
ATOM     19  C   UNL d   1      15.440  16.622  -0.744  0.00  0.00     0.002 C 
ENDBRANCH  17  18
ENDBRANCH  16  17
ENDBRANCH   4  16
TORSDOF 5
ENDMDL
MODEL 2
REMARK VINA RESULT:      22.8      1.465      4.528
REMARK  5 active torsions:
REMARK  status: ('A' for Active; 'I' for Inactive)
REMARK    1  A    between atoms: C_5  and  C_1 
REMARK    2  A    between atoms: N_15  and  C_4 
REMARK       I    between atoms: N_9  and  C_5 
REMARK    3  A    between atoms: C_7  and  N_9 
REMARK    4  A    between atoms: C_18  and  N_15 
REMARK    5  A    between atoms: C_16  and  C_18 
ROOT
ATOM      1  C   UNL d   1      14.325  13.084  -1.394  0.00  0.00     0.128 A 
ATOM      2  N   UNL d   1      13.730  11.779  -2.187  0.00  0.00    -0.200 NA
ATOM      3  C   UNL d   1      14.342  12.344  -1.039  0.00  0.00     0.196 A 
ATOM      4  C   UNL d   1      13.713  12.519  -2.542  0.00  0.00     0.196 A 
ATOM      5  S   UNL d   1      14.006  13.162  -2.152  0.00  0.00    -0.041 SA
ATOM      6  N   UNL d   1      14.658  12.257  -0.285  0.00  0.00    -0.126 N 
ENDROOT
BRANCH   1   7
ATOM      7  C   UNL d   1      14.628  13.738  -0.988  0.00  0.00     0.290 C 
ATOM      8  N   UNL d   1      14.711  14.468  -1.386  0.00  0.00    -0.186 NA
ATOM      9  O   UNL d   1      14.850  13.680  -0.193  0.00  0.00    -0.264 OA
BRANCH   8  10
ATOM     10  C   UNL d   1      15.014  15.130  -0.984  0.00  0.00     0.194 A 
ATOM     11  N   UNL d   1      15.353  15.260  -0.237  0.00  0.00    -0.107 NA
ATOM     12  O   UNL d   1      15.599  16.010  -0.015  0.00  0.00    -0.210 OA
ATOM     13  C   UNL d   1      15.507  16.657  -0.551  0.00  0.00     0.128 A 
ATOM     14  C   UNL d   1      15.170  16.526  -1.293  0.00  0.00     0.068 A 
ATOM     15  C   UNL d   1      15.683  17.479  -0.531  0.00  0.00     0.029 C 
ENDBRANCH   8  10
ENDBRANCH   1   7
BRANCH   4  16
ATOM     16  N   UNL d   1      13.396  12.600  -3.295  0.00  0.00    -0.220 NA
BRANCH  16  17
ATOM     17  C   UNL d   1      13.386  11.951  -3.804  0.00  0.00     0.101 C 
BRANCH  17  18
ATOM     18  C   UNL d   1      12.907  11.960  -4.466  0.00  0.00     0.021 C 
ATOM     19  C   UNL d   1      13.225  11.783  -5.206  0.00  0.00     0.002 C 
ENDBRANCH  17  18
ENDBRANCH  16  17
ENDBRANCH   4  16
TORSDOF 5
ENDMDL
