MODEL 1
REMARK VINA RESULT:      -9.0      0.000      0.000
REMARK  6 active torsions:
REMARK  status: ('A' for Active; 'I' for Inactive)
REMARK    1  A    between atoms: C_2  and  C_1 
REMARK    2  A    between atoms: N_13  and  C_8 
REMARK    3  A    between atoms: C_12  and  C_20 
REMARK    4  A    between atoms: C_20  and  N_13 
REMARK    5  A    between atoms: O_21  and  C_16 
REMARK    6  A    between atoms: C_25  and  O_21 
ROOT
ATOM      1  C   UNL d   1      51.689  33.828  52.888  0.00  0.00     0.089 A 
ATOM      2  C   UNL d   1      52.176  34.354  53.294  0.00  0.00     0.302 A 
ATOM      3  O   UNL d   1      52.881  34.084  53.645  0.00  0.00    -0.271 OA
ATOM      4  C   UNL d   1      51.904  33.028  52.832  0.00  0.00     0.009 A 
ATOM      5  C   UNL d   1      53.088  33.288  53.584  0.00  0.00     0.126 A 
ATOM      6  C   UNL d   1      52.601  32.761  53.179  0.00  0.00     0.025 A 
ATOM      7  O   UNL d   1      51.972  35.165  53.359  0.00  0.00    -0.259 OA
ATOM      8  C   UNL d   1      53.788  33.024  53.933  0.00  0.00     0.123 A 
ATOM      9  C   UNL d   1      52.811  31.968  53.121  0.00  0.00     0.002 A 
ATOM     10  C   UNL d   1      53.518  31.699  53.473  0.00  0.00     0.002 A 
ATOM     11  C   UNL d   1      54.000  32.220  53.874  0.00  0.00     0.027 A 
ENDROOT
BRANCH   1  12
ATOM     12  C   UNL d   1      50.992  34.095  52.542  0.00  0.00     0.140 A 
ATOM     13  S   UNL d   1      50.284  34.333  52.916  0.00  0.00    -0.026 SA
ATOM     14  C   UNL d   1      49.747  34.554  52.331  0.00  0.00     0.216 A 
ATOM     15  N   UNL d   1      50.126  34.452  51.597  0.00  0.00    -0.121 NA
ATOM     16  N   UNL d   1      50.892  34.169  51.728  0.00  0.00    -0.139 NA
BRANCH  14  17
ATOM     17  N   UNL d   1      48.977  34.826  52.443  0.00  0.00    -0.216 NA
BRANCH  17  18
ATOM     18  C   UNL d   1      48.586  35.222  51.828  0.00  0.00     0.126 C 
BRANCH  18  19
ATOM     19  C   UNL d   1      47.866  35.600  51.969  0.00  0.00     0.119 A 
ATOM     20  O   UNL d   1      47.605  36.091  52.575  0.00  0.00    -0.304 OA
ATOM     21  C   UNL d   1      46.827  36.302  52.420  0.00  0.00     0.123 A 
ATOM     22  C   UNL d   1      46.599  35.946  51.721  0.00  0.00     0.029 A 
ATOM     23  C   UNL d   1      47.241  35.506  51.434  0.00  0.00     0.028 A 
ENDBRANCH  18  19
ENDBRANCH  17  18
ENDBRANCH  14  17
ENDBRANCH   1  12
BRANCH   8  24
ATOM     24  O   UNL d   1      54.271  33.557  54.337  0.00  0.00    -0.303 OA
BRANCH  24  25
ATOM     25  C   UNL d   1      54.812  33.270  54.899  0.00  0.00     0.123 C 
ATOM     26  C   UNL d   1      55.272  33.804  55.327  0.00  0.00     0.029 C 
ENDBRANCH  24  25
ENDBRANCH   8  24
TORSDOF 6
ENDMDL
MODEL 2
REMARK VINA RESULT:      -7.6      1.178      6.039
REMARK  6 active torsions:
REMARK  status: ('A' for Active; 'I' for Inactive)
REMARK    1  A    between atoms: C_2  and  C_1 
REMARK    2  A    between atoms: N_13  and  C_8 
REMARK    3  A    between atoms: C_12  and  C_20 
REMARK    4  A    between atoms: C_20  and  N_13 
REMARK    5  A    between atoms: O_21  and  C_16 
REMARK    6  A    between atoms: C_25  and  O_21 
ROOT
ATOM      1  C   UNL d   1      49.582  34.774  52.429  0.00  0.00     0.089 A 
ATOM      2  C   UNL d   1      49.136  34.628  51.752  0.00  0.00     0.302 A 
ATOM      3  O   UNL d   1      48.380  34.967  51.669  0.00  0.00    -0.271 OA
ATOM      4  C   UNL d   1      49.274  35.260  53.027  0.00  0.00     0.009 A 
ATOM      5  C   UNL d   1      48.082  35.449  52.269  0.00  0.00     0.126 A 
ATOM      6  C   UNL d   1      48.528  35.595  52.947  0.00  0.00     0.025 A 
ATOM      7  O   UNL d   1      49.434  34.139  51.138  0.00  0.00    -0.259 OA
ATOM      8  C   UNL d   1      47.332  35.783  52.184  0.00  0.00     0.123 A 
ATOM      9  C   UNL d   1      48.226  36.076  53.542  0.00  0.00     0.002 A 
ATOM     10  C   UNL d   1      47.468  36.415  53.458  0.00  0.00     0.002 A 
ATOM     11  C   UNL d   1      47.027  36.270  52.787  0.00  0.00     0.027 A 
ENDROOT
BRANCH   1  12
ATOM     12  C   UNL d   1      50.329  34.439  52.510  0.00  0.00     0.140 A 
ATOM     13  S   UNL d   1      50.645  34.026  53.164  0.00  0.00    -0.026 SA
ATOM     14  C   UNL d   1      51.415  33.799  52.975  0.00  0.00     0.216 A 
ATOM     15  N   UNL d   1      51.572  34.072  52.206  0.00  0.00    -0.121 NA
ATOM     16  N   UNL d   1      50.903  34.466  51.921  0.00  0.00    -0.139 NA
BRANCH  14  17
ATOM     17  N   UNL d   1      51.938  33.379  53.455  0.00  0.00    -0.216 NA
BRANCH  17  18
ATOM     18  C   UNL d   1      52.654  33.728  53.689  0.00  0.00     0.126 C 
BRANCH  18  19
ATOM     19  C   UNL d   1      53.197  33.299  54.138  0.00  0.00     0.119 A 
ATOM     20  O   UNL d   1      53.384  32.498  54.169  0.00  0.00    -0.304 OA
ATOM     21  C   UNL d   1      53.977  32.393  54.728  0.00  0.00     0.123 A 
ATOM     22  C   UNL d   1      54.162  33.123  55.046  0.00  0.00     0.029 A 
ATOM     23  C   UNL d   1      53.680  33.692  54.684  0.00  0.00     0.028 A 
ENDBRANCH  18  19
ENDBRANCH  17  18
ENDBRANCH  14  17
ENDBRANCH   1  12
BRANCH   8  24
ATOM     24  O   UNL d   1      46.891  35.633  51.503  0.00  0.00    -0.303 OA
BRANCH  24  25
ATOM     25  C   UNL d   1      46.097  35.876  51.471  0.00  0.00     0.123 C 
ATOM     26  C   UNL d   1      45.646  35.699  50.803  0.00  0.00     0.029 C 
ENDBRANCH  24  25
ENDBRANCH   8  24
TORSDOF 6
ENDMDL
MODEL 3
REMARK VINA RESULT:      -6.3     10.267     11.148
REMARK  6 active torsions:
REMARK  status: ('A' for Active; 'I' for Inactive)
REMARK    1  A    between atoms: C_2  and  C_1 
REMARK    2  A    between atoms: N_13  and  C_8 
REMARK    3  A    between atoms: C_12  and  C_20 
REMARK    4  A    between atoms: C_20  and  N_13 
REMARK    5  A    between atoms: O_21  and  C_16 
REMARK    6  A    between atoms: C_25  and  O_21 
ROOT
ATOM      1  C   UNL d   1      45.090  28.136  57.658  0.00  0.00     0.089 A 
ATOM      2  C   UNL d   1      45.176  28.108  58.477  0.00  0.00     0.302 A 
ATOM      3  O   UNL d   1      45.130  28.809  58.925  0.00  0.00    -0.271 OA
ATOM      4  C   UNL d   1      44.957  28.864  57.283  0.00  0.00     0.009 A 
ATOM      5  C   UNL d   1      44.998  29.529  58.544  0.00  0.00     0.126 A 
ATOM      6  C   UNL d   1      44.911  29.556  57.725  0.00  0.00     0.025 A 
ATOM      7  O   UNL d   1      45.310  27.380  58.871  0.00  0.00    -0.259 OA
ATOM      8  C   UNL d   1      44.953  30.221  58.991  0.00  0.00     0.123 A 
ATOM      9  C   UNL d   1      44.780  30.277  57.349  0.00  0.00     0.002 A 
ATOM     10  C   UNL d   1      44.734  30.977  57.799  0.00  0.00     0.002 A 
ATOM     11  C   UNL d   1      44.819  30.950  58.610  0.00  0.00     0.027 A 
ENDROOT
BRANCH   1  12
ATOM     12  C   UNL d   1      45.135  27.444  57.217  0.00  0.00     0.140 A 
ATOM     13  S   UNL d   1      44.664  26.757  57.278  0.00  0.00    -0.026 SA
ATOM     14  C   UNL d   1      44.926  26.216  56.714  0.00  0.00     0.216 A 
ATOM     15  N   UNL d   1      45.558  26.571  56.305  0.00  0.00    -0.121 NA
ATOM     16  N   UNL d   1      45.686  27.326  56.616  0.00  0.00    -0.139 NA
BRANCH  14  17
ATOM     17  N   UNL d   1      44.624  25.461  56.573  0.00  0.00    -0.216 NA
BRANCH  17  18
ATOM     18  C   UNL d   1      45.084  24.900  56.171  0.00  0.00     0.126 C 
BRANCH  18  19
ATOM     19  C   UNL d   1      44.815  24.125  56.089  0.00  0.00     0.119 A 
ATOM     20  O   UNL d   1      44.472  23.596  56.617  0.00  0.00    -0.304 OA
ATOM     21  C   UNL d   1      44.317  22.895  56.218  0.00  0.00     0.123 A 
ATOM     22  C   UNL d   1      44.561  22.982  55.443  0.00  0.00     0.029 A 
ATOM     23  C   UNL d   1      44.872  23.746  55.355  0.00  0.00     0.028 A 
ENDBRANCH  18  19
ENDBRANCH  17  18
ENDBRANCH  14  17
ENDBRANCH   1  12
BRANCH   8  24
ATOM     24  O   UNL d   1      45.040  30.186  59.811  0.00  0.00    -0.303 OA
BRANCH  24  25
ATOM     25  C   UNL d   1      44.763  30.816  60.276  0.00  0.00     0.123 C 
ATOM     26  C   UNL d   1      44.801  30.760  61.099  0.00  0.00     0.029 C 
ENDBRANCH  24  25
ENDBRANCH   8  24
TORSDOF 6
ENDMDL
