MODEL 1
REMARK VINA RESULT:      37.7      0.000      0.000
REMARK  2 active torsions:
REMARK  status: ('A' for Active; 'I' for Inactive)
REMARK    1  A    between atoms: C_10  and  N_3 
REMARK    2  A    between atoms: C_11  and  C_4 
ROOT
ATOM      1  C   UNL d   1     -51.001  24.758  33.545  0.00  0.00     0.152 A 
ATOM      2  C   UNL d   1     -50.609  25.473  33.473  0.00  0.00     0.065 A 
ATOM      3  N   UNL d   1     -51.809  24.915  33.630  0.00  0.00    -0.290 N 
ATOM      4  C   UNL d   1     -51.171  26.079  33.511  0.00  0.00     0.023 A 
ATOM      5  C   UNL d   1     -51.907  25.732  33.608  0.00  0.00     0.082 A 
ATOM      6  N   UNL d   1     -50.581  24.048  33.527  0.00  0.00    -0.206 NA
ATOM      7  C   UNL d   1     -49.790  25.492  33.380  0.00  0.00     0.143 A 
ATOM      8  N   UNL d   1     -49.368  24.782  33.361  0.00  0.00    -0.212 NA
ATOM      9  C   UNL d   1     -49.760  24.066  33.434  0.00  0.00     0.201 A 
ATOM     10 CL   UNL d   1     -49.398  26.207  33.307  0.00  0.00    -0.061 Cl
ENDROOT
BRANCH   3  11
ATOM     11  C   UNL d   1     -52.427  24.391  33.720  0.00  0.00     0.065 A 
ATOM     12  C   UNL d   1     -52.350  23.745  34.227  0.00  0.00     0.018 A 
ATOM     13  C   UNL d   1     -52.975  23.214  34.319  0.00  0.00     0.002 A 
ATOM     14  C   UNL d   1     -53.688  23.329  33.900  0.00  0.00     0.000 A 
ATOM     15  C   UNL d   1     -53.756  23.979  33.395  0.00  0.00     0.002 A 
ATOM     16  C   UNL d   1     -53.129  24.507  33.306  0.00  0.00     0.018 A 
ENDBRANCH   3  11
BRANCH   4  17
ATOM     17  C   UNL d   1     -50.895  26.855  33.449  0.00  0.00     0.002 A 
ATOM     18  C   UNL d   1     -50.083  27.003  33.400  0.00  0.00     0.000 A 
ATOM     19  C   UNL d   1     -49.807  27.779  33.338  0.00  0.00     0.000 A 
ATOM     20  C   UNL d   1     -50.342  28.404  33.325  0.00  0.00     0.000 A 
ATOM     21  C   UNL d   1     -51.154  28.255  33.374  0.00  0.00     0.000 A 
ATOM     22  C   UNL d   1     -51.429  27.484  33.436  0.00  0.00     0.000 A 
ENDBRANCH   4  17
TORSDOF 2
ENDMDL
