MODEL 1
REMARK VINA RESULT:      -3.1      0.000      0.000
REMARK  4 active torsions:
REMARK  status: ('A' for Active; 'I' for Inactive)
REMARK    1  A    between atoms: C_7  and  C_2 
REMARK    2  A    between atoms: O_8  and  C_7 
REMARK    3  A    between atoms: C_9  and  O_8 
REMARK    4  A    between atoms: O_11  and  C_10 
ROOT
ATOM      1  C   UNL d   1      32.867  19.943 -22.573  0.00  0.00     0.161 C 
ENDROOT
BRANCH   1   2
ATOM      2  C   UNL d   1      32.929  19.146 -22.764  0.00  0.00     0.188 A 
ATOM      3  N   UNL d   1      32.560  18.975 -23.498  0.00  0.00    -0.224 NA
ATOM      4  C   UNL d   1      32.652  18.161 -23.640  0.00  0.00     0.101 A 
ATOM      5  C   UNL d   1      33.070  17.830 -23.007  0.00  0.00     0.101 A 
ATOM      6  C   UNL d   1      32.403  17.693 -24.269  0.00  0.00     0.021 A 
ATOM      7  C   UNL d   1      33.237  17.018 -23.013  0.00  0.00     0.021 A 
ATOM      8  N   UNL d   1      33.241  18.435 -22.467  0.00  0.00    -0.224 NA
ATOM      9  C   UNL d   1      32.989  16.550 -23.641  0.00  0.00     0.002 A 
ATOM     10  C   UNL d   1      32.571  16.889 -24.271  0.00  0.00     0.002 A 
ENDBRANCH   1   2
BRANCH   1  11
ATOM     11  O   UNL d   1      33.060  20.203 -21.825  0.00  0.00    -0.302 OA
BRANCH  11  12
ATOM     12  C   UNL d   1      32.852  20.964 -21.581  0.00  0.00     0.102 A 
ATOM     13  C   UNL d   1      33.152  21.614 -21.984  0.00  0.00     0.049 A 
ATOM     14  C   UNL d   1      32.944  22.376 -21.739  0.00  0.00     0.096 A 
ATOM     15  C   UNL d   1      32.439  22.476 -21.094  0.00  0.00     0.024 A 
ATOM     16  C   UNL d   1      32.140  21.815 -20.692  0.00  0.00     0.004 A 
ATOM     17  C   UNL d   1      32.354  21.062 -20.946  0.00  0.00     0.025 A 
BRANCH  14  18
ATOM     18  O   UNL d   1      33.241  23.032 -22.139  0.00  0.00    -0.328 OA
ATOM     19  C   UNL d   1      32.717  23.584 -22.465  0.00  0.00     0.181 C 
ENDBRANCH  14  18
ENDBRANCH  11  12
ENDBRANCH   1  11
TORSDOF 4
ENDMDL
MODEL 2
REMARK VINA RESULT:      -2.9      1.271      1.897
REMARK  4 active torsions:
REMARK  status: ('A' for Active; 'I' for Inactive)
REMARK    1  A    between atoms: C_7  and  C_2 
REMARK    2  A    between atoms: O_8  and  C_7 
REMARK    3  A    between atoms: C_9  and  O_8 
REMARK    4  A    between atoms: O_11  and  C_10 
ROOT
ATOM      1  C   UNL d   1      32.951  20.798 -21.645  0.00  0.00     0.161 C 
ENDROOT
BRANCH   1   2
ATOM      2  C   UNL d   1      33.024  20.261 -22.263  0.00  0.00     0.188 A 
ATOM      3  N   UNL d   1      32.983  19.468 -21.990  0.00  0.00    -0.224 NA
ATOM      4  C   UNL d   1      33.062  18.971 -22.651  0.00  0.00     0.101 A 
ATOM      5  C   UNL d   1      33.151  19.444 -23.325  0.00  0.00     0.101 A 
ATOM      6  C   UNL d   1      33.062  18.151 -22.711  0.00  0.00     0.021 A 
ATOM      7  C   UNL d   1      33.241  19.080 -24.065  0.00  0.00     0.021 A 
ATOM      8  N   UNL d   1      33.128  20.237 -23.088  0.00  0.00    -0.224 NA
ATOM      9  C   UNL d   1      33.241  18.261 -24.125  0.00  0.00     0.002 A 
ATOM     10  C   UNL d   1      33.152  17.795 -23.446  0.00  0.00     0.002 A 
ENDBRANCH   1   2
BRANCH   1  11
ATOM     11  O   UNL d   1      33.196  21.570 -21.741  0.00  0.00    -0.302 OA
BRANCH  11  12
ATOM     12  C   UNL d   1      32.951  22.154 -21.211  0.00  0.00     0.102 A 
ATOM     13  C   UNL d   1      33.220  22.135 -20.436  0.00  0.00     0.049 A 
ATOM     14  C   UNL d   1      32.974  22.720 -19.906  0.00  0.00     0.096 A 
ATOM     15  C   UNL d   1      32.462  23.316 -20.161  0.00  0.00     0.024 A 
ATOM     16  C   UNL d   1      32.195  23.327 -20.946  0.00  0.00     0.004 A 
ATOM     17  C   UNL d   1      32.447  22.740 -21.463  0.00  0.00     0.025 A 
BRANCH  14  18
ATOM     18  O   UNL d   1      33.240  22.709 -19.126  0.00  0.00    -0.328 OA
ATOM     19  C   UNL d   1      32.984  23.293 -18.598  0.00  0.00     0.181 C 
ENDBRANCH  14  18
ENDBRANCH  11  12
ENDBRANCH   1  11
TORSDOF 4
ENDMDL
MODEL 3
REMARK VINA RESULT:      -2.3      3.341      5.518
REMARK  4 active torsions:
REMARK  status: ('A' for Active; 'I' for Inactive)
REMARK    1  A    between atoms: C_7  and  C_2 
REMARK    2  A    between atoms: O_8  and  C_7 
REMARK    3  A    between atoms: C_9  and  O_8 
REMARK    4  A    between atoms: O_11  and  C_10 
ROOT
ATOM      1  C   UNL d   1      32.946  22.485 -20.138  0.00  0.00     0.161 C 
ENDROOT
BRANCH   1   2
ATOM      2  C   UNL d   1      32.840  22.757 -19.370  0.00  0.00     0.188 A 
ATOM      3  N   UNL d   1      33.173  22.232 -18.807  0.00  0.00    -0.224 NA
ATOM      4  C   UNL d   1      33.038  22.554 -18.053  0.00  0.00     0.101 A 
ATOM      5  C   UNL d   1      32.627  23.267 -18.143  0.00  0.00     0.101 A 
ATOM      6  C   UNL d   1      33.241  22.278 -17.306  0.00  0.00     0.021 A 
ATOM      7  C   UNL d   1      32.422  23.702 -17.468  0.00  0.00     0.021 A 
ATOM      8  N   UNL d   1      32.505  23.393 -18.952  0.00  0.00    -0.224 NA
ATOM      9  C   UNL d   1      32.625  23.428 -16.721  0.00  0.00     0.002 A 
ATOM     10  C   UNL d   1      33.036  22.713 -16.640  0.00  0.00     0.002 A 
ENDBRANCH   1   2
BRANCH   1  11
ATOM     11  O   UNL d   1      32.868  22.995 -20.770  0.00  0.00    -0.302 OA
BRANCH  11  12
ATOM     12  C   UNL d   1      32.913  22.711 -21.544  0.00  0.00     0.102 A 
ATOM     13  C   UNL d   1      32.675  23.192 -22.165  0.00  0.00     0.049 A 
ATOM     14  C   UNL d   1      32.720  22.907 -22.940  0.00  0.00     0.096 A 
ATOM     15  C   UNL d   1      33.003  22.144 -23.081  0.00  0.00     0.024 A 
ATOM     16  C   UNL d   1      33.241  21.664 -22.447  0.00  0.00     0.004 A 
ATOM     17  C   UNL d   1      33.191  21.960 -21.681  0.00  0.00     0.025 A 
BRANCH  14  18
ATOM     18  O   UNL d   1      32.484  23.384 -23.569  0.00  0.00    -0.328 OA
ATOM     19  C   UNL d   1      33.035  23.600 -24.148  0.00  0.00     0.181 C 
ENDBRANCH  14  18
ENDBRANCH  11  12
ENDBRANCH   1  11
TORSDOF 4
ENDMDL
MODEL 4
REMARK VINA RESULT:      -1.6      1.622      4.793
REMARK  4 active torsions:
REMARK  status: ('A' for Active; 'I' for Inactive)
REMARK    1  A    between atoms: C_7  and  C_2 
REMARK    2  A    between atoms: O_8  and  C_7 
REMARK    3  A    between atoms: C_9  and  O_8 
REMARK    4  A    between atoms: O_11  and  C_10 
ROOT
ATOM      1  C   UNL d   1      32.919  18.629 -23.126  0.00  0.00     0.161 C 
ENDROOT
BRANCH   1   2
ATOM      2  C   UNL d   1      32.993  19.159 -22.501  0.00  0.00     0.188 A 
ATOM      3  N   UNL d   1      32.881  19.951 -22.754  0.00  0.00    -0.224 NA
ATOM      4  C   UNL d   1      32.966  20.441 -22.087  0.00  0.00     0.101 A 
ATOM      5  C   UNL d   1      33.128  19.963 -21.431  0.00  0.00     0.101 A 
ATOM      6  C   UNL d   1      32.914  21.257 -22.009  0.00  0.00     0.021 A 
ATOM      7  C   UNL d   1      33.237  20.319 -20.690  0.00  0.00     0.021 A 
ATOM      8  N   UNL d   1      33.144  19.174 -21.684  0.00  0.00    -0.224 NA
ATOM      9  C   UNL d   1      33.186  21.134 -20.611  0.00  0.00     0.002 A 
ATOM     10  C   UNL d   1      33.024  21.605 -21.273  0.00  0.00     0.002 A 
ENDBRANCH   1   2
BRANCH   1  11
ATOM     11  O   UNL d   1      33.210  17.870 -23.058  0.00  0.00    -0.302 OA
BRANCH  11  12
ATOM     12  C   UNL d   1      32.810  17.237 -23.406  0.00  0.00     0.102 A 
ATOM     13  C   UNL d   1      32.269  17.382 -24.006  0.00  0.00     0.049 A 
ATOM     14  C   UNL d   1      31.869  16.748 -24.355  0.00  0.00     0.096 A 
ATOM     15  C   UNL d   1      32.017  15.978 -24.096  0.00  0.00     0.024 A 
ATOM     16  C   UNL d   1      32.565  15.840 -23.488  0.00  0.00     0.004 A 
ATOM     17  C   UNL d   1      32.956  16.479 -23.150  0.00  0.00     0.025 A 
BRANCH  14  18
ATOM     18  O   UNL d   1      31.325  16.885 -24.958  0.00  0.00    -0.328 OA
ATOM     19  C   UNL d   1      30.721  16.337 -25.096  0.00  0.00     0.181 C 
ENDBRANCH  14  18
ENDBRANCH  11  12
ENDBRANCH   1  11
TORSDOF 4
ENDMDL
MODEL 5
REMARK VINA RESULT:      -0.7      2.296      5.242
REMARK  4 active torsions:
REMARK  status: ('A' for Active; 'I' for Inactive)
REMARK    1  A    between atoms: C_7  and  C_2 
REMARK    2  A    between atoms: O_8  and  C_7 
REMARK    3  A    between atoms: C_9  and  O_8 
REMARK    4  A    between atoms: O_11  and  C_10 
ROOT
ATOM      1  C   UNL d   1      33.237  21.015 -20.501  0.00  0.00     0.161 C 
ENDROOT
BRANCH   1   2
ATOM      2  C   UNL d   1      33.151  21.636 -19.969  0.00  0.00     0.188 A 
ATOM      3  N   UNL d   1      33.231  21.376 -19.175  0.00  0.00    -0.224 NA
ATOM      4  C   UNL d   1      33.136  22.039 -18.683  0.00  0.00     0.101 A 
ATOM      5  C   UNL d   1      32.998  22.701 -19.161  0.00  0.00     0.101 A 
ATOM      6  C   UNL d   1      33.159  22.110 -17.865  0.00  0.00     0.021 A 
ATOM      7  C   UNL d   1      32.884  23.440 -18.803  0.00  0.00     0.021 A 
ATOM      8  N   UNL d   1      33.008  22.454 -19.952  0.00  0.00    -0.224 NA
ATOM      9  C   UNL d   1      32.907  23.512 -17.985  0.00  0.00     0.002 A 
ATOM     10  C   UNL d   1      33.045  22.844 -17.515  0.00  0.00     0.002 A 
ENDBRANCH   1   2
BRANCH   1  11
ATOM     11  O   UNL d   1      32.669  20.879 -21.070  0.00  0.00    -0.302 OA
BRANCH  11  12
ATOM     12  C   UNL d   1      32.854  20.447 -21.749  0.00  0.00     0.102 A 
ATOM     13  C   UNL d   1      32.946  19.633 -21.698  0.00  0.00     0.049 A 
ATOM     14  C   UNL d   1      33.131  19.202 -22.378  0.00  0.00     0.096 A 
ATOM     15  C   UNL d   1      33.220  19.592 -23.100  0.00  0.00     0.024 A 
ATOM     16  C   UNL d   1      33.125  20.415 -23.144  0.00  0.00     0.004 A 
ATOM     17  C   UNL d   1      32.942  20.833 -22.460  0.00  0.00     0.025 A 
BRANCH  14  18
ATOM     18  O   UNL d   1      33.225  18.384 -22.335  0.00  0.00    -0.328 OA
ATOM     19  C   UNL d   1      32.614  17.888 -22.590  0.00  0.00     0.181 C 
ENDBRANCH  14  18
ENDBRANCH  11  12
ENDBRANCH   1  11
TORSDOF 4
ENDMDL
