MODEL 1
REMARK VINA RESULT:      -3.9      0.000      0.000
REMARK  3 active torsions:
REMARK  status: ('A' for Active; 'I' for Inactive)
REMARK    1  A    between atoms: N_7  and  C_4 
REMARK    2  A    between atoms: N_9  and  N_7 
REMARK       I    between atoms: C_8  and  N_9 
REMARK    3  A    between atoms: C_10  and  C_8 
ROOT
ATOM      1  N   UNL d   1      57.783  -1.236  30.255  0.00  0.00    -0.127 NA
ENDROOT
BRANCH   1   2
ATOM      2  C   UNL d   1      58.495  -1.026  29.886  0.00  0.00     0.178 A 
ATOM      3  N   UNL d   1      58.877  -1.559  29.389  0.00  0.00    -0.240 N 
ATOM      4  C   UNL d   1      59.581  -1.351  29.024  0.00  0.00     0.343 A 
ATOM      5  C   UNL d   1      58.548  -2.306  29.256  0.00  0.00     0.105 C 
ATOM      6  N   UNL d   1      59.910  -0.604  29.157  0.00  0.00    -0.224 N 
ATOM      7  O   UNL d   1      59.964  -1.889  28.524  0.00  0.00    -0.245 OA
ATOM      8  C   UNL d   1      59.538  -0.057  29.655  0.00  0.00     0.271 A 
ATOM      9  C   UNL d   1      60.621  -0.395  28.788  0.00  0.00     0.107 C 
ATOM     10  C   UNL d   1      58.824  -0.279  30.019  0.00  0.00     0.101 A 
ATOM     11  O   UNL d   1      59.863   0.682  29.786  0.00  0.00    -0.266 OA
ENDBRANCH   1   2
BRANCH   1  12
ATOM     12  N   UNL d   1      57.495  -0.784  30.883  0.00  0.00    -0.104 NA
ATOM     13  C   UNL d   1      56.946  -1.111  31.405  0.00  0.00     0.297 C 
ATOM     14  O   UNL d   1      56.686  -1.888  31.300  0.00  0.00    -0.264 OA
BRANCH  13  15
ATOM     15  C   UNL d   1      56.659  -0.659  32.033  0.00  0.00     0.059 A 
ATOM     16  C   UNL d   1      56.141  -0.998  32.574  0.00  0.00     0.005 A 
ATOM     17  C   UNL d   1      55.851  -0.554  33.202  0.00  0.00     0.000 A 
ATOM     18  C   UNL d   1      55.331  -0.896  33.746  0.00  0.00     0.000 C 
ATOM     19  C   UNL d   1      56.083   0.243  33.289  0.00  0.00     0.000 A 
ATOM     20  C   UNL d   1      56.602   0.581  32.744  0.00  0.00     0.000 A 
ATOM     21  C   UNL d   1      55.791   0.682  33.916  0.00  0.00     0.000 C 
ATOM     22  C   UNL d   1      56.888   0.122  32.116  0.00  0.00     0.005 A 
ENDBRANCH  13  15
ENDBRANCH   1  12
TORSDOF 3
ENDMDL
MODEL 2
REMARK VINA RESULT:      -2.9      1.780      4.788
REMARK  3 active torsions:
REMARK  status: ('A' for Active; 'I' for Inactive)
REMARK    1  A    between atoms: N_7  and  C_4 
REMARK    2  A    between atoms: N_9  and  N_7 
REMARK       I    between atoms: C_8  and  N_9 
REMARK    3  A    between atoms: C_10  and  C_8 
ROOT
ATOM      1  N   UNL d   1      56.688  -0.852  32.137  0.00  0.00    -0.127 NA
ENDROOT
BRANCH   1   2
ATOM      2  C   UNL d   1      56.493  -0.467  32.845  0.00  0.00     0.178 A 
ATOM      3  N   UNL d   1      55.715  -0.464  33.114  0.00  0.00    -0.240 N 
ATOM      4  C   UNL d   1      55.522  -0.084  33.814  0.00  0.00     0.343 A 
ATOM      5  C   UNL d   1      55.127  -0.846  32.676  0.00  0.00     0.105 C 
ATOM      6  N   UNL d   1      56.110   0.298  34.252  0.00  0.00    -0.224 N 
ATOM      7  O   UNL d   1      54.738  -0.082  34.083  0.00  0.00    -0.245 OA
ATOM      8  C   UNL d   1      56.897   0.304  33.995  0.00  0.00     0.271 A 
ATOM      9  C   UNL d   1      55.915   0.682  34.959  0.00  0.00     0.107 C 
ATOM     10  C   UNL d   1      57.081  -0.085  33.283  0.00  0.00     0.101 A 
ATOM     11  O   UNL d   1      57.479   0.681  34.428  0.00  0.00    -0.266 OA
ENDBRANCH   1   2
BRANCH   1  12
ATOM     12  N   UNL d   1      57.174  -0.477  31.585  0.00  0.00    -0.104 NA
ATOM     13  C   UNL d   1      57.434  -0.891  30.920  0.00  0.00     0.297 C 
ATOM     14  O   UNL d   1      57.208  -1.677  30.807  0.00  0.00    -0.264 OA
BRANCH  13  15
ATOM     15  C   UNL d   1      57.920  -0.516  30.368  0.00  0.00     0.059 A 
ATOM     16  C   UNL d   1      58.416  -0.966  29.891  0.00  0.00     0.005 A 
ATOM     17  C   UNL d   1      58.902  -0.599  29.340  0.00  0.00     0.000 A 
ATOM     18  C   UNL d   1      59.400  -1.053  28.861  0.00  0.00     0.000 C 
ATOM     19  C   UNL d   1      58.892   0.233  29.265  0.00  0.00     0.000 A 
ATOM     20  C   UNL d   1      58.394   0.682  29.745  0.00  0.00     0.000 A 
ATOM     21  C   UNL d   1      59.378   0.593  28.714  0.00  0.00     0.000 C 
ATOM     22  C   UNL d   1      57.908   0.299  30.297  0.00  0.00     0.005 A 
ENDBRANCH  13  15
ENDBRANCH   1  12
TORSDOF 3
ENDMDL
