MODEL 1
REMARK VINA RESULT:      -6.9      0.000      0.000
REMARK  1 active torsions:
REMARK  status: ('A' for Active; 'I' for Inactive)
REMARK    1  A    between atoms: C_2  and  C_1 
ROOT
ATOM      1  C   UNL d   1     -46.945  13.515  22.712  0.00  0.00     0.067 A 
ATOM      2  C   UNL d   1     -48.156  13.194  22.030  0.00  0.00     0.123 A 
ATOM      3  C   UNL d   1     -47.412  12.965  22.310  0.00  0.00     0.033 A 
ATOM      4  C   UNL d   1     -48.428  13.963  22.150  0.00  0.00     0.123 A 
ATOM      5  O   UNL d   1     -48.627  12.642  21.625  0.00  0.00    -0.301 OA
ATOM      6  O   UNL d   1     -49.174  14.187  21.867  0.00  0.00    -0.301 OA
ATOM      7  C   UNL d   1     -47.218  14.285  22.832  0.00  0.00     0.008 A 
ATOM      8  C   UNL d   1     -47.959  14.509  22.551  0.00  0.00     0.027 A 
ATOM      9  C   UNL d   1     -49.373  12.870  21.343  0.00  0.00     0.149 A 
ATOM     10  C   UNL d   1     -49.646  13.640  21.464  0.00  0.00     0.149 A 
ENDROOT
BRANCH   1  11
ATOM     11  C   UNL d   1     -46.202  13.286  22.992  0.00  0.00     0.211 C 
ATOM     12  O   UNL d   1     -45.496  13.448  22.597  0.00  0.00    -0.644 OA
ATOM     13  O   UNL d   1     -46.090  12.872  23.697  0.00  0.00    -0.644 OA
ENDBRANCH   1  11
TORSDOF 1
ENDMDL
MODEL 2
REMARK VINA RESULT:      -6.8      1.477      1.930
REMARK  1 active torsions:
REMARK  status: ('A' for Active; 'I' for Inactive)
REMARK    1  A    between atoms: C_2  and  C_1 
ROOT
ATOM      1  C   UNL d   1     -47.054  12.506  23.317  0.00  0.00     0.067 A 
ATOM      2  C   UNL d   1     -48.432  12.515  22.947  0.00  0.00     0.123 A 
ATOM      3  C   UNL d   1     -47.689  12.878  22.941  0.00  0.00     0.033 A 
ATOM      4  C   UNL d   1     -48.537  11.789  23.324  0.00  0.00     0.123 A 
ATOM      5  O   UNL d   1     -49.072  12.887  22.570  0.00  0.00    -0.301 OA
ATOM      6  O   UNL d   1     -49.284  11.430  23.327  0.00  0.00    -0.301 OA
ATOM      7  C   UNL d   1     -47.160  11.780  23.694  0.00  0.00     0.008 A 
ATOM      8  C   UNL d   1     -47.902  11.421  23.698  0.00  0.00     0.027 A 
ATOM      9  C   UNL d   1     -49.818  12.523  22.575  0.00  0.00     0.149 A 
ATOM     10  C   UNL d   1     -49.923  11.797  22.952  0.00  0.00     0.149 A 
ENDROOT
BRANCH   1  11
ATOM     11  C   UNL d   1     -46.312  12.870  23.311  0.00  0.00     0.211 C 
ATOM     12  O   UNL d   1     -46.159  13.599  23.663  0.00  0.00    -0.644 OA
ATOM     13  O   UNL d   1     -45.646  12.539  22.950  0.00  0.00    -0.644 OA
ENDBRANCH   1  11
TORSDOF 1
ENDMDL
MODEL 3
REMARK VINA RESULT:      -6.8      1.573      3.123
REMARK  1 active torsions:
REMARK  status: ('A' for Active; 'I' for Inactive)
REMARK    1  A    between atoms: C_2  and  C_1 
ROOT
ATOM      1  C   UNL d   1     -48.370  11.857  23.203  0.00  0.00     0.067 A 
ATOM      2  C   UNL d   1     -47.517  12.990  23.052  0.00  0.00     0.123 A 
ATOM      3  C   UNL d   1     -48.252  12.630  22.935  0.00  0.00     0.033 A 
ATOM      4  C   UNL d   1     -46.909  12.582  23.432  0.00  0.00     0.123 A 
ATOM      5  O   UNL d   1     -47.396  13.766  22.782  0.00  0.00    -0.301 OA
ATOM      6  O   UNL d   1     -46.174  12.948  23.546  0.00  0.00    -0.301 OA
ATOM      7  C   UNL d   1     -47.762  11.450  23.584  0.00  0.00     0.008 A 
ATOM      8  C   UNL d   1     -47.031  11.812  23.698  0.00  0.00     0.027 A 
ATOM      9  C   UNL d   1     -46.658  14.129  22.899  0.00  0.00     0.149 A 
ATOM     10  C   UNL d   1     -46.050  13.722  23.279  0.00  0.00     0.149 A 
ENDROOT
BRANCH   1  11
ATOM     11  C   UNL d   1     -49.105  11.498  23.087  0.00  0.00     0.211 C 
ATOM     12  O   UNL d   1     -49.563  11.187  23.698  0.00  0.00    -0.644 OA
ATOM     13  O   UNL d   1     -49.458  11.412  22.344  0.00  0.00    -0.644 OA
ENDBRANCH   1  11
TORSDOF 1
ENDMDL
MODEL 4
REMARK VINA RESULT:      -6.8      0.730      1.400
REMARK  1 active torsions:
REMARK  status: ('A' for Active; 'I' for Inactive)
REMARK    1  A    between atoms: C_2  and  C_1 
ROOT
ATOM      1  C   UNL d   1     -47.005  13.619  22.690  0.00  0.00     0.067 A 
ATOM      2  C   UNL d   1     -48.170  14.443  22.660  0.00  0.00     0.123 A 
ATOM      3  C   UNL d   1     -47.387  14.323  22.896  0.00  0.00     0.033 A 
ATOM      4  C   UNL d   1     -48.566  13.865  22.224  0.00  0.00     0.123 A 
ATOM      5  O   UNL d   1     -48.555  15.149  22.865  0.00  0.00    -0.301 OA
ATOM      6  O   UNL d   1     -49.351  13.991  21.990  0.00  0.00    -0.301 OA
ATOM      7  C   UNL d   1     -47.402  13.042  22.254  0.00  0.00     0.008 A 
ATOM      8  C   UNL d   1     -48.183  13.165  22.021  0.00  0.00     0.027 A 
ATOM      9  C   UNL d   1     -49.341  15.271  22.629  0.00  0.00     0.149 A 
ATOM     10  C   UNL d   1     -49.738  14.694  22.193  0.00  0.00     0.149 A 
ENDROOT
BRANCH   1  11
ATOM     11  C   UNL d   1     -46.223  13.500  22.927  0.00  0.00     0.211 C 
ATOM     12  O   UNL d   1     -45.571  13.680  22.454  0.00  0.00    -0.644 OA
ATOM     13  O   UNL d   1     -46.011  13.189  23.662  0.00  0.00    -0.644 OA
ENDBRANCH   1  11
TORSDOF 1
ENDMDL
MODEL 5
REMARK VINA RESULT:      -6.7      1.224      1.583
REMARK  1 active torsions:
REMARK  status: ('A' for Active; 'I' for Inactive)
REMARK    1  A    between atoms: C_2  and  C_1 
ROOT
ATOM      1  C   UNL d   1     -46.874  12.819  23.254  0.00  0.00     0.067 A 
ATOM      2  C   UNL d   1     -47.993  13.653  22.963  0.00  0.00     0.123 A 
ATOM      3  C   UNL d   1     -47.693  12.921  23.202  0.00  0.00     0.033 A 
ATOM      4  C   UNL d   1     -47.482  14.274  22.778  0.00  0.00     0.123 A 
ATOM      5  O   UNL d   1     -48.815  13.759  22.910  0.00  0.00    -0.301 OA
ATOM      6  O   UNL d   1     -47.789  15.005  22.538  0.00  0.00    -0.301 OA
ATOM      7  C   UNL d   1     -46.363  13.439  23.069  0.00  0.00     0.008 A 
ATOM      8  C   UNL d   1     -46.667  14.167  22.831  0.00  0.00     0.027 A 
ATOM      9  C   UNL d   1     -49.119  14.493  22.669  0.00  0.00     0.149 A 
ATOM     10  C   UNL d   1     -48.608  15.114  22.484  0.00  0.00     0.149 A 
ENDROOT
BRANCH   1  11
ATOM     11  C   UNL d   1     -46.574  12.087  23.494  0.00  0.00     0.211 C 
ATOM     12  O   UNL d   1     -47.042  11.419  23.615  0.00  0.00    -0.644 OA
ATOM     13  O   UNL d   1     -45.772  11.949  23.637  0.00  0.00    -0.644 OA
ENDBRANCH   1  11
TORSDOF 1
ENDMDL
MODEL 6
REMARK VINA RESULT:      -5.8      1.585      1.984
REMARK  1 active torsions:
REMARK  status: ('A' for Active; 'I' for Inactive)
REMARK    1  A    between atoms: C_2  and  C_1 
ROOT
ATOM      1  C   UNL d   1     -46.119  12.955  22.694  0.00  0.00     0.067 A 
ATOM      2  C   UNL d   1     -47.082  12.027  23.188  0.00  0.00     0.123 A 
ATOM      3  C   UNL d   1     -46.307  12.194  22.957  0.00  0.00     0.033 A 
ATOM      4  C   UNL d   1     -47.662  12.613  23.157  0.00  0.00     0.123 A 
ATOM      5  O   UNL d   1     -47.274  11.263  23.453  0.00  0.00    -0.301 OA
ATOM      6  O   UNL d   1     -48.438  12.439  23.390  0.00  0.00    -0.301 OA
ATOM      7  C   UNL d   1     -46.699  13.541  22.662  0.00  0.00     0.008 A 
ATOM      8  C   UNL d   1     -47.471  13.370  22.894  0.00  0.00     0.027 A 
ATOM      9  C   UNL d   1     -48.052  11.094  23.685  0.00  0.00     0.149 A 
ATOM     10  C   UNL d   1     -48.632  11.680  23.654  0.00  0.00     0.149 A 
ENDROOT
BRANCH   1  11
ATOM     11  C   UNL d   1     -45.343  13.122  22.462  0.00  0.00     0.211 C 
ATOM     12  O   UNL d   1     -45.073  13.881  22.286  0.00  0.00    -0.644 OA
ATOM     13  O   UNL d   1     -44.757  12.545  22.384  0.00  0.00    -0.644 OA
ENDBRANCH   1  11
TORSDOF 1
ENDMDL
MODEL 7
REMARK VINA RESULT:      -4.8      1.933      3.249
REMARK  1 active torsions:
REMARK  status: ('A' for Active; 'I' for Inactive)
REMARK    1  A    between atoms: C_2  and  C_1 
ROOT
ATOM      1  C   UNL d   1     -50.116  13.788  22.259  0.00  0.00     0.067 A 
ATOM      2  C   UNL d   1     -49.298  12.627  22.392  0.00  0.00     0.123 A 
ATOM      3  C   UNL d   1     -49.853  13.062  21.962  0.00  0.00     0.033 A 
ATOM      4  C   UNL d   1     -49.009  12.913  23.110  0.00  0.00     0.123 A 
ATOM      5  O   UNL d   1     -49.033  11.897  22.096  0.00  0.00    -0.301 OA
ATOM      6  O   UNL d   1     -48.452  12.472  23.536  0.00  0.00    -0.301 OA
ATOM      7  C   UNL d   1     -49.826  14.074  22.976  0.00  0.00     0.008 A 
ATOM      8  C   UNL d   1     -49.273  13.637  23.402  0.00  0.00     0.027 A 
ATOM      9  C   UNL d   1     -48.476  11.459  22.526  0.00  0.00     0.149 A 
ATOM     10  C   UNL d   1     -48.186  11.745  23.244  0.00  0.00     0.149 A 
ENDROOT
BRANCH   1  11
ATOM     11  C   UNL d   1     -50.671  14.223  21.828  0.00  0.00     0.211 C 
ATOM     12  O   UNL d   1     -50.891  14.995  22.017  0.00  0.00    -0.644 OA
ATOM     13  O   UNL d   1     -51.064  13.929  21.164  0.00  0.00    -0.644 OA
ENDBRANCH   1  11
TORSDOF 1
ENDMDL
MODEL 8
REMARK VINA RESULT:      -4.5      8.504      9.443
REMARK  1 active torsions:
REMARK  status: ('A' for Active; 'I' for Inactive)
REMARK    1  A    between atoms: C_2  and  C_1 
ROOT
ATOM      1  C   UNL d   1     -40.430  14.987  17.623  0.00  0.00     0.067 A 
ATOM      2  C   UNL d   1     -39.391  14.136  18.103  0.00  0.00     0.123 A 
ATOM      3  C   UNL d   1     -39.835  14.434  17.472  0.00  0.00     0.033 A 
ATOM      4  C   UNL d   1     -39.540  14.389  18.874  0.00  0.00     0.123 A 
ATOM      5  O   UNL d   1     -38.792  13.580  17.953  0.00  0.00    -0.301 OA
ATOM      6  O   UNL d   1     -39.092  14.086  19.501  0.00  0.00    -0.301 OA
ATOM      7  C   UNL d   1     -40.579  15.239  18.394  0.00  0.00     0.008 A 
ATOM      8  C   UNL d   1     -40.135  14.940  19.020  0.00  0.00     0.027 A 
ATOM      9  C   UNL d   1     -38.345  13.280  18.585  0.00  0.00     0.149 A 
ATOM     10  C   UNL d   1     -38.495  13.532  19.356  0.00  0.00     0.149 A 
ENDROOT
BRANCH   1  11
ATOM     11  C   UNL d   1     -40.874  15.285  16.992  0.00  0.00     0.211 C 
ATOM     12  O   UNL d   1     -40.616  15.896  16.502  0.00  0.00    -0.644 OA
ATOM     13  O   UNL d   1     -41.622  15.000  16.788  0.00  0.00    -0.644 OA
ENDBRANCH   1  11
TORSDOF 1
ENDMDL
MODEL 9
REMARK VINA RESULT:      -4.4      8.064      8.581
REMARK  1 active torsions:
REMARK  status: ('A' for Active; 'I' for Inactive)
REMARK    1  A    between atoms: C_2  and  C_1 
ROOT
ATOM      1  C   UNL d   1     -40.257  14.749  18.813  0.00  0.00     0.067 A 
ATOM      2  C   UNL d   1     -39.878  14.807  20.187  0.00  0.00     0.123 A 
ATOM      3  C   UNL d   1     -39.869  14.412  19.461  0.00  0.00     0.033 A 
ATOM      4  C   UNL d   1     -40.269  15.530  20.264  0.00  0.00     0.123 A 
ATOM      5  O   UNL d   1     -39.489  14.471  20.839  0.00  0.00    -0.301 OA
ATOM      6  O   UNL d   1     -40.274  15.921  20.994  0.00  0.00    -0.301 OA
ATOM      7  C   UNL d   1     -40.648  15.471  18.890  0.00  0.00     0.008 A 
ATOM      8  C   UNL d   1     -40.654  15.862  19.616  0.00  0.00     0.027 A 
ATOM      9  C   UNL d   1     -39.497  14.866  21.569  0.00  0.00     0.149 A 
ATOM     10  C   UNL d   1     -39.888  15.588  21.646  0.00  0.00     0.149 A 
ENDROOT
BRANCH   1  11
ATOM     11  C   UNL d   1     -40.248  14.354  18.087  0.00  0.00     0.211 C 
ATOM     12  O   UNL d   1     -40.925  14.056  17.722  0.00  0.00    -0.644 OA
ATOM     13  O   UNL d   1     -39.559  14.216  17.652  0.00  0.00    -0.644 OA
ENDBRANCH   1  11
TORSDOF 1
ENDMDL
