MODEL 1
REMARK VINA RESULT:      -3.0      0.000      0.000
REMARK  3 active torsions:
REMARK  status: ('A' for Active; 'I' for Inactive)
REMARK    1  A    between atoms: C_6  and  N_1 
REMARK    2  A    between atoms: C_5  and  C_9 
REMARK    3  A    between atoms: C_14  and  C_6 
ROOT
ATOM      1  C   UNL d   1      29.068  16.267 -23.772  0.00  0.00     0.064 A 
ATOM      2  C   UNL d   1      29.270  16.776 -24.389  0.00  0.00     0.006 A 
ATOM      3  C   UNL d   1      29.650  15.823 -23.397  0.00  0.00     0.006 A 
ATOM      4  C   UNL d   1      30.640  16.394 -24.255  0.00  0.00     0.018 A 
ATOM      5  C   UNL d   1      30.054  16.840 -24.631  0.00  0.00     0.002 A 
ATOM      6  C   UNL d   1      30.438  15.885 -23.638  0.00  0.00     0.002 A 
ENDROOT
BRANCH   4   7
ATOM      7  C   UNL d   1      31.425  16.458 -24.497  0.00  0.00     0.084 C 
BRANCH   7   8
ATOM      8  N   UNL d   1      31.964  16.888 -24.045  0.00  0.00    -0.259 N 
ATOM      9  C   UNL d   1      32.540  16.564 -23.542  0.00  0.00     0.153 A 
ATOM     10  S   UNL d   1      32.950  17.188 -23.204  0.00  0.00    -0.053 SA
ATOM     11  S   UNL d   1      32.669  15.759 -23.411  0.00  0.00    -0.052 SA
ATOM     12  C   UNL d   1      32.632  17.891 -23.494  0.00  0.00     0.099 A 
ATOM     13  C   UNL d   1      32.024  17.705 -24.013  0.00  0.00     0.272 A 
ATOM     14  O   UNL d   1      31.553  18.242 -24.431  0.00  0.00    -0.266 OA
ENDBRANCH   7   8
ENDBRANCH   4   7
BRANCH   1  15
ATOM     15  C   UNL d   1      28.275  16.206 -23.531  0.00  0.00     0.211 C 
ATOM     16  O   UNL d   1      27.870  15.496 -23.618  0.00  0.00    -0.644 OA
ATOM     17  O   UNL d   1      27.895  16.861 -23.204  0.00  0.00    -0.644 OA
ENDBRANCH   1  15
TORSDOF 3
ENDMDL
MODEL 2
REMARK VINA RESULT:      -2.9      1.886      3.699
REMARK  3 active torsions:
REMARK  status: ('A' for Active; 'I' for Inactive)
REMARK    1  A    between atoms: C_6  and  N_1 
REMARK    2  A    between atoms: C_5  and  C_9 
REMARK    3  A    between atoms: C_14  and  C_6 
ROOT
ATOM      1  C   UNL d   1      32.334  17.931 -23.688  0.00  0.00     0.064 A 
ATOM      2  C   UNL d   1      32.423  17.141 -23.469  0.00  0.00     0.006 A 
ATOM      3  C   UNL d   1      31.694  18.161 -24.151  0.00  0.00     0.006 A 
ATOM      4  C   UNL d   1      31.227  16.810 -24.179  0.00  0.00     0.018 A 
ATOM      5  C   UNL d   1      31.872  16.580 -23.713  0.00  0.00     0.002 A 
ATOM      6  C   UNL d   1      31.139  17.600 -24.398  0.00  0.00     0.002 A 
ENDROOT
BRANCH   4   7
ATOM      7  C   UNL d   1      30.675  16.249 -24.423  0.00  0.00     0.084 C 
BRANCH   7   8
ATOM      8  N   UNL d   1      29.933  16.215 -24.064  0.00  0.00    -0.259 N 
ATOM      9  C   UNL d   1      29.231  16.529 -24.376  0.00  0.00     0.153 A 
ATOM     10  S   UNL d   1      28.632  16.371 -23.840  0.00  0.00    -0.053 SA
ATOM     11  S   UNL d   1      29.157  16.925 -25.097  0.00  0.00    -0.052 SA
ATOM     12  C   UNL d   1      28.959  15.964 -23.201  0.00  0.00     0.099 A 
ATOM     13  C   UNL d   1      29.762  15.869 -23.341  0.00  0.00     0.272 A 
ATOM     14  O   UNL d   1      30.307  15.491 -22.844  0.00  0.00    -0.266 OA
ENDBRANCH   7   8
ENDBRANCH   4   7
BRANCH   1  15
ATOM     15  C   UNL d   1      32.893  18.493 -23.440  0.00  0.00     0.211 C 
ATOM     16  O   UNL d   1      33.131  19.093 -23.949  0.00  0.00    -0.644 OA
ATOM     17  O   UNL d   1      33.209  18.447 -22.679  0.00  0.00    -0.644 OA
ENDBRANCH   1  15
TORSDOF 3
ENDMDL
MODEL 3
REMARK VINA RESULT:      -2.8      1.008      1.266
REMARK  3 active torsions:
REMARK  status: ('A' for Active; 'I' for Inactive)
REMARK    1  A    between atoms: C_6  and  N_1 
REMARK    2  A    between atoms: C_5  and  C_9 
REMARK    3  A    between atoms: C_14  and  C_6 
ROOT
ATOM      1  C   UNL d   1      29.274  16.341 -23.897  0.00  0.00     0.064 A 
ATOM      2  C   UNL d   1      29.461  16.942 -24.430  0.00  0.00     0.006 A 
ATOM      3  C   UNL d   1      29.870  15.875 -23.575  0.00  0.00     0.006 A 
ATOM      4  C   UNL d   1      30.846  16.611 -24.317  0.00  0.00     0.018 A 
ATOM      5  C   UNL d   1      30.245  17.078 -24.640  0.00  0.00     0.002 A 
ATOM      6  C   UNL d   1      30.659  16.009 -23.784  0.00  0.00     0.002 A 
ENDROOT
BRANCH   4   7
ATOM      7  C   UNL d   1      31.631  16.747 -24.527  0.00  0.00     0.084 C 
BRANCH   7   8
ATOM      8  N   UNL d   1      32.078  17.306 -24.117  0.00  0.00    -0.259 N 
ATOM      9  C   UNL d   1      32.251  18.074 -24.382  0.00  0.00     0.153 A 
ATOM     10  S   UNL d   1      32.707  18.436 -23.804  0.00  0.00    -0.053 SA
ATOM     11  S   UNL d   1      32.006  18.406 -25.097  0.00  0.00    -0.052 SA
ATOM     12  C   UNL d   1      32.815  17.898 -23.188  0.00  0.00     0.099 A 
ATOM     13  C   UNL d   1      32.427  17.202 -23.382  0.00  0.00     0.272 A 
ATOM     14  O   UNL d   1      32.391  16.514 -22.922  0.00  0.00    -0.266 OA
ENDBRANCH   7   8
ENDBRANCH   4   7
BRANCH   1  15
ATOM     15  C   UNL d   1      28.481  16.207 -23.688  0.00  0.00     0.211 C 
ATOM     16  O   UNL d   1      28.085  16.742 -23.205  0.00  0.00    -0.644 OA
ATOM     17  O   UNL d   1      28.091  15.536 -23.967  0.00  0.00    -0.644 OA
ENDBRANCH   1  15
TORSDOF 3
ENDMDL
MODEL 4
REMARK VINA RESULT:      -2.5      1.751      3.904
REMARK  3 active torsions:
REMARK  status: ('A' for Active; 'I' for Inactive)
REMARK    1  A    between atoms: C_6  and  N_1 
REMARK    2  A    between atoms: C_5  and  C_9 
REMARK    3  A    between atoms: C_14  and  C_6 
ROOT
ATOM      1  C   UNL d   1      33.095  19.272 -22.749  0.00  0.00     0.064 A 
ATOM      2  C   UNL d   1      33.235  18.527 -22.421  0.00  0.00     0.006 A 
ATOM      3  C   UNL d   1      32.862  19.339 -23.535  0.00  0.00     0.006 A 
ATOM      4  C   UNL d   1      32.907  17.916 -23.671  0.00  0.00     0.018 A 
ATOM      5  C   UNL d   1      33.142  17.850 -22.880  0.00  0.00     0.002 A 
ATOM      6  C   UNL d   1      32.767  18.661 -23.998  0.00  0.00     0.002 A 
ENDROOT
BRANCH   4   7
ATOM      7  C   UNL d   1      32.814  17.239 -24.130  0.00  0.00     0.084 C 
BRANCH   7   8
ATOM      8  N   UNL d   1      32.172  16.737 -24.001  0.00  0.00    -0.259 N 
ATOM      9  C   UNL d   1      32.206  15.997 -23.625  0.00  0.00     0.153 A 
ATOM     10  S   UNL d   1      31.446  15.691 -23.615  0.00  0.00    -0.053 SA
ATOM     11  S   UNL d   1      32.886  15.641 -23.319  0.00  0.00    -0.052 SA
ATOM     12  C   UNL d   1      30.945  16.235 -23.981  0.00  0.00     0.099 A 
ATOM     13  C   UNL d   1      31.394  16.880 -24.218  0.00  0.00     0.272 A 
ATOM     14  O   UNL d   1      31.118  17.556 -24.608  0.00  0.00    -0.266 OA
ENDBRANCH   7   8
ENDBRANCH   4   7
BRANCH   1  15
ATOM     15  C   UNL d   1      33.191  19.952 -22.282  0.00  0.00     0.211 C 
ATOM     16  O   UNL d   1      33.241  20.693 -22.635  0.00  0.00    -0.644 OA
ATOM     17  O   UNL d   1      33.236  19.882 -21.461  0.00  0.00    -0.644 OA
ENDBRANCH   1  15
TORSDOF 3
ENDMDL
MODEL 5
REMARK VINA RESULT:      -2.3      2.463      4.323
REMARK  3 active torsions:
REMARK  status: ('A' for Active; 'I' for Inactive)
REMARK    1  A    between atoms: C_6  and  N_1 
REMARK    2  A    between atoms: C_5  and  C_9 
REMARK    3  A    between atoms: C_14  and  C_6 
ROOT
ATOM      1  C   UNL d   1      33.209  20.119 -22.345  0.00  0.00     0.064 A 
ATOM      2  C   UNL d   1      33.229  20.237 -23.161  0.00  0.00     0.006 A 
ATOM      3  C   UNL d   1      33.198  19.355 -22.040  0.00  0.00     0.006 A 
ATOM      4  C   UNL d   1      33.227  18.823 -23.367  0.00  0.00     0.018 A 
ATOM      5  C   UNL d   1      33.238  19.592 -23.672  0.00  0.00     0.002 A 
ATOM      6  C   UNL d   1      33.207  18.705 -22.550  0.00  0.00     0.002 A 
ENDROOT
BRANCH   4   7
ATOM      7  C   UNL d   1      33.236  18.177 -23.878  0.00  0.00     0.084 C 
BRANCH   7   8
ATOM      8  N   UNL d   1      32.529  17.812 -24.096  0.00  0.00    -0.259 N 
ATOM      9  C   UNL d   1      32.254  17.082 -23.813  0.00  0.00     0.153 A 
ATOM     10  S   UNL d   1      31.534  16.934 -24.175  0.00  0.00    -0.053 SA
ATOM     11  S   UNL d   1      32.641  16.599 -23.267  0.00  0.00    -0.052 SA
ATOM     12  C   UNL d   1      31.364  17.565 -24.677  0.00  0.00     0.099 A 
ATOM     13  C   UNL d   1      31.978  18.107 -24.628  0.00  0.00     0.272 A 
ATOM     14  O   UNL d   1      32.037  18.824 -25.039  0.00  0.00    -0.266 OA
ENDBRANCH   7   8
ENDBRANCH   4   7
BRANCH   1  15
ATOM     15  C   UNL d   1      33.200  20.773 -21.834  0.00  0.00     0.211 C 
ATOM     16  O   UNL d   1      33.236  21.537 -22.139  0.00  0.00    -0.644 OA
ATOM     17  O   UNL d   1      33.155  20.655 -21.019  0.00  0.00    -0.644 OA
ENDBRANCH   1  15
TORSDOF 3
ENDMDL
MODEL 6
REMARK VINA RESULT:      -2.1      2.538      4.321
REMARK  3 active torsions:
REMARK  status: ('A' for Active; 'I' for Inactive)
REMARK    1  A    between atoms: C_6  and  N_1 
REMARK    2  A    between atoms: C_5  and  C_9 
REMARK    3  A    between atoms: C_14  and  C_6 
ROOT
ATOM      1  C   UNL d   1      33.172  19.861 -22.242  0.00  0.00     0.064 A 
ATOM      2  C   UNL d   1      33.117  20.008 -23.052  0.00  0.00     0.006 A 
ATOM      3  C   UNL d   1      33.234  19.088 -21.967  0.00  0.00     0.006 A 
ATOM      4  C   UNL d   1      33.185  18.605 -23.311  0.00  0.00     0.018 A 
ATOM      5  C   UNL d   1      33.123  19.383 -23.587  0.00  0.00     0.002 A 
ATOM      6  C   UNL d   1      33.240  18.457 -22.502  0.00  0.00     0.002 A 
ENDROOT
BRANCH   4   7
ATOM      7  C   UNL d   1      33.191  17.978 -23.847  0.00  0.00     0.084 C 
BRANCH   7   8
ATOM      8  N   UNL d   1      32.552  17.457 -23.881  0.00  0.00    -0.259 N 
ATOM      9  C   UNL d   1      31.891  17.537 -24.376  0.00  0.00     0.153 A 
ATOM     10  S   UNL d   1      31.396  16.900 -24.229  0.00  0.00    -0.053 SA
ATOM     11  S   UNL d   1      31.761  18.148 -24.916  0.00  0.00    -0.052 SA
ATOM     12  C   UNL d   1      31.748  16.430 -23.649  0.00  0.00     0.099 A 
ATOM     13  C   UNL d   1      32.461  16.775 -23.435  0.00  0.00     0.272 A 
ATOM     14  O   UNL d   1      32.996  16.490 -22.871  0.00  0.00    -0.266 OA
ENDBRANCH   7   8
ENDBRANCH   4   7
BRANCH   1  15
ATOM     15  C   UNL d   1      33.165  20.496 -21.706  0.00  0.00     0.211 C 
ATOM     16  O   UNL d   1      33.240  21.268 -21.979  0.00  0.00    -0.644 OA
ATOM     17  O   UNL d   1      33.083  20.349 -20.899  0.00  0.00    -0.644 OA
ENDBRANCH   1  15
TORSDOF 3
ENDMDL
MODEL 7
REMARK VINA RESULT:      -0.5      3.839      5.220
REMARK  3 active torsions:
REMARK  status: ('A' for Active; 'I' for Inactive)
REMARK    1  A    between atoms: C_6  and  N_1 
REMARK    2  A    between atoms: C_5  and  C_9 
REMARK    3  A    between atoms: C_14  and  C_6 
ROOT
ATOM      1  C   UNL d   1      32.691  18.939 -22.973  0.00  0.00     0.064 A 
ATOM      2  C   UNL d   1      32.986  18.796 -22.216  0.00  0.00     0.006 A 
ATOM      3  C   UNL d   1      32.579  19.711 -23.233  0.00  0.00     0.006 A 
ATOM      4  C   UNL d   1      33.057  20.203 -21.979  0.00  0.00     0.018 A 
ATOM      5  C   UNL d   1      33.170  19.426 -21.719  0.00  0.00     0.002 A 
ATOM      6  C   UNL d   1      32.762  20.346 -22.736  0.00  0.00     0.002 A 
ENDROOT
BRANCH   4   7
ATOM      7  C   UNL d   1      33.241  20.834 -21.481  0.00  0.00     0.084 C 
BRANCH   7   8
ATOM      8  N   UNL d   1      32.719  21.469 -21.410  0.00  0.00    -0.259 N 
ATOM      9  C   UNL d   1      32.716  22.148 -21.887  0.00  0.00     0.153 A 
ATOM     10  S   UNL d   1      32.109  22.632 -21.623  0.00  0.00    -0.053 SA
ATOM     11  S   UNL d   1      33.233  22.302 -22.513  0.00  0.00    -0.052 SA
ATOM     12  C   UNL d   1      31.740  22.257 -20.988  0.00  0.00     0.099 A 
ATOM     13  C   UNL d   1      32.117  21.540 -20.858  0.00  0.00     0.272 A 
ATOM     14  O   UNL d   1      31.927  20.983 -20.274  0.00  0.00    -0.266 OA
ENDBRANCH   7   8
ENDBRANCH   4   7
BRANCH   1  15
ATOM     15  C   UNL d   1      32.507  18.300 -23.471  0.00  0.00     0.211 C 
ATOM     16  O   UNL d   1      32.336  18.430 -24.265  0.00  0.00    -0.644 OA
ATOM     17  O   UNL d   1      32.497  17.533 -23.166  0.00  0.00    -0.644 OA
ENDBRANCH   1  15
TORSDOF 3
ENDMDL
