MODEL 1
REMARK VINA RESULT:      93.6      0.000      0.000
REMARK  7 active torsions:
REMARK  status: ('A' for Active; 'I' for Inactive)
REMARK    1  A    between atoms: C_4  and  C_1 
REMARK    2  A    between atoms: N_5  and  C_3 
REMARK    3  A    between atoms: C_9  and  C_4 
REMARK       I    between atoms: C_7  and  N_5 
REMARK    4  A    between atoms: C_10  and  C_7 
REMARK       I    between atoms: N_14  and  C_9 
REMARK    5  A    between atoms: C_20  and  N_14 
REMARK    6  A    between atoms: C_21  and  C_20 
REMARK    7  A    between atoms: O_29  and  C_22 
ROOT
ATOM      1  C   UNL d   1     -48.084  28.935  35.888  0.00  0.00     0.144 C 
ATOM      2  C   UNL d   1     -48.066  29.483  36.503  0.00  0.00     0.107 C 
ATOM      3  N   UNL d   1     -48.054  30.024  37.117  0.00  0.00    -0.191 NA
ENDROOT
BRANCH   1   4
ATOM      4  C   UNL d   1     -48.696  28.371  35.841  0.00  0.00     0.097 A 
ATOM      5  N   UNL d   1     -48.980  27.948  35.191  0.00  0.00    -0.226 NA
ATOM      6  C   UNL d   1     -49.594  27.460  35.449  0.00  0.00     0.166 A 
ATOM      7  C   UNL d   1     -49.692  27.579  36.260  0.00  0.00     0.037 A 
ATOM      8  C   UNL d   1     -49.139  28.143  36.510  0.00  0.00     0.021 A 
ATOM      9  C   UNL d   1     -50.213  27.249  36.807  0.00  0.00     0.003 A 
ATOM     10  C   UNL d   1     -49.108  28.372  37.298  0.00  0.00     0.002 A 
ATOM     11  C   UNL d   1     -49.628  28.042  37.846  0.00  0.00     0.000 A 
ATOM     12  C   UNL d   1     -50.182  27.478  37.596  0.00  0.00     0.000 A 
BRANCH   6  13
ATOM     13  N   UNL d   1     -50.049  26.938  35.017  0.00  0.00    -0.189 NA
ATOM     14  C   UNL d   1     -50.011  26.762  34.201  0.00  0.00     0.286 C 
ATOM     15  O   UNL d   1     -49.449  27.151  33.743  0.00  0.00    -0.265 OA
BRANCH  14  16
ATOM     16  C   UNL d   1     -50.518  26.215  33.852  0.00  0.00     0.087 A 
ATOM     17  S   UNL d   1     -51.286  26.437  33.641  0.00  0.00    -0.082 SA
ATOM     18  C   UNL d   1     -51.655  25.776  33.307  0.00  0.00     0.036 A 
ATOM     19  C   UNL d   1     -51.114  25.148  33.312  0.00  0.00     0.008 A 
ATOM     20  C   UNL d   1     -50.414  25.421  33.648  0.00  0.00     0.012 A 
ENDBRANCH  14  16
ENDBRANCH   6  13
ENDBRANCH   1   4
BRANCH   1  21
ATOM     21  C   UNL d   1     -47.491  28.944  35.311  0.00  0.00     0.290 C 
ATOM     22  N   UNL d   1     -47.315  29.639  34.911  0.00  0.00    -0.206 NA
ATOM     23  O   UNL d   1     -47.075  28.255  35.135  0.00  0.00    -0.264 OA
BRANCH  22  24
ATOM     24  C   UNL d   1     -47.735  30.334  35.090  0.00  0.00     0.102 C 
BRANCH  24  25
ATOM     25  C   UNL d   1     -47.812  31.078  34.733  0.00  0.00     0.019 A 
ATOM     26  C   UNL d   1     -48.447  31.222  34.231  0.00  0.00     0.004 A 
ATOM     27  C   UNL d   1     -48.530  31.956  33.875  0.00  0.00     0.024 A 
ATOM     28  C   UNL d   1     -47.972  32.555  34.021  0.00  0.00     0.094 A 
ATOM     29  C   UNL d   1     -47.337  32.411  34.524  0.00  0.00     0.024 A 
ATOM     30  C   UNL d   1     -47.259  31.666  34.880  0.00  0.00     0.004 A 
BRANCH  28  31
ATOM     31  O   UNL d   1     -48.053  33.292  33.665  0.00  0.00    -0.328 OA
ATOM     32  C   UNL d   1     -47.400  33.666  33.324  0.00  0.00     0.181 C 
ENDBRANCH  28  31
ENDBRANCH  24  25
ENDBRANCH  22  24
ENDBRANCH   1  21
TORSDOF 7
ENDMDL
