MODEL 1
REMARK VINA RESULT:       4.2      0.000      0.000
REMARK  3 active torsions:
REMARK  status: ('A' for Active; 'I' for Inactive)
REMARK    1  A    between atoms: C_2  and  C_1 
REMARK       I    between atoms: N_6  and  C_2 
REMARK    2  A    between atoms: C_7  and  N_6 
REMARK    3  A    between atoms: C_18  and  N_6 
ROOT
ATOM      1  C   UNL d   1      30.728  18.469 -23.471  0.00  0.00     0.270 C 
ATOM      2  N   UNL d   1      31.963  18.398 -23.313  0.00  0.00    -0.274 N 
ATOM      3  O   UNL d   1      30.426  19.140 -23.163  0.00  0.00    -0.266 OA
ENDROOT
BRANCH   2   4
ATOM      4  C   UNL d   1      32.305  17.754 -23.601  0.00  0.00     0.079 A 
ATOM      5  C   UNL d   1      32.501  17.115 -23.195  0.00  0.00     0.116 A 
ATOM      6  S   UNL d   1      32.826  16.607 -23.689  0.00  0.00     0.213 S 
ATOM      7  O   UNL d   1      33.151  16.098 -24.183  0.00  0.00    -0.217 OA
ATOM      8  O   UNL d   1      32.839  16.253 -22.999  0.00  0.00    -0.217 OA
ATOM      9  C   UNL d   1      32.828  16.934 -24.397  0.00  0.00     0.100 A 
ATOM     10  C   UNL d   1      32.509  17.638 -24.344  0.00  0.00     0.030 A 
ENDBRANCH   2   4
BRANCH   2  11
ATOM     11  C   UNL d   1      32.387  18.989 -22.933  0.00  0.00     0.067 A 
ATOM     12  C   UNL d   1      32.480  18.954 -22.126  0.00  0.00     0.018 A 
ATOM     13  C   UNL d   1      32.913  19.554 -21.735  0.00  0.00     0.002 A 
ATOM     14  C   UNL d   1      33.240  20.173 -22.164  0.00  0.00     0.000 A 
ATOM     15  C   UNL d   1      33.144  20.204 -22.980  0.00  0.00     0.002 A 
ATOM     16  C   UNL d   1      32.720  19.619 -23.372  0.00  0.00     0.018 A 
ENDBRANCH   2  11
BRANCH   1  17
ATOM     17  C   UNL d   1      30.282  17.890 -23.849  0.00  0.00     0.120 A 
ATOM     18  C   UNL d   1      30.134  17.951 -24.673  0.00  0.00     0.305 A 
ATOM     19  O   UNL d   1      29.686  17.370 -25.054  0.00  0.00    -0.273 OA
ATOM     20  O   UNL d   1      30.437  18.591 -25.097  0.00  0.00    -0.259 OA
ATOM     21  C   UNL d   1      29.387  16.732 -24.621  0.00  0.00     0.103 A 
ATOM     22  C   UNL d   1      29.532  16.672 -23.809  0.00  0.00     0.023 A 
ATOM     23  C   UNL d   1      28.938  16.154 -25.011  0.00  0.00     0.025 A 
ATOM     24  C   UNL d   1      29.978  17.248 -23.427  0.00  0.00     0.012 A 
ATOM     25  C   UNL d   1      29.230  16.032 -23.385  0.00  0.00     0.002 A 
ATOM     26  C   UNL d   1      28.782  15.453 -23.768  0.00  0.00     0.000 A 
ATOM     27  C   UNL d   1      28.637  15.514 -24.581  0.00  0.00     0.002 A 
ENDBRANCH   1  17
TORSDOF 3
ENDMDL
