MODEL 1
REMARK VINA RESULT:      60.9      0.000      0.000
REMARK  5 active torsions:
REMARK  status: ('A' for Active; 'I' for Inactive)
REMARK    1  A    between atoms: N_2  and  S_1 
REMARK    2  A    between atoms: C_8  and  S_1 
REMARK    3  A    between atoms: S_7  and  C_3 
REMARK    4  A    between atoms: C_11  and  S_7 
REMARK    5  A    between atoms: C_12  and  C_11 
ROOT
ATOM      1  N   UNL d   1      61.004  48.533  50.901  0.00  0.00    -0.208 N 
ATOM      2  C   UNL d   1      60.317  48.978  51.057  0.00  0.00     0.189 A 
ATOM      3  N   UNL d   1      60.363  49.258  51.837  0.00  0.00    -0.219 NA
ATOM      4  C   UNL d   1      61.476  48.540  51.588  0.00  0.00     0.114 A 
ATOM      5  C   UNL d   1      61.078  48.986  52.160  0.00  0.00     0.121 A 
ENDROOT
BRANCH   1   6
ATOM      6  S   UNL d   1      61.183  48.152  50.184  0.00  0.00     0.273 S 
ATOM      7  O   UNL d   1      61.186  48.893  49.832  0.00  0.00    -0.200 OA
ATOM      8  O   UNL d   1      61.356  48.011  49.385  0.00  0.00    -0.200 OA
BRANCH   6   9
ATOM      9  C   UNL d   1      61.184  47.395  50.522  0.00  0.00     0.104 A 
ATOM     10  C   UNL d   1      61.578  46.785  50.141  0.00  0.00     0.013 A 
ATOM     11  C   UNL d   1      61.578  46.033  50.479  0.00  0.00     0.001 A 
ATOM     12  C   UNL d   1      61.186  45.899  51.191  0.00  0.00     0.000 A 
ATOM     13  C   UNL d   1      60.793  46.514  51.567  0.00  0.00     0.001 A 
ATOM     14  C   UNL d   1      60.794  47.269  51.226  0.00  0.00     0.013 A 
ENDBRANCH   6   9
ENDBRANCH   1   6
BRANCH   2  15
ATOM     15  S   UNL d   1      59.692  49.116  50.522  0.00  0.00    -0.049 SA
BRANCH  15  16
ATOM     16  C   UNL d   1      59.108  49.672  50.708  0.00  0.00     0.038 C 
BRANCH  16  17
ATOM     17  C   UNL d   1      58.347  49.597  50.380  0.00  0.00     0.007 A 
ATOM     18  C   UNL d   1      57.696  49.410  50.863  0.00  0.00     0.001 A 
ATOM     19  C   UNL d   1      56.942  49.335  50.545  0.00  0.00     0.000 A 
ATOM     20  C   UNL d   1      56.831  49.446  49.733  0.00  0.00     0.000 A 
ATOM     21  C   UNL d   1      57.479  49.632  49.248  0.00  0.00     0.000 A 
ATOM     22  C   UNL d   1      56.078  49.372  49.405  0.00  0.00     0.000 C 
ATOM     23  C   UNL d   1      58.234  49.707  49.572  0.00  0.00     0.001 A 
ENDBRANCH  16  17
ENDBRANCH  15  16
ENDBRANCH   2  15
TORSDOF 5
ENDMDL
MODEL 2
REMARK VINA RESULT:      62.5      0.990      3.993
REMARK  5 active torsions:
REMARK  status: ('A' for Active; 'I' for Inactive)
REMARK    1  A    between atoms: N_2  and  S_1 
REMARK    2  A    between atoms: C_8  and  S_1 
REMARK    3  A    between atoms: S_7  and  C_3 
REMARK    4  A    between atoms: C_11  and  S_7 
REMARK    5  A    between atoms: C_12  and  C_11 
ROOT
ATOM      1  N   UNL d   1      60.682  49.032  50.870  0.00  0.00    -0.208 N 
ATOM      2  C   UNL d   1      60.861  48.231  51.015  0.00  0.00     0.189 A 
ATOM      3  N   UNL d   1      60.856  48.110  51.836  0.00  0.00    -0.219 NA
ATOM      4  C   UNL d   1      60.567  49.406  51.605  0.00  0.00     0.114 A 
ATOM      5  C   UNL d   1      60.674  48.837  52.196  0.00  0.00     0.121 A 
ENDROOT
BRANCH   1   6
ATOM      6  S   UNL d   1      60.630  49.389  50.121  0.00  0.00     0.273 S 
ATOM      7  O   UNL d   1      61.442  49.292  50.058  0.00  0.00    -0.200 OA
ATOM      8  O   UNL d   1      60.828  49.703  49.379  0.00  0.00    -0.200 OA
BRANCH   6   9
ATOM      9  C   UNL d   1      59.810  49.495  50.168  0.00  0.00     0.104 A 
ATOM     10  C   UNL d   1      59.458  49.601  50.902  0.00  0.00     0.013 A 
ATOM     11  C   UNL d   1      58.642  49.706  50.947  0.00  0.00     0.001 A 
ATOM     12  C   UNL d   1      58.187  49.705  50.260  0.00  0.00     0.000 A 
ATOM     13  C   UNL d   1      58.544  49.599  49.528  0.00  0.00     0.001 A 
ATOM     14  C   UNL d   1      59.365  49.493  49.486  0.00  0.00     0.013 A 
ENDBRANCH   6   9
ENDBRANCH   1   6
BRANCH   2  15
ATOM     15  S   UNL d   1      61.018  47.652  50.436  0.00  0.00    -0.049 SA
BRANCH  15  16
ATOM     16  C   UNL d   1      61.538  47.031  50.606  0.00  0.00     0.038 C 
BRANCH  16  17
ATOM     17  C   UNL d   1      61.471  46.312  50.193  0.00  0.00     0.007 A 
ATOM     18  C   UNL d   1      61.722  46.255  49.401  0.00  0.00     0.001 A 
ATOM     19  C   UNL d   1      61.659  45.548  48.988  0.00  0.00     0.000 A 
ATOM     20  C   UNL d   1      61.341  44.884  49.365  0.00  0.00     0.000 A 
ATOM     21  C   UNL d   1      61.090  44.937  50.155  0.00  0.00     0.000 A 
ATOM     22  C   UNL d   1      61.274  44.170  48.958  0.00  0.00     0.000 C 
ATOM     23  C   UNL d   1      61.155  45.649  50.566  0.00  0.00     0.001 A 
ENDBRANCH  16  17
ENDBRANCH  15  16
ENDBRANCH   2  15
TORSDOF 5
ENDMDL
