MODEL 1
REMARK VINA RESULT:      -8.4      0.000      0.000
REMARK  3 active torsions:
REMARK  status: ('A' for Active; 'I' for Inactive)
REMARK    1  A    between atoms: C_6  and  C_1 
REMARK    2  A    between atoms: C_7  and  C_5 
REMARK    3  A    between atoms: O_15  and  C_12 
ROOT
ATOM      1  C   UNL d   1      53.149  34.997  54.379  0.00  0.00     0.169 A 
ATOM      2  C   UNL d   1      52.838  34.704  53.747  0.00  0.00     0.048 A 
ATOM      3  N   UNL d   1      53.553  33.801  54.734  0.00  0.00    -0.148 NA
ATOM      4  N   UNL d   1      53.503  34.545  54.867  0.00  0.00    -0.142 NA
ATOM      5  C   UNL d   1      53.242  33.508  54.102  0.00  0.00     0.105 A 
ENDROOT
BRANCH   5   6
ATOM      6  C   UNL d   1      53.185  32.757  53.780  0.00  0.00     0.020 A 
ATOM      7  C   UNL d   1      53.730  32.171  53.994  0.00  0.00     0.004 A 
ATOM      8  C   UNL d   1      53.673  31.414  53.670  0.00  0.00     0.024 A 
ATOM      9  C   UNL d   1      53.072  31.239  53.129  0.00  0.00     0.094 A 
ATOM     10  C   UNL d   1      52.528  31.825  52.915  0.00  0.00     0.024 A 
ATOM     11  C   UNL d   1      52.587  32.584  53.242  0.00  0.00     0.004 A 
BRANCH   9  12
ATOM     12  O   UNL d   1      53.015  30.488  52.807  0.00  0.00    -0.328 OA
ATOM     13  C   UNL d   1      52.906  29.835  53.296  0.00  0.00     0.181 C 
ENDBRANCH   9  12
ENDBRANCH   5   6
BRANCH   1  14
ATOM     14  C   UNL d   1      53.098  35.742  54.511  0.00  0.00     0.231 C 
ATOM     15  O   UNL d   1      53.666  36.203  54.296  0.00  0.00    -0.643 OA
ATOM     16  O   UNL d   1      52.491  36.030  54.853  0.00  0.00    -0.643 OA
ENDBRANCH   1  14
TORSDOF 3
ENDMDL
MODEL 2
REMARK VINA RESULT:      -8.2      1.555      4.243
REMARK  3 active torsions:
REMARK  status: ('A' for Active; 'I' for Inactive)
REMARK    1  A    between atoms: C_6  and  C_1 
REMARK    2  A    between atoms: C_7  and  C_5 
REMARK    3  A    between atoms: O_15  and  C_12 
ROOT
ATOM      1  C   UNL d   1      52.910  30.336  53.341  0.00  0.00     0.169 A 
ATOM      2  C   UNL d   1      53.003  30.808  53.934  0.00  0.00     0.048 A 
ATOM      3  N   UNL d   1      52.766  31.367  52.543  0.00  0.00    -0.148 NA
ATOM      4  N   UNL d   1      52.793  30.618  52.652  0.00  0.00    -0.142 NA
ATOM      5  C   UNL d   1      52.858  31.839  53.135  0.00  0.00     0.105 A 
ENDROOT
BRANCH   5   6
ATOM      6  C   UNL d   1      52.865  32.653  53.232  0.00  0.00     0.020 A 
ATOM      7  C   UNL d   1      53.537  33.029  53.536  0.00  0.00     0.004 A 
ATOM      8  C   UNL d   1      53.544  33.848  53.633  0.00  0.00     0.024 A 
ATOM      9  C   UNL d   1      52.879  34.296  53.428  0.00  0.00     0.094 A 
ATOM     10  C   UNL d   1      52.207  33.920  53.125  0.00  0.00     0.024 A 
ATOM     11  C   UNL d   1      52.203  33.097  53.028  0.00  0.00     0.004 A 
BRANCH   9  12
ATOM     12  O   UNL d   1      52.886  35.110  53.525  0.00  0.00    -0.328 OA
ATOM     13  C   UNL d   1      52.983  35.436  54.274  0.00  0.00     0.181 C 
ENDBRANCH   9  12
ENDBRANCH   5   6
BRANCH   1  14
ATOM     14  C   UNL d   1      52.938  29.586  53.451  0.00  0.00     0.231 C 
ATOM     15  O   UNL d   1      53.403  29.300  53.981  0.00  0.00    -0.643 OA
ATOM     16  O   UNL d   1      52.508  29.123  53.039  0.00  0.00    -0.643 OA
ENDBRANCH   1  14
TORSDOF 3
ENDMDL
MODEL 3
REMARK VINA RESULT:      -7.9      2.195      3.015
REMARK  3 active torsions:
REMARK  status: ('A' for Active; 'I' for Inactive)
REMARK    1  A    between atoms: C_6  and  C_1 
REMARK    2  A    between atoms: C_7  and  C_5 
REMARK    3  A    between atoms: O_15  and  C_12 
ROOT
ATOM      1  C   UNL d   1      54.110  33.788  54.839  0.00  0.00     0.169 A 
ATOM      2  C   UNL d   1      53.824  33.284  54.342  0.00  0.00     0.048 A 
ATOM      3  N   UNL d   1      53.162  34.638  54.524  0.00  0.00    -0.148 NA
ATOM      4  N   UNL d   1      53.778  34.459  54.926  0.00  0.00    -0.142 NA
ATOM      5  C   UNL d   1      52.876  34.135  54.027  0.00  0.00     0.105 A 
ENDROOT
BRANCH   5   6
ATOM      6  C   UNL d   1      52.240  34.129  53.510  0.00  0.00     0.020 A 
ATOM      7  C   UNL d   1      52.306  34.487  52.767  0.00  0.00     0.004 A 
ATOM      8  C   UNL d   1      51.667  34.481  52.245  0.00  0.00     0.024 A 
ATOM      9  C   UNL d   1      50.956  34.118  52.465  0.00  0.00     0.094 A 
ATOM     10  C   UNL d   1      50.889  33.760  53.209  0.00  0.00     0.024 A 
ATOM     11  C   UNL d   1      51.534  33.767  53.730  0.00  0.00     0.004 A 
BRANCH   9  12
ATOM     12  O   UNL d   1      50.320  34.112  51.948  0.00  0.00    -0.328 OA
ATOM     13  C   UNL d   1      49.626  34.509  52.143  0.00  0.00     0.181 C 
ENDBRANCH   9  12
ENDBRANCH   5   6
BRANCH   1  14
ATOM     14  C   UNL d   1      54.727  33.608  55.242  0.00  0.00     0.231 C 
ATOM     15  O   UNL d   1      54.740  32.959  55.641  0.00  0.00    -0.643 OA
ATOM     16  O   UNL d   1      55.325  34.066  55.251  0.00  0.00    -0.643 OA
ENDBRANCH   1  14
TORSDOF 3
ENDMDL
MODEL 4
REMARK VINA RESULT:      -7.8      1.480      1.859
REMARK  3 active torsions:
REMARK  status: ('A' for Active; 'I' for Inactive)
REMARK    1  A    between atoms: C_6  and  C_1 
REMARK    2  A    between atoms: C_7  and  C_5 
REMARK    3  A    between atoms: O_15  and  C_12 
ROOT
ATOM      1  C   UNL d   1      52.423  33.835  53.103  0.00  0.00     0.169 A 
ATOM      2  C   UNL d   1      52.669  33.475  53.730  0.00  0.00     0.048 A 
ATOM      3  N   UNL d   1      52.466  32.705  52.438  0.00  0.00    -0.148 NA
ATOM      4  N   UNL d   1      52.324  33.448  52.464  0.00  0.00    -0.142 NA
ATOM      5  C   UNL d   1      52.713  32.345  53.065  0.00  0.00     0.105 A 
ENDROOT
BRANCH   5   6
ATOM      6  C   UNL d   1      52.919  31.573  53.246  0.00  0.00     0.020 A 
ATOM      7  C   UNL d   1      53.553  31.422  53.757  0.00  0.00     0.004 A 
ATOM      8  C   UNL d   1      53.761  30.645  53.940  0.00  0.00     0.024 A 
ATOM      9  C   UNL d   1      53.336  30.014  53.614  0.00  0.00     0.094 A 
ATOM     10  C   UNL d   1      52.702  30.165  53.103  0.00  0.00     0.024 A 
ATOM     11  C   UNL d   1      52.495  30.947  52.921  0.00  0.00     0.004 A 
BRANCH   9  12
ATOM     12  O   UNL d   1      53.542  29.242  53.795  0.00  0.00    -0.328 OA
ATOM     13  C   UNL d   1      53.437  28.955  54.559  0.00  0.00     0.181 C 
ENDBRANCH   9  12
ENDBRANCH   5   6
BRANCH   1  14
ATOM     14  C   UNL d   1      52.280  34.579  53.130  0.00  0.00     0.231 C 
ATOM     15  O   UNL d   1      51.559  34.824  53.147  0.00  0.00    -0.643 OA
ATOM     16  O   UNL d   1      52.846  35.077  53.139  0.00  0.00    -0.643 OA
ENDBRANCH   1  14
TORSDOF 3
ENDMDL
MODEL 5
REMARK VINA RESULT:      -7.5      2.361      3.060
REMARK  3 active torsions:
REMARK  status: ('A' for Active; 'I' for Inactive)
REMARK    1  A    between atoms: C_6  and  C_1 
REMARK    2  A    between atoms: C_7  and  C_5 
REMARK    3  A    between atoms: O_15  and  C_12 
ROOT
ATOM      1  C   UNL d   1      50.752  34.116  52.833  0.00  0.00     0.169 A 
ATOM      2  C   UNL d   1      51.402  34.512  52.793  0.00  0.00     0.048 A 
ATOM      3  N   UNL d   1      51.351  33.205  53.563  0.00  0.00    -0.148 NA
ATOM      4  N   UNL d   1      50.731  33.467  53.217  0.00  0.00    -0.142 NA
ATOM      5  C   UNL d   1      52.002  33.601  53.523  0.00  0.00     0.105 A 
ENDROOT
BRANCH   5   6
ATOM      6  C   UNL d   1      52.761  33.500  53.815  0.00  0.00     0.020 A 
ATOM      7  C   UNL d   1      53.288  32.990  53.431  0.00  0.00     0.004 A 
ATOM      8  C   UNL d   1      54.052  32.887  53.725  0.00  0.00     0.024 A 
ATOM      9  C   UNL d   1      54.294  33.293  54.404  0.00  0.00     0.094 A 
ATOM     10  C   UNL d   1      53.767  33.803  54.788  0.00  0.00     0.024 A 
ATOM     11  C   UNL d   1      53.000  33.904  54.491  0.00  0.00     0.004 A 
BRANCH   9  12
ATOM     12  O   UNL d   1      55.053  33.191  54.696  0.00  0.00    -0.328 OA
ATOM     13  C   UNL d   1      55.352  33.712  55.259  0.00  0.00     0.181 C 
ENDBRANCH   9  12
ENDBRANCH   5   6
BRANCH   1  14
ATOM     14  C   UNL d   1      50.131  34.378  52.486  0.00  0.00     0.231 C 
ATOM     15  O   UNL d   1      49.647  34.826  52.868  0.00  0.00    -0.643 OA
ATOM     16  O   UNL d   1      49.989  34.199  51.768  0.00  0.00    -0.643 OA
ENDBRANCH   1  14
TORSDOF 3
ENDMDL
MODEL 6
REMARK VINA RESULT:      -5.5     10.022     10.330
REMARK  3 active torsions:
REMARK  status: ('A' for Active; 'I' for Inactive)
REMARK    1  A    between atoms: C_6  and  C_1 
REMARK    2  A    between atoms: C_7  and  C_5 
REMARK    3  A    between atoms: O_15  and  C_12 
ROOT
ATOM      1  C   UNL d   1      44.859  30.134  59.678  0.00  0.00     0.169 A 
ATOM      2  C   UNL d   1      44.517  29.454  59.630  0.00  0.00     0.048 A 
ATOM      3  N   UNL d   1      45.532  29.874  58.582  0.00  0.00    -0.148 NA
ATOM      4  N   UNL d   1      45.363  30.338  59.156  0.00  0.00    -0.142 NA
ATOM      5  C   UNL d   1      45.189  29.193  58.534  0.00  0.00     0.105 A 
ENDROOT
BRANCH   5   6
ATOM      6  C   UNL d   1      45.227  28.562  58.012  0.00  0.00     0.020 A 
ATOM      7  C   UNL d   1      45.050  28.675  57.211  0.00  0.00     0.004 A 
ATOM      8  C   UNL d   1      45.088  28.041  56.685  0.00  0.00     0.024 A 
ATOM      9  C   UNL d   1      45.301  27.289  56.957  0.00  0.00     0.094 A 
ATOM     10  C   UNL d   1      45.477  27.176  57.758  0.00  0.00     0.024 A 
ATOM     11  C   UNL d   1      45.439  27.815  58.284  0.00  0.00     0.004 A 
BRANCH   9  12
ATOM     12  O   UNL d   1      45.339  26.657  56.436  0.00  0.00    -0.328 OA
ATOM     13  C   UNL d   1      44.775  26.059  56.471  0.00  0.00     0.181 C 
ENDBRANCH   9  12
ENDBRANCH   5   6
BRANCH   1  14
ATOM     14  C   UNL d   1      44.690  30.599  60.253  0.00  0.00     0.231 C 
ATOM     15  O   UNL d   1      44.853  30.390  60.967  0.00  0.00    -0.643 OA
ATOM     16  O   UNL d   1      44.361  31.265  60.122  0.00  0.00    -0.643 OA
ENDBRANCH   1  14
TORSDOF 3
ENDMDL
