MODEL 1
REMARK VINA RESULT:      61.1      0.000      0.000
REMARK  4 active torsions:
REMARK  status: ('A' for Active; 'I' for Inactive)
REMARK    1  A    between atoms: C_3  and  S_1 
REMARK       I    between atoms: C_2  and  N_6 
REMARK    2  A    between atoms: C_11  and  C_2 
REMARK    3  A    between atoms: N_6  and  C_12 
REMARK    4  A    between atoms: C_15  and  C_11 
ROOT
ATOM      1  C   UNL d   1      57.672  49.448  50.793  0.00  0.00     0.107 A 
ATOM      2  C   UNL d   1      57.960  49.074  50.120  0.00  0.00     0.015 A 
ATOM      3  C   UNL d   1      58.194  49.694  51.383  0.00  0.00     0.015 A 
ATOM      4  C   UNL d   1      59.291  49.191  50.620  0.00  0.00     0.085 A 
ATOM      5  C   UNL d   1      59.003  49.566  51.296  0.00  0.00     0.020 A 
ATOM      6  C   UNL d   1      58.769  48.946  50.033  0.00  0.00     0.020 A 
ENDROOT
BRANCH   4   7
ATOM      7  N   UNL d   1      60.101  49.062  50.533  0.00  0.00    -0.208 NA
ATOM      8  C   UNL d   1      60.413  48.307  50.649  0.00  0.00     0.279 C 
ATOM      9  O   UNL d   1      59.916  47.683  50.852  0.00  0.00    -0.265 OA
BRANCH   8  10
ATOM     10  C   UNL d   1      61.229  48.178  50.562  0.00  0.00     0.062 C 
BRANCH  10  11
ATOM     11  C   UNL d   1      61.509  47.466  50.251  0.00  0.00     0.005 A 
ATOM     12  C   UNL d   1      61.200  46.756  50.535  0.00  0.00     0.000 A 
ATOM     13  C   UNL d   1      61.479  46.041  50.224  0.00  0.00     0.000 A 
ATOM     14  C   UNL d   1      62.063  46.040  49.635  0.00  0.00     0.000 A 
ATOM     15  C   UNL d   1      62.366  46.755  49.357  0.00  0.00     0.000 A 
ATOM     16  C   UNL d   1      62.092  47.466  49.662  0.00  0.00     0.000 A 
ENDBRANCH  10  11
ENDBRANCH   8  10
ENDBRANCH   4   7
BRANCH   1  17
ATOM     17  S   UNL d   1      56.862  49.576  50.880  0.00  0.00     0.302 S 
ATOM     18  O   UNL d   1      56.948  49.564  51.701  0.00  0.00    -0.197 OA
ATOM     19  O   UNL d   1      56.776  49.588  50.059  0.00  0.00    -0.197 OA
ATOM     20  N   UNL d   1      56.050  49.705  50.966  0.00  0.00    -0.043 N 
ENDBRANCH   1  17
TORSDOF 4
ENDMDL
MODEL 2
REMARK VINA RESULT:      61.7      1.981      4.504
REMARK  4 active torsions:
REMARK  status: ('A' for Active; 'I' for Inactive)
REMARK    1  A    between atoms: C_3  and  S_1 
REMARK       I    between atoms: C_2  and  N_6 
REMARK    2  A    between atoms: C_11  and  C_2 
REMARK    3  A    between atoms: N_6  and  C_12 
REMARK    4  A    between atoms: C_15  and  C_11 
ROOT
ATOM      1  C   UNL d   1      61.306  48.036  51.032  0.00  0.00     0.107 A 
ATOM      2  C   UNL d   1      60.587  47.720  50.792  0.00  0.00     0.015 A 
ATOM      3  C   UNL d   1      61.374  48.847  51.173  0.00  0.00     0.015 A 
ATOM      4  C   UNL d   1      59.998  49.018  50.831  0.00  0.00     0.085 A 
ATOM      5  C   UNL d   1      60.719  49.337  51.072  0.00  0.00     0.020 A 
ATOM      6  C   UNL d   1      59.933  48.210  50.692  0.00  0.00     0.020 A 
ENDROOT
BRANCH   4   7
ATOM      7  N   UNL d   1      59.343  49.509  50.730  0.00  0.00    -0.208 NA
ATOM      8  C   UNL d   1      58.582  49.211  50.851  0.00  0.00     0.279 C 
ATOM      9  O   UNL d   1      58.478  48.425  51.071  0.00  0.00    -0.265 OA
BRANCH   8  10
ATOM     10  C   UNL d   1      57.922  49.706  50.749  0.00  0.00     0.062 C 
BRANCH  10  11
ATOM     11  C   UNL d   1      57.301  49.479  50.257  0.00  0.00     0.005 A 
ATOM     12  C   UNL d   1      56.677  49.043  50.574  0.00  0.00     0.000 A 
ATOM     13  C   UNL d   1      56.052  48.813  50.081  0.00  0.00     0.000 A 
ATOM     14  C   UNL d   1      56.055  49.020  49.278  0.00  0.00     0.000 A 
ATOM     15  C   UNL d   1      56.683  49.456  48.969  0.00  0.00     0.000 A 
ATOM     16  C   UNL d   1      57.304  49.685  49.454  0.00  0.00     0.000 A 
ENDBRANCH  10  11
ENDBRANCH   8  10
ENDBRANCH   4   7
BRANCH   1  17
ATOM     17  S   UNL d   1      61.962  47.545  51.133  0.00  0.00     0.302 S 
ATOM     18  O   UNL d   1      62.055  47.502  50.313  0.00  0.00    -0.197 OA
ATOM     19  O   UNL d   1      61.868  47.589  51.951  0.00  0.00    -0.197 OA
ATOM     20  N   UNL d   1      62.618  47.053  51.234  0.00  0.00    -0.043 N 
ENDBRANCH   1  17
TORSDOF 4
ENDMDL
MODEL 3
REMARK VINA RESULT:      63.6      1.549      2.336
REMARK  4 active torsions:
REMARK  status: ('A' for Active; 'I' for Inactive)
REMARK    1  A    between atoms: C_3  and  S_1 
REMARK       I    between atoms: C_2  and  N_6 
REMARK    2  A    between atoms: C_11  and  C_2 
REMARK    3  A    between atoms: N_6  and  C_12 
REMARK    4  A    between atoms: C_15  and  C_11 
ROOT
ATOM      1  C   UNL d   1      57.633  49.020  50.050  0.00  0.00     0.107 A 
ATOM      2  C   UNL d   1      58.084  49.610  49.698  0.00  0.00     0.015 A 
ATOM      3  C   UNL d   1      57.980  48.508  50.597  0.00  0.00     0.015 A 
ATOM      4  C   UNL d   1      59.228  49.181  50.433  0.00  0.00     0.085 A 
ATOM      5  C   UNL d   1      58.777  48.589  50.788  0.00  0.00     0.020 A 
ATOM      6  C   UNL d   1      58.881  49.691  49.889  0.00  0.00     0.020 A 
ENDROOT
BRANCH   4   7
ATOM      7  N   UNL d   1      60.027  49.262  50.625  0.00  0.00    -0.208 NA
ATOM      8  C   UNL d   1      60.441  48.623  50.941  0.00  0.00     0.279 C 
ATOM      9  O   UNL d   1      60.058  47.904  51.064  0.00  0.00    -0.265 OA
BRANCH   8  10
ATOM     10  C   UNL d   1      61.245  48.704  51.134  0.00  0.00     0.062 C 
BRANCH  10  11
ATOM     11  C   UNL d   1      61.471  49.009  51.866  0.00  0.00     0.005 A 
ATOM     12  C   UNL d   1      62.216  49.354  51.945  0.00  0.00     0.000 A 
ATOM     13  C   UNL d   1      62.444  49.660  52.680  0.00  0.00     0.000 A 
ATOM     14  C   UNL d   1      61.928  49.621  53.328  0.00  0.00     0.000 A 
ATOM     15  C   UNL d   1      61.185  49.274  53.240  0.00  0.00     0.000 A 
ATOM     16  C   UNL d   1      60.955  48.969  52.514  0.00  0.00     0.000 A 
ENDBRANCH  10  11
ENDBRANCH   8  10
ENDBRANCH   4   7
BRANCH   1  17
ATOM     17  S   UNL d   1      56.835  48.939  49.859  0.00  0.00     0.302 S 
ATOM     18  O   UNL d   1      56.627  49.259  50.591  0.00  0.00    -0.197 OA
ATOM     19  O   UNL d   1      57.043  48.620  49.127  0.00  0.00    -0.197 OA
ATOM     20  N   UNL d   1      56.036  48.858  49.667  0.00  0.00    -0.043 N 
ENDBRANCH   1  17
TORSDOF 4
ENDMDL
