MODEL 1
REMARK VINA RESULT:      50.0      0.000      0.000
REMARK  5 active torsions:
REMARK  status: ('A' for Active; 'I' for Inactive)
REMARK    1  A    between atoms: N_2  and  C_1 
REMARK    2  A    between atoms: N_3  and  C_1 
REMARK       I    between atoms: C_4  and  N_3 
REMARK    3  A    between atoms: C_11  and  C_4 
REMARK    4  A    between atoms: O_7  and  C_11 
REMARK    5  A    between atoms: C_8  and  O_7 
ROOT
ATOM      1  N   UNL d   1     -57.054 -99.018 -44.594  0.00  0.00    -0.178 NA
ATOM      2  C   UNL d   1     -56.240 -99.163 -44.679  0.00  0.00     0.304 C 
ATOM      3  O   UNL d   1     -55.912 -99.254 -45.426  0.00  0.00    -0.263 OA
ENDROOT
BRANCH   2   4
ATOM      4  C   UNL d   1     -55.756 -99.216 -44.009  0.00  0.00     0.158 C 
ATOM      5  C   UNL d   1     -55.925 -98.759 -43.349  0.00  0.00     0.032 C 
BRANCH   4   6
ATOM      6  O   UNL d   1     -55.109 -99.725 -44.006  0.00  0.00    -0.301 OA
BRANCH   6   7
ATOM      7  C   UNL d   1     -55.179-100.492 -44.285  0.00  0.00     0.111 A 
ATOM      8  C   UNL d   1     -54.987-100.683 -45.065  0.00  0.00     0.081 A 
ATOM      9  C   UNL d   1     -55.061-101.458 -45.338  0.00  0.00     0.025 A 
ATOM     10 CL   UNL d   1     -54.719-100.094 -45.577  0.00  0.00    -0.080 Cl
ATOM     11  C   UNL d   1     -55.327-102.045 -44.833  0.00  0.00     0.059 A 
ATOM     12  C   UNL d   1     -55.522-101.860 -44.046  0.00  0.00     0.013 A 
ATOM     13 CL   UNL d   1     -55.403-102.837 -45.108  0.00  0.00    -0.082 Cl
ATOM     14  C   UNL d   1     -55.448-101.088 -43.774  0.00  0.00     0.026 A 
ENDBRANCH   6   7
ENDBRANCH   4   6
ENDBRANCH   2   4
BRANCH   1  15
ATOM     15  C   UNL d   1     -57.382 -98.927 -43.847  0.00  0.00     0.209 C 
ATOM     16  S   UNL d   1     -56.889 -98.888 -43.181  0.00  0.00    -0.038 SA
BRANCH  15  17
ATOM     17  N   UNL d   1     -58.201 -98.874 -43.750  0.00  0.00    -0.282 N 
ATOM     18  C   UNL d   1     -58.608 -98.850 -43.044  0.00  0.00     0.066 A 
ATOM     19  C   UNL d   1     -59.413 -98.797 -43.211  0.00  0.00     0.018 A 
ATOM     20  C   UNL d   1     -58.343 -98.870 -42.259  0.00  0.00     0.018 A 
ATOM     21  C   UNL d   1     -59.960 -98.764 -42.594  0.00  0.00     0.002 A 
ATOM     22  C   UNL d   1     -59.504 -98.788 -44.020  0.00  0.00     0.021 A 
ATOM     23  C   UNL d   1     -59.704 -98.784 -41.803  0.00  0.00     0.000 A 
ATOM     24  C   UNL d   1     -58.899 -98.837 -41.636  0.00  0.00     0.002 A 
ATOM     25  C   UNL d   1     -58.756 -98.836 -44.364  0.00  0.00     0.082 A 
ENDBRANCH  15  17
ENDBRANCH   1  15
TORSDOF 5
ENDMDL
MODEL 2
REMARK VINA RESULT:      50.5      1.285      1.585
REMARK  5 active torsions:
REMARK  status: ('A' for Active; 'I' for Inactive)
REMARK    1  A    between atoms: N_2  and  C_1 
REMARK    2  A    between atoms: N_3  and  C_1 
REMARK       I    between atoms: C_4  and  N_3 
REMARK    3  A    between atoms: C_11  and  C_4 
REMARK    4  A    between atoms: O_7  and  C_11 
REMARK    5  A    between atoms: C_8  and  O_7 
ROOT
ATOM      1  N   UNL d   1     -57.032-100.115 -45.209  0.00  0.00    -0.178 NA
ATOM      2  C   UNL d   1     -56.281-100.425 -45.035  0.00  0.00     0.304 C 
ATOM      3  O   UNL d   1     -56.098-101.201 -45.235  0.00  0.00    -0.263 OA
ENDROOT
BRANCH   2   4
ATOM      4  C   UNL d   1     -55.714 -99.954 -44.660  0.00  0.00     0.158 C 
ATOM      5  C   UNL d   1     -55.878 -99.164 -44.509  0.00  0.00     0.032 C 
BRANCH   4   6
ATOM      6  O   UNL d   1     -54.989-100.275 -44.438  0.00  0.00    -0.301 OA
BRANCH   6   7
ATOM      7  C   UNL d   1     -54.920-100.718 -43.752  0.00  0.00     0.111 A 
ATOM      8  C   UNL d   1     -54.797-101.534 -43.780  0.00  0.00     0.081 A 
ATOM      9  C   UNL d   1     -54.729-101.972 -43.085  0.00  0.00     0.025 A 
ATOM     10 CL   UNL d   1     -54.741-101.916 -44.509  0.00  0.00    -0.080 Cl
ATOM     11  C   UNL d   1     -54.784-101.598 -42.359  0.00  0.00     0.059 A 
ATOM     12  C   UNL d   1     -54.908-100.776 -42.323  0.00  0.00     0.013 A 
ATOM     13 CL   UNL d   1     -54.715-102.042 -41.646  0.00  0.00    -0.082 Cl
ATOM     14  C   UNL d   1     -54.976-100.340 -43.016  0.00  0.00     0.026 A 
ENDBRANCH   6   7
ENDBRANCH   4   6
ENDBRANCH   2   4
BRANCH   1  15
ATOM     15  C   UNL d   1     -57.215 -99.339 -45.010  0.00  0.00     0.209 C 
ATOM     16  S   UNL d   1     -56.626 -98.757 -45.032  0.00  0.00    -0.038 SA
BRANCH  15  17
ATOM     17  N   UNL d   1     -57.983 -99.133 -44.786  0.00  0.00    -0.282 N 
ATOM     18  C   UNL d   1     -58.272 -99.081 -44.025  0.00  0.00     0.066 A 
ATOM     19  C   UNL d   1     -59.064 -98.858 -44.062  0.00  0.00     0.018 A 
ATOM     20  C   UNL d   1     -57.907 -99.210 -43.292  0.00  0.00     0.018 A 
ATOM     21  C   UNL d   1     -59.498 -98.763 -43.367  0.00  0.00     0.002 A 
ATOM     22  C   UNL d   1     -59.266 -98.773 -44.846  0.00  0.00     0.021 A 
ATOM     23  C   UNL d   1     -59.141 -98.890 -42.627  0.00  0.00     0.000 A 
ATOM     24  C   UNL d   1     -58.348 -99.113 -42.589  0.00  0.00     0.002 A 
ATOM     25  C   UNL d   1     -58.600 -98.941 -45.303  0.00  0.00     0.082 A 
ENDBRANCH  15  17
ENDBRANCH   1  15
TORSDOF 5
ENDMDL
