MODEL 1
REMARK VINA RESULT:     124.2      0.000      0.000
REMARK  4 active torsions:
REMARK  status: ('A' for Active; 'I' for Inactive)
REMARK    1  A    between atoms: N_8  and  C_1 
REMARK    2  A    between atoms: C_12  and  C_2 
REMARK    3  A    between atoms: C_4  and  C_10 
REMARK       I    between atoms: C_10  and  N_8 
REMARK       I    between atoms: C_14  and  N_11 
REMARK    4  A    between atoms: O_22  and  C_12 
ROOT
ATOM      1  C   UNL d   1      61.514  45.777  50.727  0.00  0.00     0.119 A 
ATOM      2  C   UNL d   1      61.550  46.267  50.068  0.00  0.00     0.088 A 
ATOM      3  C   UNL d   1      61.028  46.969  51.074  0.00  0.00     0.049 A 
ATOM      4  C   UNL d   1      61.248  47.007  50.284  0.00  0.00     0.016 A 
ATOM      5  S   UNL d   1      61.188  46.217  51.354  0.00  0.00    -0.066 SA
ATOM      6  N   UNL d   1      60.604  48.336  51.021  0.00  0.00    -0.272 N 
ATOM      7  C   UNL d   1      60.703  47.645  51.441  0.00  0.00     0.089 A 
ATOM      8  C   UNL d   1      60.283  49.012  51.376  0.00  0.00     0.265 C 
ATOM      9  C   UNL d   1      61.150  47.706  49.852  0.00  0.00     0.020 A 
ATOM     10  C   UNL d   1      60.830  48.367  50.220  0.00  0.00     0.083 A 
ATOM     11  O   UNL d   1      60.060  48.982  52.168  0.00  0.00    -0.267 OA
ATOM     12  C   UNL d   1      60.183  49.706  50.955  0.00  0.00     0.066 C 
ENDROOT
BRANCH   1  13
ATOM     13  N   UNL d   1      61.758  44.983  50.765  0.00  0.00    -0.200 NA
ATOM     14  C   UNL d   1      61.465  44.498  51.367  0.00  0.00     0.303 C 
ATOM     15  O   UNL d   1      60.941  44.787  51.924  0.00  0.00    -0.263 OA
BRANCH  14  16
ATOM     16  C   UNL d   1      61.707  43.711  51.404  0.00  0.00     0.169 A 
ATOM     17  N   UNL d   1      61.415  43.128  51.922  0.00  0.00    -0.234 NA
ATOM     18  C   UNL d   1      61.832  42.419  51.749  0.00  0.00     0.088 A 
ATOM     19  C   UNL d   1      61.787  41.663  52.074  0.00  0.00     0.020 A 
ATOM     20  C   UNL d   1      62.361  42.597  51.135  0.00  0.00     0.049 A 
ATOM     21  C   UNL d   1      62.283  41.069  51.777  0.00  0.00     0.002 A 
ATOM     22  C   UNL d   1      62.813  41.241  51.163  0.00  0.00     0.001 A 
ATOM     23  C   UNL d   1      62.850  41.996  50.847  0.00  0.00     0.008 A 
ATOM     24  S   UNL d   1      62.273  43.384  50.937  0.00  0.00    -0.062 SA
ENDBRANCH  14  16
ENDBRANCH   1  13
BRANCH   2  25
ATOM     25  C   UNL d   1      61.833  46.057  49.331  0.00  0.00     0.298 C 
ATOM     26  O   UNL d   1      61.369  45.601  48.828  0.00  0.00    -0.259 OA
BRANCH  25  27
ATOM     27  O   UNL d   1      62.597  46.307  49.091  0.00  0.00    -0.296 OA
ATOM     28  C   UNL d   1      63.150  45.753  48.831  0.00  0.00     0.185 C 
ENDBRANCH  25  27
ENDBRANCH   2  25
TORSDOF 4
ENDMDL
