MODEL 1
REMARK VINA RESULT:      -4.3      0.000      0.000
REMARK  5 active torsions:
REMARK  status: ('A' for Active; 'I' for Inactive)
REMARK    1  A    between atoms: C_4  and  C_1 
REMARK    2  A    between atoms: C_9  and  C_4 
REMARK    3  A    between atoms: N_5  and  C_9 
REMARK    4  A    between atoms: C_19  and  N_6 
REMARK    5  A    between atoms: C_18  and  C_19 
ROOT
ATOM      1  N   UNL d   1      57.740   0.520  31.131  0.00  0.00    -0.297 N 
ATOM      2  N   UNL d   1      58.709   0.195  29.826  0.00  0.00    -0.300 N 
ATOM      3  C   UNL d   1      57.411   0.335  30.403  0.00  0.00     0.100 A 
ATOM      4  C   UNL d   1      58.568   0.545  31.214  0.00  0.00     0.100 A 
ATOM      5  C   UNL d   1      59.045   0.380  30.554  0.00  0.00     0.100 A 
ATOM      6  C   UNL d   1      57.888   0.170  29.744  0.00  0.00     0.100 A 
ENDROOT
BRANCH   1   7
ATOM      7  C   UNL d   1      57.263   0.682  31.782  0.00  0.00     0.123 C 
BRANCH   7   8
ATOM      8  C   UNL d   1      56.952   0.067  32.234  0.00  0.00     0.216 C 
ATOM      9  O   UNL d   1      56.946  -0.703  31.938  0.00  0.00    -0.285 OA
BRANCH   8  10
ATOM     10  C   UNL d   1      56.644   0.221  32.990  0.00  0.00     0.080 A 
ATOM     11  C   UNL d   1      55.851   0.126  33.136  0.00  0.00     0.202 A 
ATOM     12  C   UNL d   1      55.544   0.277  33.881  0.00  0.00     0.078 A 
ATOM     13  O   UNL d   1      55.352  -0.126  32.529  0.00  0.00    -0.286 OA
ATOM     14  C   UNL d   1      54.737   0.178  34.024  0.00  0.00     0.007 C 
ATOM     15  C   UNL d   1      56.044   0.531  34.497  0.00  0.00     0.199 A 
ATOM     16  C   UNL d   1      56.855   0.628  34.345  0.00  0.00     0.042 A 
ATOM     17  O   UNL d   1      55.737   0.682  35.240  0.00  0.00    -0.286 OA
ATOM     18  C   UNL d   1      57.158   0.475  33.595  0.00  0.00     0.010 A 
ENDBRANCH   8  10
ENDBRANCH   7   8
ENDBRANCH   1   7
BRANCH   2  19
ATOM     19  C   UNL d   1      59.189   0.032  29.171  0.00  0.00     0.080 C 
BRANCH  19  20
ATOM     20  C   UNL d   1      59.432  -0.743  29.023  0.00  0.00     0.020 A 
ATOM     21  C   UNL d   1      60.188  -0.989  29.247  0.00  0.00     0.028 A 
ATOM     22  C   UNL d   1      60.426  -1.759  29.099  0.00  0.00     0.119 A 
ATOM     23  O   UNL d   1      61.132  -2.152  29.256  0.00  0.00    -0.300 OA
ATOM     24  C   UNL d   1      59.912  -2.285  28.728  0.00  0.00     0.119 A 
ATOM     25  C   UNL d   1      61.066  -2.926  28.986  0.00  0.00     0.304 A 
ATOM     26  O   UNL d   1      60.308  -3.007  28.658  0.00  0.00    -0.300 OA
ATOM     27  C   UNL d   1      59.157  -2.043  28.504  0.00  0.00     0.026 A 
ATOM     28  C   UNL d   1      58.921  -1.263  28.656  0.00  0.00     0.004 A 
ENDBRANCH  19  20
ENDBRANCH   2  19
TORSDOF 5
ENDMDL
MODEL 2
REMARK VINA RESULT:      -3.1      0.565      1.012
REMARK  5 active torsions:
REMARK  status: ('A' for Active; 'I' for Inactive)
REMARK    1  A    between atoms: C_4  and  C_1 
REMARK    2  A    between atoms: C_9  and  C_4 
REMARK    3  A    between atoms: N_5  and  C_9 
REMARK    4  A    between atoms: C_19  and  N_6 
REMARK    5  A    between atoms: C_18  and  C_19 
ROOT
ATOM      1  N   UNL d   1      57.926   0.472  30.843  0.00  0.00    -0.297 N 
ATOM      2  N   UNL d   1      59.059   0.195  29.664  0.00  0.00    -0.300 N 
ATOM      3  C   UNL d   1      58.713   0.669  30.966  0.00  0.00     0.100 A 
ATOM      4  C   UNL d   1      57.696   0.129  30.120  0.00  0.00     0.100 A 
ATOM      5  C   UNL d   1      58.270  -0.006  29.536  0.00  0.00     0.100 A 
ATOM      6  C   UNL d   1      59.286   0.534  30.381  0.00  0.00     0.100 A 
ENDROOT
BRANCH   1   7
ATOM      7  C   UNL d   1      57.361   0.607  31.425  0.00  0.00     0.123 C 
BRANCH   7   8
ATOM      8  C   UNL d   1      57.019  -0.024  31.829  0.00  0.00     0.216 C 
ATOM      9  O   UNL d   1      57.029  -0.780  31.500  0.00  0.00    -0.285 OA
BRANCH   8  10
ATOM     10  C   UNL d   1      56.662   0.099  32.570  0.00  0.00     0.080 A 
ATOM     11  C   UNL d   1      55.883   0.326  32.616  0.00  0.00     0.202 A 
ATOM     12  C   UNL d   1      55.529   0.448  33.345  0.00  0.00     0.078 A 
ATOM     13  O   UNL d   1      55.447   0.433  31.924  0.00  0.00    -0.286 OA
ATOM     14  C   UNL d   1      54.737   0.678  33.387  0.00  0.00     0.007 C 
ATOM     15  C   UNL d   1      55.966   0.341  34.047  0.00  0.00     0.199 A 
ATOM     16  C   UNL d   1      56.762   0.109  33.996  0.00  0.00     0.042 A 
ATOM     17  O   UNL d   1      55.611   0.463  34.774  0.00  0.00    -0.286 OA
ATOM     18  C   UNL d   1      57.113  -0.012  33.261  0.00  0.00     0.010 A 
ENDBRANCH   8  10
ENDBRANCH   7   8
ENDBRANCH   1   7
BRANCH   2  19
ATOM     19  C   UNL d   1      59.628   0.058  29.078  0.00  0.00     0.080 C 
BRANCH  19  20
ATOM     20  C   UNL d   1      59.973  -0.688  29.008  0.00  0.00     0.020 A 
ATOM     21  C   UNL d   1      59.514  -1.337  28.784  0.00  0.00     0.028 A 
ATOM     22  C   UNL d   1      59.860  -2.077  28.715  0.00  0.00     0.119 A 
ATOM     23  O   UNL d   1      59.546  -2.808  28.506  0.00  0.00    -0.300 OA
ATOM     24  C   UNL d   1      60.664  -2.171  28.869  0.00  0.00     0.119 A 
ATOM     25  C   UNL d   1      60.150  -3.367  28.527  0.00  0.00     0.304 A 
ATOM     26  O   UNL d   1      60.843  -2.970  28.753  0.00  0.00    -0.300 OA
ATOM     27  C   UNL d   1      61.125  -1.526  29.094  0.00  0.00     0.026 A 
ATOM     28  C   UNL d   1      60.770  -0.780  29.162  0.00  0.00     0.004 A 
ENDBRANCH  19  20
ENDBRANCH   2  19
TORSDOF 5
ENDMDL
MODEL 3
REMARK VINA RESULT:      -1.9      1.118      5.700
REMARK  5 active torsions:
REMARK  status: ('A' for Active; 'I' for Inactive)
REMARK    1  A    between atoms: C_4  and  C_1 
REMARK    2  A    between atoms: C_9  and  C_4 
REMARK    3  A    between atoms: N_5  and  C_9 
REMARK    4  A    between atoms: C_19  and  N_6 
REMARK    5  A    between atoms: C_18  and  C_19 
ROOT
ATOM      1  N   UNL d   1      59.015  -0.773  29.791  0.00  0.00    -0.297 N 
ATOM      2  N   UNL d   1      58.012   0.198  30.684  0.00  0.00    -0.300 N 
ATOM      3  C   UNL d   1      58.203  -0.884  29.772  0.00  0.00     0.100 A 
ATOM      4  C   UNL d   1      59.337  -0.168  30.263  0.00  0.00     0.100 A 
ATOM      5  C   UNL d   1      58.827   0.313  30.707  0.00  0.00     0.100 A 
ATOM      6  C   UNL d   1      57.693  -0.402  30.216  0.00  0.00     0.100 A 
ENDROOT
BRANCH   1   7
ATOM      7  C   UNL d   1      59.517  -1.253  29.349  0.00  0.00     0.123 C 
BRANCH   7   8
ATOM      8  C   UNL d   1      59.221  -1.905  28.942  0.00  0.00     0.216 C 
ATOM      9  O   UNL d   1      58.447  -1.897  28.656  0.00  0.00    -0.285 OA
BRANCH   8  10
ATOM     10  C   UNL d   1      59.699  -2.573  28.820  0.00  0.00     0.080 A 
ATOM     11  C   UNL d   1      59.363  -3.306  28.724  0.00  0.00     0.202 A 
ATOM     12  C   UNL d   1      59.833  -3.965  28.602  0.00  0.00     0.078 A 
ATOM     13  O   UNL d   1      58.542  -3.384  28.749  0.00  0.00    -0.286 OA
ATOM     14  C   UNL d   1      59.486  -4.709  28.505  0.00  0.00     0.007 C 
ATOM     15  C   UNL d   1      60.662  -3.891  28.576  0.00  0.00     0.199 A 
ATOM     16  C   UNL d   1      61.004  -3.140  28.675  0.00  0.00     0.042 A 
ATOM     17  O   UNL d   1      61.132  -4.551  28.455  0.00  0.00    -0.286 OA
ATOM     18  C   UNL d   1      60.527  -2.480  28.796  0.00  0.00     0.010 A 
ENDBRANCH   8  10
ENDBRANCH   7   8
ENDBRANCH   1   7
BRANCH   2  19
ATOM     19  C   UNL d   1      57.506   0.680  31.129  0.00  0.00     0.080 C 
BRANCH  19  20
ATOM     20  C   UNL d   1      57.185   0.398  31.834  0.00  0.00     0.020 A 
ATOM     21  C   UNL d   1      56.576  -0.160  31.817  0.00  0.00     0.028 A 
ATOM     22  C   UNL d   1      56.259  -0.439  32.520  0.00  0.00     0.119 A 
ATOM     23  O   UNL d   1      55.661  -0.984  32.670  0.00  0.00    -0.300 OA
ATOM     24  C   UNL d   1      56.549  -0.163  33.240  0.00  0.00     0.119 A 
ATOM     25  C   UNL d   1      55.571  -1.054  33.485  0.00  0.00     0.304 A 
ATOM     26  O   UNL d   1      56.122  -0.544  33.838  0.00  0.00    -0.300 OA
ATOM     27  C   UNL d   1      57.156   0.394  33.261  0.00  0.00     0.026 A 
ATOM     28  C   UNL d   1      57.473   0.673  32.547  0.00  0.00     0.004 A 
ENDBRANCH  19  20
ENDBRANCH   2  19
TORSDOF 5
ENDMDL
MODEL 4
REMARK VINA RESULT:      -1.4      1.129      5.778
REMARK  5 active torsions:
REMARK  status: ('A' for Active; 'I' for Inactive)
REMARK    1  A    between atoms: C_4  and  C_1 
REMARK    2  A    between atoms: C_9  and  C_4 
REMARK    3  A    between atoms: N_5  and  C_9 
REMARK    4  A    between atoms: C_19  and  N_6 
REMARK    5  A    between atoms: C_18  and  C_19 
ROOT
ATOM      1  N   UNL d   1      58.029  -0.360  30.749  0.00  0.00    -0.297 N 
ATOM      2  N   UNL d   1      56.684   0.076  31.614  0.00  0.00    -0.300 N 
ATOM      3  C   UNL d   1      57.567  -0.929  31.116  0.00  0.00     0.100 A 
ATOM      4  C   UNL d   1      57.819   0.444  30.812  0.00  0.00     0.100 A 
ATOM      5  C   UNL d   1      57.144   0.652  31.248  0.00  0.00     0.100 A 
ATOM      6  C   UNL d   1      56.891  -0.720  31.551  0.00  0.00     0.100 A 
ENDROOT
BRANCH   1   7
ATOM      7  C   UNL d   1      58.697  -0.571  30.318  0.00  0.00     0.123 C 
BRANCH   7   8
ATOM      8  C   UNL d   1      58.626  -0.840  29.542  0.00  0.00     0.216 C 
ATOM      9  O   UNL d   1      58.144  -0.436  29.008  0.00  0.00    -0.285 OA
BRANCH   8  10
ATOM     10  C   UNL d   1      59.040  -1.517  29.296  0.00  0.00     0.080 A 
ATOM     11  C   UNL d   1      59.794  -1.452  29.002  0.00  0.00     0.202 A 
ATOM     12  C   UNL d   1      60.203  -2.119  28.759  0.00  0.00     0.078 A 
ATOM     13  O   UNL d   1      60.149  -0.709  28.949  0.00  0.00    -0.286 OA
ATOM     14  C   UNL d   1      60.970  -2.047  28.461  0.00  0.00     0.007 C 
ATOM     15  C   UNL d   1      59.849  -2.871  28.810  0.00  0.00     0.199 A 
ATOM     16  C   UNL d   1      59.078  -2.935  29.111  0.00  0.00     0.042 A 
ATOM     17  O   UNL d   1      60.259  -3.536  28.567  0.00  0.00    -0.286 OA
ATOM     18  C   UNL d   1      58.671  -2.262  29.354  0.00  0.00     0.010 A 
ENDBRANCH   8  10
ENDBRANCH   7   8
ENDBRANCH   1   7
BRANCH   2  19
ATOM     19  C   UNL d   1      56.011   0.289  32.048  0.00  0.00     0.080 C 
BRANCH  19  20
ATOM     20  C   UNL d   1      56.064   0.388  32.865  0.00  0.00     0.020 A 
ATOM     21  C   UNL d   1      56.804   0.424  33.230  0.00  0.00     0.028 A 
ATOM     22  C   UNL d   1      56.853   0.522  34.042  0.00  0.00     0.119 A 
ATOM     23  O   UNL d   1      57.502   0.577  34.547  0.00  0.00    -0.300 OA
ATOM     24  C   UNL d   1      56.166   0.584  34.492  0.00  0.00     0.119 A 
ATOM     25  C   UNL d   1      57.226   0.673  35.316  0.00  0.00     0.304 A 
ATOM     26  O   UNL d   1      56.396   0.677  35.280  0.00  0.00    -0.300 OA
ATOM     27  C   UNL d   1      55.426   0.548  34.131  0.00  0.00     0.026 A 
ATOM     28  C   UNL d   1      55.381   0.448  33.309  0.00  0.00     0.004 A 
ENDBRANCH  19  20
ENDBRANCH   2  19
TORSDOF 5
ENDMDL
