MODEL 1
REMARK VINA RESULT:      -9.8      0.000      0.000
REMARK  3 active torsions:
REMARK  status: ('A' for Active; 'I' for Inactive)
REMARK    1  A    between atoms: N_5  and  C_1 
REMARK    2  A    between atoms: C_8  and  C_3 
REMARK       I    between atoms: C_7  and  N_5 
REMARK    3  A    between atoms: C_13  and  C_7 
ROOT
ATOM      1  C   UNL d   1      51.511  33.503  53.249  0.00  0.00     0.297 A 
ATOM      2  O   UNL d   1      50.727  33.556  52.991  0.00  0.00    -0.253 OA
ATOM      3  C   UNL d   1      50.565  34.355  52.832  0.00  0.00     0.206 A 
ATOM      4  N   UNL d   1      51.248  34.785  52.993  0.00  0.00    -0.119 NA
ATOM      5  N   UNL d   1      51.832  34.259  53.251  0.00  0.00    -0.101 NA
ENDROOT
BRANCH   3   6
ATOM      6  C   UNL d   1      49.840  34.656  52.559  0.00  0.00     0.043 A 
ATOM      7  C   UNL d   1      49.381  35.128  53.057  0.00  0.00     0.004 A 
ATOM      8  C   UNL d   1      48.666  35.425  52.788  0.00  0.00     0.000 A 
ATOM      9  C   UNL d   1      48.212  35.897  53.293  0.00  0.00     0.000 A 
ATOM     10  C   UNL d   1      48.415  35.250  52.026  0.00  0.00     0.000 A 
ATOM     11  C   UNL d   1      47.499  36.196  53.033  0.00  0.00     0.000 A 
ATOM     12  C   UNL d   1      47.233  36.028  52.266  0.00  0.00     0.000 A 
ATOM     13  C   UNL d   1      47.680  35.558  51.756  0.00  0.00     0.000 A 
ATOM     14  C   UNL d   1      48.856  34.788  51.528  0.00  0.00     0.000 A 
ATOM     15  C   UNL d   1      49.573  34.487  51.788  0.00  0.00     0.004 A 
ENDBRANCH   3   6
BRANCH   1  16
ATOM     16  N   UNL d   1      51.897  32.803  53.467  0.00  0.00    -0.165 NA
ATOM     17  C   UNL d   1      52.435  32.453  52.959  0.00  0.00     0.282 C 
ATOM     18  O   UNL d   1      52.601  32.793  52.220  0.00  0.00    -0.265 OA
BRANCH  17  19
ATOM     19  C   UNL d   1      52.818  31.755  53.179  0.00  0.00     0.058 A 
ATOM     20  C   UNL d   1      52.542  31.036  52.884  0.00  0.00     0.005 A 
ATOM     21  C   UNL d   1      52.927  30.334  53.105  0.00  0.00     0.000 A 
ATOM     22  C   UNL d   1      53.577  30.355  53.613  0.00  0.00     0.000 A 
ATOM     23  C   UNL d   1      53.845  31.079  53.902  0.00  0.00     0.000 A 
ATOM     24  C   UNL d   1      53.466  31.783  53.686  0.00  0.00     0.005 A 
ENDBRANCH  17  19
ENDBRANCH   1  16
TORSDOF 3
ENDMDL
MODEL 2
REMARK VINA RESULT:      -9.6      0.741      5.524
REMARK  3 active torsions:
REMARK  status: ('A' for Active; 'I' for Inactive)
REMARK    1  A    between atoms: N_5  and  C_1 
REMARK    2  A    between atoms: C_8  and  C_3 
REMARK       I    between atoms: C_7  and  N_5 
REMARK    3  A    between atoms: C_13  and  C_7 
ROOT
ATOM      1  C   UNL d   1      50.860  34.261  52.705  0.00  0.00     0.297 A 
ATOM      2  O   UNL d   1      51.174  33.656  53.173  0.00  0.00    -0.253 OA
ATOM      3  C   UNL d   1      51.851  33.364  52.791  0.00  0.00     0.206 A 
ATOM      4  N   UNL d   1      51.947  33.790  52.094  0.00  0.00    -0.119 NA
ATOM      5  N   UNL d   1      51.336  34.344  52.041  0.00  0.00    -0.101 NA
ENDROOT
BRANCH   3   6
ATOM      6  C   UNL d   1      52.338  32.750  53.071  0.00  0.00     0.043 A 
ATOM      7  C   UNL d   1      52.185  31.972  52.842  0.00  0.00     0.004 A 
ATOM      8  C   UNL d   1      52.665  31.368  53.117  0.00  0.00     0.000 A 
ATOM      9  C   UNL d   1      52.506  30.590  52.883  0.00  0.00     0.000 A 
ATOM     10  C   UNL d   1      53.291  31.543  53.618  0.00  0.00     0.000 A 
ATOM     11  C   UNL d   1      52.978  29.983  53.153  0.00  0.00     0.000 A 
ATOM     12  C   UNL d   1      53.614  30.145  53.659  0.00  0.00     0.000 A 
ATOM     13  C   UNL d   1      53.780  30.917  53.898  0.00  0.00     0.000 A 
ATOM     14  C   UNL d   1      53.451  32.302  53.850  0.00  0.00     0.000 A 
ATOM     15  C   UNL d   1      52.977  32.914  53.579  0.00  0.00     0.004 A 
ENDBRANCH   3   6
BRANCH   1  16
ATOM     16  N   UNL d   1      50.182  34.702  52.884  0.00  0.00    -0.165 NA
ATOM     17  C   UNL d   1      49.566  34.748  52.347  0.00  0.00     0.282 C 
ATOM     18  O   UNL d   1      49.611  34.355  51.617  0.00  0.00    -0.265 OA
BRANCH  17  19
ATOM     19  C   UNL d   1      48.891  35.189  52.529  0.00  0.00     0.058 A 
ATOM     20  C   UNL d   1      48.340  35.341  51.935  0.00  0.00     0.005 A 
ATOM     21  C   UNL d   1      47.661  35.784  52.116  0.00  0.00     0.000 A 
ATOM     22  C   UNL d   1      47.539  36.069  52.881  0.00  0.00     0.000 A 
ATOM     23  C   UNL d   1      48.097  35.911  53.468  0.00  0.00     0.000 A 
ATOM     24  C   UNL d   1      48.776  35.470  53.294  0.00  0.00     0.005 A 
ENDBRANCH  17  19
ENDBRANCH   1  16
TORSDOF 3
ENDMDL
MODEL 3
REMARK VINA RESULT:      -9.6      1.274      5.481
REMARK  3 active torsions:
REMARK  status: ('A' for Active; 'I' for Inactive)
REMARK    1  A    between atoms: N_5  and  C_1 
REMARK    2  A    between atoms: C_8  and  C_3 
REMARK       I    between atoms: C_7  and  N_5 
REMARK    3  A    between atoms: C_13  and  C_7 
ROOT
ATOM      1  C   UNL d   1      50.337  34.576  52.607  0.00  0.00     0.297 A 
ATOM      2  O   UNL d   1      50.835  34.285  53.200  0.00  0.00    -0.253 OA
ATOM      3  C   UNL d   1      51.482  33.917  52.832  0.00  0.00     0.206 A 
ATOM      4  N   UNL d   1      51.378  33.984  52.019  0.00  0.00    -0.119 NA
ATOM      5  N   UNL d   1      50.671  34.391  51.880  0.00  0.00    -0.101 NA
ENDROOT
BRANCH   3   6
ATOM      6  C   UNL d   1      52.117  33.550  53.224  0.00  0.00     0.043 A 
ATOM      7  C   UNL d   1      52.563  33.979  53.770  0.00  0.00     0.004 A 
ATOM      8  C   UNL d   1      53.188  33.618  54.156  0.00  0.00     0.000 A 
ATOM      9  C   UNL d   1      53.630  34.054  54.702  0.00  0.00     0.000 A 
ATOM     10  C   UNL d   1      53.364  32.831  53.995  0.00  0.00     0.000 A 
ATOM     11  C   UNL d   1      54.254  33.701  55.091  0.00  0.00     0.000 A 
ATOM     12  C   UNL d   1      54.444  32.909  54.938  0.00  0.00     0.000 A 
ATOM     13  C   UNL d   1      54.008  32.466  54.395  0.00  0.00     0.000 A 
ATOM     14  C   UNL d   1      52.935  32.400  53.462  0.00  0.00     0.000 A 
ATOM     15  C   UNL d   1      52.307  32.754  53.070  0.00  0.00     0.004 A 
ENDBRANCH   3   6
BRANCH   1  16
ATOM     16  N   UNL d   1      49.627  34.982  52.734  0.00  0.00    -0.165 NA
ATOM     17  C   UNL d   1      49.042  34.980  52.162  0.00  0.00     0.282 C 
ATOM     18  O   UNL d   1      49.151  34.573  51.447  0.00  0.00    -0.265 OA
BRANCH  17  19
ATOM     19  C   UNL d   1      48.335  35.387  52.292  0.00  0.00     0.058 A 
ATOM     20  C   UNL d   1      47.748  35.366  51.713  0.00  0.00     0.005 A 
ATOM     21  C   UNL d   1      47.037  35.774  51.843  0.00  0.00     0.000 A 
ATOM     22  C   UNL d   1      46.917  36.195  52.542  0.00  0.00     0.000 A 
ATOM     23  C   UNL d   1      47.511  36.210  53.115  0.00  0.00     0.000 A 
ATOM     24  C   UNL d   1      48.223  35.805  52.993  0.00  0.00     0.005 A 
ENDBRANCH  17  19
ENDBRANCH   1  16
TORSDOF 3
ENDMDL
MODEL 4
REMARK VINA RESULT:      -9.5      1.249      1.649
REMARK  3 active torsions:
REMARK  status: ('A' for Active; 'I' for Inactive)
REMARK    1  A    between atoms: N_5  and  C_1 
REMARK    2  A    between atoms: C_8  and  C_3 
REMARK       I    between atoms: C_7  and  N_5 
REMARK    3  A    between atoms: C_13  and  C_7 
ROOT
ATOM      1  C   UNL d   1      51.328  33.872  52.901  0.00  0.00     0.297 A 
ATOM      2  O   UNL d   1      50.613  34.237  53.099  0.00  0.00    -0.253 OA
ATOM      3  C   UNL d   1      50.222  34.432  52.392  0.00  0.00     0.206 A 
ATOM      4  N   UNL d   1      50.699  34.188  51.768  0.00  0.00    -0.119 NA
ATOM      5  N   UNL d   1      51.382  33.842  52.082  0.00  0.00    -0.101 NA
ENDROOT
BRANCH   3   6
ATOM      6  C   UNL d   1      49.483  34.809  52.337  0.00  0.00     0.043 A 
ATOM      7  C   UNL d   1      49.208  35.264  52.968  0.00  0.00     0.004 A 
ATOM      8  C   UNL d   1      48.479  35.634  52.913  0.00  0.00     0.000 A 
ATOM      9  C   UNL d   1      48.210  36.088  53.550  0.00  0.00     0.000 A 
ATOM     10  C   UNL d   1      48.031  35.548  52.230  0.00  0.00     0.000 A 
ATOM     11  C   UNL d   1      47.486  36.460  53.503  0.00  0.00     0.000 A 
ATOM     12  C   UNL d   1      47.023  36.383  52.820  0.00  0.00     0.000 A 
ATOM     13  C   UNL d   1      47.283  35.932  52.180  0.00  0.00     0.000 A 
ATOM     14  C   UNL d   1      48.290  35.105  51.604  0.00  0.00     0.000 A 
ATOM     15  C   UNL d   1      49.018  34.730  51.650  0.00  0.00     0.004 A 
ENDBRANCH   3   6
BRANCH   1  16
ATOM     16  N   UNL d   1      51.888  33.589  53.442  0.00  0.00    -0.165 NA
ATOM     17  C   UNL d   1      52.624  33.942  53.496  0.00  0.00     0.282 C 
ATOM     18  O   UNL d   1      52.822  34.586  53.011  0.00  0.00    -0.265 OA
BRANCH  17  19
ATOM     19  C   UNL d   1      53.180  33.657  54.037  0.00  0.00     0.058 A 
ATOM     20  C   UNL d   1      53.428  34.147  54.652  0.00  0.00     0.005 A 
ATOM     21  C   UNL d   1      53.987  33.862  55.196  0.00  0.00     0.000 A 
ATOM     22  C   UNL d   1      54.290  33.099  55.124  0.00  0.00     0.000 A 
ATOM     23  C   UNL d   1      54.035  32.616  54.505  0.00  0.00     0.000 A 
ATOM     24  C   UNL d   1      53.478  32.893  53.959  0.00  0.00     0.005 A 
ENDBRANCH  17  19
ENDBRANCH   1  16
TORSDOF 3
ENDMDL
