MODEL 1
REMARK VINA RESULT:      31.4      0.000      0.000
REMARK  10 active torsions:
REMARK  status: ('A' for Active; 'I' for Inactive)
REMARK    1  A    between atoms: C_2  and  C_1 
REMARK       I    between atoms: N_3  and  C_1 
REMARK    2  A    between atoms: C_5  and  C_2 
REMARK    3  A    between atoms: C_6  and  N_3 
REMARK    4  A    between atoms: C_4  and  C_5 
REMARK    5  A    between atoms: O_11  and  C_4 
REMARK    6  A    between atoms: N_10  and  C_5 
REMARK    7  A    between atoms: O_13  and  C_9 
REMARK    8  A    between atoms: C_14  and  N_10 
REMARK    9  A    between atoms: N_12  and  C_16 
REMARK   10  A    between atoms: C_16  and  C_14 
ROOT
ATOM      1  C   UNK d   1      59.774  49.678  51.398  0.00  0.00     0.084 C 
ENDROOT
BRANCH   1   2
ATOM      2  C   UNK d   1      59.250  49.686  50.771  0.00  0.00     0.259 C 
ATOM      3  N   UNK d   1      58.438  49.682  50.911  0.00  0.00    -0.320 N 
ATOM      4  H   UNK d   1      58.158  49.669  51.694  0.00  0.00     0.169 HD
ATOM      5  O   UNK d   1      59.538  49.699  49.990  0.00  0.00    -0.267 OA
BRANCH   3   6
ATOM      6  C   UNK d   1      57.911  49.690  50.288  0.00  0.00     0.082 A 
ATOM      7  C   UNK d   1      57.091  49.689  50.447  0.00  0.00     0.110 A 
ATOM      8  C   UNK d   1      56.549  49.698  49.815  0.00  0.00     0.026 A 
ATOM      9  C   UNK d   1      56.844  49.707  49.041  0.00  0.00     0.002 A 
ATOM     10  C   UNK d   1      57.661  49.708  48.888  0.00  0.00     0.002 A 
ATOM     11  C   UNK d   1      58.193  49.700  49.509  0.00  0.00     0.019 A 
BRANCH   7  12
ATOM     12  O   UNK d   1      56.821  49.680  51.224  0.00  0.00    -0.327 OA
ATOM     13  C   UNK d   1      56.126  49.279  51.410  0.00  0.00     0.181 C 
ENDBRANCH   7  12
ENDBRANCH   3   6
ENDBRANCH   1   2
BRANCH   1  14
ATOM     14  C   UNK d   1      60.514  49.335  51.308  0.00  0.00     0.124 C 
BRANCH  14  15
ATOM     15  C   UNK d   1      61.148  49.582  51.785  0.00  0.00     0.194 C 
ATOM     16  O   UNK d   1      61.042  49.708  52.590  0.00  0.00    -0.645 OA
BRANCH  15  17
ATOM     17  O   UNK d   1      61.897  49.707  51.454  0.00  0.00    -0.772 OA
ATOM     18  H   UNK d   1      61.978  50.231  50.828  0.00  0.00     0.167 HD
ENDBRANCH  15  17
ENDBRANCH  14  15
BRANCH  14  19
ATOM     19  N   UNK d   1      60.621  48.754  50.752  0.00  0.00    -0.346 N 
ATOM     20  H   UNK d   1      60.536  48.933  49.951  0.00  0.00     0.166 HD
BRANCH  19  21
ATOM     21  C   UNK d   0      60.814  47.985  50.977  0.00  0.00     0.092 C 
BRANCH  21  22
ATOM     22  C   UNK d   0      61.210  47.482  50.463  0.00  0.00     0.099 C 
BRANCH  22  23
ATOM     23  N   UNK d   0      61.015  46.682  50.445  0.00  0.00    -0.299 N 
ATOM     24  C   UNK d   0      60.227  46.449  50.476  0.00  0.00     0.100 C 
ATOM     25  C   UNK d   0      61.608  46.109  50.396  0.00  0.00     0.100 C 
ENDBRANCH  22  23
ENDBRANCH  21  22
ENDBRANCH  19  21
ENDBRANCH  14  19
ENDBRANCH   1  14
TORSDOF 10
ENDMDL
