MODEL 1
REMARK VINA RESULT:       9.2      0.000      0.000
REMARK  3 active torsions:
REMARK  status: ('A' for Active; 'I' for Inactive)
REMARK    1  A    between atoms: C_8  and  C_2 
REMARK    2  A    between atoms: O_6  and  C_8 
REMARK    3  A    between atoms: C_7  and  O_6 
ROOT
ATOM      1  N   UNL d   1      46.470 -15.550  44.366  0.00  0.00    -0.224 NA
ATOM      2  C   UNL d   1      46.049 -16.254  44.427  0.00  0.00     0.188 A 
ATOM      3  N   UNL d   1      45.282 -16.049  44.648  0.00  0.00    -0.224 NA
ATOM      4  C   UNL d   1      45.980 -14.933  44.545  0.00  0.00     0.101 A 
ATOM      5  C   UNL d   1      45.237 -15.245  44.721  0.00  0.00     0.101 A 
ATOM      6  C   UNL d   1      46.074 -14.130  44.580  0.00  0.00     0.021 A 
ATOM      7  C   UNL d   1      44.616 -14.743  44.926  0.00  0.00     0.021 A 
ATOM      8  C   UNL d   1      44.739 -13.927  44.955  0.00  0.00     0.002 A 
ATOM      9  C   UNL d   1      45.482 -13.615  44.778  0.00  0.00     0.002 A 
ENDROOT
BRANCH   2  10
ATOM     10  C   UNL d   1      45.918 -17.047  44.402  0.00  0.00     0.161 C 
BRANCH  10  11
ATOM     11  O   UNL d   1      46.354 -17.477  43.947  0.00  0.00    -0.302 OA
BRANCH  11  12
ATOM     12  C   UNL d   1      46.380 -18.321  44.044  0.00  0.00     0.100 A 
ATOM     13  C   UNL d   1      46.444 -18.795  43.403  0.00  0.00     0.023 A 
ATOM     14  C   UNL d   1      46.485 -18.480  42.646  0.00  0.00     0.002 C 
ATOM     15  C   UNL d   1      46.469 -19.618  43.509  0.00  0.00     0.002 A 
ATOM     16  C   UNL d   1      46.428 -19.934  44.270  0.00  0.00     0.000 A 
ATOM     17  C   UNL d   1      46.361 -19.440  44.952  0.00  0.00     0.002 A 
ATOM     18  C   UNL d   1      46.338 -18.611  44.816  0.00  0.00     0.025 A 
ENDBRANCH  11  12
ENDBRANCH  10  11
ENDBRANCH   2  10
TORSDOF 3
ENDMDL
MODEL 2
REMARK VINA RESULT:      10.0      0.895      4.367
REMARK  3 active torsions:
REMARK  status: ('A' for Active; 'I' for Inactive)
REMARK    1  A    between atoms: C_8  and  C_2 
REMARK    2  A    between atoms: O_6  and  C_8 
REMARK    3  A    between atoms: C_7  and  O_6 
ROOT
ATOM      1  N   UNL d   1      46.292 -17.893  44.675  0.00  0.00    -0.224 NA
ATOM      2  C   UNL d   1      46.114 -17.208  44.255  0.00  0.00     0.188 A 
ATOM      3  N   UNL d   1      46.104 -17.418  43.459  0.00  0.00    -0.224 NA
ATOM      4  C   UNL d   1      46.389 -18.503  44.155  0.00  0.00     0.101 A 
ATOM      5  C   UNL d   1      46.271 -18.206  43.395  0.00  0.00     0.101 A 
ATOM      6  C   UNL d   1      46.566 -19.289  44.235  0.00  0.00     0.021 A 
ATOM      7  C   UNL d   1      46.334 -18.706  42.742  0.00  0.00     0.021 A 
ATOM      8  C   UNL d   1      46.516 -19.505  42.850  0.00  0.00     0.002 A 
ATOM      9  C   UNL d   1      46.634 -19.801  43.611  0.00  0.00     0.002 A 
ENDROOT
BRANCH   2  10
ATOM     10  C   UNL d   1      45.936 -16.433  44.138  0.00  0.00     0.161 C 
BRANCH  10  11
ATOM     11  O   UNL d   1      45.613 -16.040  44.706  0.00  0.00    -0.302 OA
BRANCH  11  12
ATOM     12  C   UNL d   1      45.600 -15.189  44.693  0.00  0.00     0.100 A 
ATOM     13  C   UNL d   1      44.913 -14.799  44.812  0.00  0.00     0.023 A 
ATOM     14  C   UNL d   1      44.213 -15.206  44.948  0.00  0.00     0.002 C 
ATOM     15  C   UNL d   1      44.911 -13.969  44.796  0.00  0.00     0.002 A 
ATOM     16  C   UNL d   1      45.614 -13.560  44.659  0.00  0.00     0.000 A 
ATOM     17  C   UNL d   1      46.344 -13.967  44.533  0.00  0.00     0.002 A 
ATOM     18  C   UNL d   1      46.317 -14.806  44.553  0.00  0.00     0.025 A 
ENDBRANCH  11  12
ENDBRANCH  10  11
ENDBRANCH   2  10
TORSDOF 3
ENDMDL
