MODEL 1
REMARK VINA RESULT:      25.7      0.000      0.000
REMARK  5 active torsions:
REMARK  status: ('A' for Active; 'I' for Inactive)
REMARK    1  A    between atoms: C_3  and  C_1 
REMARK    2  A    between atoms: C_7  and  C_2 
REMARK       I    between atoms: N_5  and  C_3 
REMARK    3  A    between atoms: C_6  and  N_5 
REMARK    4  A    between atoms: N_10  and  C_6 
REMARK    5  A    between atoms: C_11  and  N_10 
ROOT
ATOM      1  C   UNL d   1      44.617 -15.008  44.647  0.00  0.00     0.103 A 
ATOM      2  C   UNL d   1      44.642 -14.189  44.541  0.00  0.00     0.116 A 
ATOM      3  N   UNL d   1      43.877 -13.903  44.641  0.00  0.00    -0.126 NA
ATOM      4  O   UNL d   1      43.381 -14.541  44.808  0.00  0.00    -0.211 OA
ATOM      5  C   UNL d   1      43.841 -15.210  44.809  0.00  0.00     0.131 A 
ATOM      6  C   UNL d   1      43.571 -15.970  44.951  0.00  0.00     0.029 C 
ENDROOT
BRANCH   1   7
ATOM      7  C   UNL d   1      45.263 -15.506  44.594  0.00  0.00     0.285 C 
ATOM      8  N   UNL d   1      45.227 -16.218  44.195  0.00  0.00    -0.179 NA
ATOM      9  O   UNL d   1      45.973 -15.282  44.955  0.00  0.00    -0.265 OA
BRANCH   8  10
ATOM     10  C   UNL d   1      45.873 -16.715  44.143  0.00  0.00     0.224 C 
ATOM     11  S   UNL d   1      46.324 -16.862  44.820  0.00  0.00    -0.037 SA
BRANCH  10  12
ATOM     12  N   UNL d   1      46.081 -17.071  43.433  0.00  0.00    -0.215 NA
BRANCH  12  13
ATOM     13  C   UNL d   1      46.236 -17.862  43.415  0.00  0.00     0.111 A 
ATOM     14  C   UNL d   1      46.175 -18.278  42.705  0.00  0.00     0.158 A 
ATOM     15  F   UNL d   1      45.957 -17.884  42.014  0.00  0.00    -0.203 F 
ATOM     16  C   UNL d   1      46.334 -19.090  42.686  0.00  0.00     0.031 A 
ATOM     17  C   UNL d   1      46.552 -19.484  43.373  0.00  0.00     0.002 A 
ATOM     18  C   UNL d   1      46.613 -19.067  44.087  0.00  0.00     0.002 A 
ATOM     19  C   UNL d   1      46.455 -18.256  44.105  0.00  0.00     0.021 A 
ENDBRANCH  12  13
ENDBRANCH  10  12
ENDBRANCH   8  10
ENDBRANCH   1   7
BRANCH   2  20
ATOM     20  C   UNL d   1      45.308 -13.741  44.367  0.00  0.00     0.031 A 
ATOM     21  C   UNL d   1      45.321 -13.265  43.699  0.00  0.00     0.059 A 
ATOM     22 CL   UNL d   1      44.667 -13.238  43.205  0.00  0.00    -0.082 Cl
ATOM     23  C   UNL d   1      45.986 -12.822  43.531  0.00  0.00     0.011 A 
ATOM     24  C   UNL d   1      46.647 -12.848  44.029  0.00  0.00     0.001 A 
ATOM     25  C   UNL d   1      46.626 -13.328  44.697  0.00  0.00     0.000 A 
ATOM     26  C   UNL d   1      45.958 -13.781  44.877  0.00  0.00     0.002 A 
ENDBRANCH   2  20
TORSDOF 5
ENDMDL
MODEL 2
REMARK VINA RESULT:      26.0      2.174      4.950
REMARK  5 active torsions:
REMARK  status: ('A' for Active; 'I' for Inactive)
REMARK    1  A    between atoms: C_3  and  C_1 
REMARK    2  A    between atoms: C_7  and  C_2 
REMARK       I    between atoms: N_5  and  C_3 
REMARK    3  A    between atoms: C_6  and  N_5 
REMARK    4  A    between atoms: N_10  and  C_6 
REMARK    5  A    between atoms: C_11  and  N_10 
ROOT
ATOM      1  C   UNL d   1      46.137 -17.895  42.774  0.00  0.00     0.103 A 
ATOM      2  C   UNL d   1      46.345 -18.691  42.844  0.00  0.00     0.116 A 
ATOM      3  N   UNL d   1      46.583 -18.951  42.101  0.00  0.00    -0.126 NA
ATOM      4  O   UNL d   1      46.523 -18.320  41.573  0.00  0.00    -0.211 OA
ATOM      5  C   UNL d   1      46.250 -17.681  41.993  0.00  0.00     0.131 A 
ATOM      6  C   UNL d   1      46.109 -16.936  41.682  0.00  0.00     0.029 C 
ENDROOT
BRANCH   1   7
ATOM      7  C   UNL d   1      45.869 -17.426  43.388  0.00  0.00     0.285 C 
ATOM      8  N   UNL d   1      46.210 -16.705  43.560  0.00  0.00    -0.179 NA
ATOM      9  O   UNL d   1      45.234 -17.690  43.847  0.00  0.00    -0.265 OA
BRANCH   8  10
ATOM     10  C   UNL d   1      45.942 -16.236  44.173  0.00  0.00     0.224 C 
ATOM     11  S   UNL d   1      45.369 -16.537  44.688  0.00  0.00    -0.037 SA
BRANCH  10  12
ATOM     12  N   UNL d   1      46.231 -15.476  44.288  0.00  0.00    -0.215 NA
BRANCH  12  13
ATOM     13  C   UNL d   1      45.733 -14.846  44.213  0.00  0.00     0.111 A 
ATOM     14  C   UNL d   1      45.934 -14.119  44.545  0.00  0.00     0.158 A 
ATOM     15  F   UNL d   1      46.646 -14.037  44.954  0.00  0.00    -0.203 F 
ATOM     16  C   UNL d   1      45.424 -13.473  44.468  0.00  0.00     0.031 A 
ATOM     17  C   UNL d   1      44.715 -13.553  44.061  0.00  0.00     0.002 A 
ATOM     18  C   UNL d   1      44.511 -14.283  43.727  0.00  0.00     0.002 A 
ATOM     19  C   UNL d   1      45.022 -14.929  43.804  0.00  0.00     0.021 A 
ENDBRANCH  12  13
ENDBRANCH  10  12
ENDBRANCH   8  10
ENDBRANCH   1   7
BRANCH   2  20
ATOM     20  C   UNL d   1      46.320 -19.142  43.531  0.00  0.00     0.031 A 
ATOM     21  C   UNL d   1      45.975 -19.886  43.521  0.00  0.00     0.059 A 
ATOM     22 CL   UNL d   1      45.656 -20.179  42.825  0.00  0.00    -0.082 Cl
ATOM     23  C   UNL d   1      45.952 -20.330  44.206  0.00  0.00     0.011 A 
ATOM     24  C   UNL d   1      46.274 -20.036  44.910  0.00  0.00     0.001 A 
ATOM     25  C   UNL d   1      46.618 -19.289  44.911  0.00  0.00     0.000 A 
ATOM     26  C   UNL d   1      46.647 -18.831  44.224  0.00  0.00     0.002 A 
ENDBRANCH   2  20
TORSDOF 5
ENDMDL
MODEL 3
REMARK VINA RESULT:      27.3      2.261      4.887
REMARK  5 active torsions:
REMARK  status: ('A' for Active; 'I' for Inactive)
REMARK    1  A    between atoms: C_3  and  C_1 
REMARK    2  A    between atoms: C_7  and  C_2 
REMARK       I    between atoms: N_5  and  C_3 
REMARK    3  A    between atoms: C_6  and  N_5 
REMARK    4  A    between atoms: N_10  and  C_6 
REMARK    5  A    between atoms: C_11  and  N_10 
ROOT
ATOM      1  C   UNL d   1      46.316 -18.667  43.526  0.00  0.00     0.103 A 
ATOM      2  C   UNL d   1      46.452 -19.149  42.868  0.00  0.00     0.116 A 
ATOM      3  N   UNL d   1      46.510 -19.924  43.136  0.00  0.00    -0.126 NA
ATOM      4  O   UNL d   1      46.411 -19.924  43.956  0.00  0.00    -0.211 OA
ATOM      5  C   UNL d   1      46.294 -19.153  44.183  0.00  0.00     0.131 A 
ATOM      6  C   UNL d   1      46.172 -18.901  44.953  0.00  0.00     0.029 C 
ENDROOT
BRANCH   1   7
ATOM      7  C   UNL d   1      46.225 -17.856  43.500  0.00  0.00     0.285 C 
ATOM      8  N   UNL d   1      46.241 -17.398  44.176  0.00  0.00    -0.179 NA
ATOM      9  O   UNL d   1      46.112 -17.487  42.768  0.00  0.00    -0.265 OA
BRANCH   8  10
ATOM     10  C   UNL d   1      46.150 -16.587  44.150  0.00  0.00     0.224 C 
ATOM     11  S   UNL d   1      46.255 -16.194  43.431  0.00  0.00    -0.037 SA
BRANCH  10  12
ATOM     12  N   UNL d   1      45.956 -16.157  44.822  0.00  0.00    -0.215 NA
BRANCH  12  13
ATOM     13  C   UNL d   1      45.692 -15.400  44.747  0.00  0.00     0.111 A 
ATOM     14  C   UNL d   1      44.882 -15.242  44.756  0.00  0.00     0.158 A 
ATOM     15  F   UNL d   1      44.344 -15.861  44.842  0.00  0.00    -0.203 F 
ATOM     16  C   UNL d   1      44.611 -14.465  44.679  0.00  0.00     0.031 A 
ATOM     17  C   UNL d   1      45.145 -13.847  44.594  0.00  0.00     0.002 A 
ATOM     18  C   UNL d   1      45.959 -14.003  44.585  0.00  0.00     0.002 A 
ATOM     19  C   UNL d   1      46.230 -14.781  44.662  0.00  0.00     0.021 A 
ENDBRANCH  12  13
ENDBRANCH  10  12
ENDBRANCH   8  10
ENDBRANCH   1   7
BRANCH   2  20
ATOM     20  C   UNL d   1      46.517 -18.900  42.088  0.00  0.00     0.031 A 
ATOM     21  C   UNL d   1      46.583 -19.451  41.484  0.00  0.00     0.059 A 
ATOM     22 CL   UNL d   1      46.584 -20.252  41.661  0.00  0.00    -0.082 Cl
ATOM     23  C   UNL d   1      46.647 -19.198  40.711  0.00  0.00     0.011 A 
ATOM     24  C   UNL d   1      46.646 -18.390  40.530  0.00  0.00     0.001 A 
ATOM     25  C   UNL d   1      46.579 -17.844  41.141  0.00  0.00     0.000 A 
ATOM     26  C   UNL d   1      46.513 -18.089  41.928  0.00  0.00     0.002 A 
ENDBRANCH   2  20
TORSDOF 5
ENDMDL
