MODEL 1
REMARK VINA RESULT:      39.2      0.000      0.000
REMARK  4 active torsions:
REMARK  status: ('A' for Active; 'I' for Inactive)
REMARK    1  A    between atoms: C_14  and  C_2 
REMARK    2  A    between atoms: C_4  and  C_5 
REMARK    3  A    between atoms: C_5  and  O_9 
REMARK    4  A    between atoms: O_9  and  C_14 
ROOT
ATOM      1  N   UNL d   1     -52.144  25.677  33.316  0.00  0.00    -0.236 NA
ATOM      2  C   UNL d   1     -51.356  25.888  33.310  0.00  0.00     0.136 A 
ATOM      3  S   UNL d   1     -50.897  25.191  33.306  0.00  0.00    -0.064 SA
ATOM      4  C   UNL d   1     -52.183  24.850  33.315  0.00  0.00     0.088 A 
ATOM      5  C   UNL d   1     -51.422  24.551  33.309  0.00  0.00     0.049 A 
ATOM      6  C   UNL d   1     -52.828  24.335  33.320  0.00  0.00     0.020 A 
ATOM      7  C   UNL d   1     -51.305  23.732  33.308  0.00  0.00     0.008 A 
ATOM      8  C   UNL d   1     -51.950  23.209  33.313  0.00  0.00     0.001 A 
ATOM      9  C   UNL d   1     -52.712  23.511  33.319  0.00  0.00     0.002 A 
ENDROOT
BRANCH   2  10
ATOM     10  C   UNL d   1     -51.035  26.638  33.307  0.00  0.00     0.152 C 
BRANCH  10  11
ATOM     11  O   UNL d   1     -50.365  26.776  33.790  0.00  0.00    -0.269 OA
BRANCH  11  12
ATOM     12  C   UNL d   1     -50.017  27.542  33.812  0.00  0.00     0.306 C 
ATOM     13  O   UNL d   1     -50.365  28.163  33.387  0.00  0.00    -0.258 OA
BRANCH  12  14
ATOM     14  C   UNL d   1     -49.311  27.685  34.264  0.00  0.00     0.093 A 
ATOM     15  S   UNL d   1     -48.612  27.259  34.324  0.00  0.00    -0.081 SA
ATOM     16  C   UNL d   1     -48.124  27.672  34.850  0.00  0.00     0.036 A 
ATOM     17  C   UNL d   1     -48.517  28.330  35.101  0.00  0.00     0.008 A 
ATOM     18  C   UNL d   1     -49.256  28.348  34.743  0.00  0.00     0.012 A 
ENDBRANCH  12  14
ENDBRANCH  11  12
ENDBRANCH  10  11
ENDBRANCH   2  10
TORSDOF 4
ENDMDL
