MODEL 1
REMARK VINA RESULT:      -3.0      0.000      0.000
REMARK  3 active torsions:
REMARK  status: ('A' for Active; 'I' for Inactive)
REMARK    1  A    between atoms: O_3  and  C_1 
REMARK    2  A    between atoms: C_4  and  O_3 
REMARK    3  A    between atoms: C_8  and  C_4 
ROOT
ATOM      1  C   UNL d   1      30.681  16.629 -24.077  0.00  0.00     0.131 A 
ATOM      2  C   UNL d   1      29.919  16.939 -24.153  0.00  0.00     0.106 A 
ATOM      3  C   UNL d   1      29.273  16.550 -23.819  0.00  0.00     0.030 A 
ATOM      4  C   UNL d   1      30.797  15.920 -23.662  0.00  0.00     0.083 A 
ATOM      5  C   UNL d   1      29.389  15.842 -23.404  0.00  0.00     0.060 A 
ATOM      6  C   UNL d   1      30.145  15.528 -23.325  0.00  0.00     0.025 A 
ATOM      7  N   UNL d   1      29.805  17.645 -24.567  0.00  0.00    -0.242 NA
ATOM      8 CL   UNL d   1      31.549  15.600 -23.578  0.00  0.00    -0.080 Cl
ATOM      9 CL   UNL d   1      28.744  15.453 -23.070  0.00  0.00    -0.082 Cl
ATOM     10  C   UNL d   1      28.523  16.858 -23.895  0.00  0.00     0.004 A 
ATOM     11  C   UNL d   1      29.050  17.958 -24.646  0.00  0.00     0.099 A 
ATOM     12  C   UNL d   1      28.404  17.565 -24.309  0.00  0.00     0.021 A 
ENDROOT
BRANCH   1  13
ATOM     13  O   UNL d   1      31.325  17.008 -24.405  0.00  0.00    -0.269 OA
BRANCH  13  14
ATOM     14  C   UNL d   1      31.861  17.412 -23.926  0.00  0.00     0.323 C 
ATOM     15  O   UNL d   1      31.863  17.275 -23.115  0.00  0.00    -0.257 OA
BRANCH  14  16
ATOM     16  C   UNL d   1      32.392  17.949 -24.253  0.00  0.00     0.163 A 
ATOM     17  O   UNL d   1      32.760  17.884 -24.994  0.00  0.00    -0.300 OA
ATOM     18  C   UNL d   1      33.240  18.535 -25.097  0.00  0.00     0.123 A 
ATOM     19  C   UNL d   1      33.176  19.016 -24.415  0.00  0.00     0.029 A 
ATOM     20  C   UNL d   1      32.650  18.645 -23.902  0.00  0.00     0.032 A 
ENDBRANCH  14  16
ENDBRANCH  13  14
ENDBRANCH   1  13
TORSDOF 3
ENDMDL
MODEL 2
REMARK VINA RESULT:      -2.6      4.193      5.443
REMARK  3 active torsions:
REMARK  status: ('A' for Active; 'I' for Inactive)
REMARK    1  A    between atoms: O_3  and  C_1 
REMARK    2  A    between atoms: C_4  and  O_3 
REMARK    3  A    between atoms: C_8  and  C_4 
ROOT
ATOM      1  C   UNL d   1      33.235  20.664 -22.110  0.00  0.00     0.131 A 
ATOM      2  C   UNL d   1      33.236  20.599 -22.934  0.00  0.00     0.106 A 
ATOM      3  C   UNL d   1      33.238  19.859 -23.295  0.00  0.00     0.030 A 
ATOM      4  C   UNL d   1      33.235  19.978 -21.643  0.00  0.00     0.083 A 
ATOM      5  C   UNL d   1      33.238  19.173 -22.829  0.00  0.00     0.060 A 
ATOM      6  C   UNL d   1      33.236  19.231 -22.008  0.00  0.00     0.025 A 
ATOM      7  N   UNL d   1      33.236  21.284 -23.396  0.00  0.00    -0.242 NA
ATOM      8 CL   UNL d   1      33.233  20.027 -20.823  0.00  0.00    -0.080 Cl
ATOM      9 CL   UNL d   1      33.239  18.432 -23.190  0.00  0.00    -0.082 Cl
ATOM     10  C   UNL d   1      33.239  19.797 -24.108  0.00  0.00     0.004 A 
ATOM     11  C   UNL d   1      33.238  21.226 -24.216  0.00  0.00     0.099 A 
ATOM     12  C   UNL d   1      33.239  20.480 -24.576  0.00  0.00     0.021 A 
ENDROOT
BRANCH   1  13
ATOM     13  O   UNL d   1      33.233  21.394 -21.744  0.00  0.00    -0.269 OA
BRANCH  13  14
ATOM     14  C   UNL d   1      32.569  21.652 -21.329  0.00  0.00     0.323 C 
ATOM     15  O   UNL d   1      31.938  21.138 -21.213  0.00  0.00    -0.257 OA
BRANCH  14  16
ATOM     16  C   UNL d   1      32.535  22.418 -21.030  0.00  0.00     0.163 A 
ATOM     17  O   UNL d   1      32.959  22.709 -20.379  0.00  0.00    -0.300 OA
ATOM     18  C   UNL d   1      32.760  23.493 -20.276  0.00  0.00     0.123 A 
ATOM     19  C   UNL d   1      32.205  23.700 -20.867  0.00  0.00     0.029 A 
ATOM     20  C   UNL d   1      32.073  23.030 -21.327  0.00  0.00     0.032 A 
ENDBRANCH  14  16
ENDBRANCH  13  14
ENDBRANCH   1  13
TORSDOF 3
ENDMDL
MODEL 3
REMARK VINA RESULT:      -2.3      1.728      3.875
REMARK  3 active torsions:
REMARK  status: ('A' for Active; 'I' for Inactive)
REMARK    1  A    between atoms: O_3  and  C_1 
REMARK    2  A    between atoms: C_4  and  O_3 
REMARK    3  A    between atoms: C_8  and  C_4 
ROOT
ATOM      1  C   UNL d   1      31.129  16.872 -24.362  0.00  0.00     0.131 A 
ATOM      2  C   UNL d   1      31.776  16.553 -23.958  0.00  0.00     0.106 A 
ATOM      3  C   UNL d   1      32.474  16.983 -23.880  0.00  0.00     0.030 A 
ATOM      4  C   UNL d   1      31.184  17.631 -24.691  0.00  0.00     0.083 A 
ATOM      5  C   UNL d   1      32.530  17.742 -24.209  0.00  0.00     0.060 A 
ATOM      6  C   UNL d   1      31.890  18.065 -24.612  0.00  0.00     0.025 A 
ATOM      7  N   UNL d   1      31.719  15.796 -23.630  0.00  0.00    -0.242 NA
ATOM      8 CL   UNL d   1      30.549  17.961 -25.096  0.00  0.00    -0.080 Cl
ATOM      9 CL   UNL d   1      33.228  18.172 -24.131  0.00  0.00    -0.082 Cl
ATOM     10  C   UNL d   1      33.111  16.666 -23.481  0.00  0.00     0.004 A 
ATOM     11  C   UNL d   1      32.358  15.474 -23.227  0.00  0.00     0.099 A 
ATOM     12  C   UNL d   1      33.059  15.909 -23.151  0.00  0.00     0.021 A 
ENDROOT
BRANCH   1  13
ATOM     13  O   UNL d   1      30.434  16.452 -24.443  0.00  0.00    -0.269 OA
BRANCH  13  14
ATOM     14  C   UNL d   1      29.760  16.673 -24.021  0.00  0.00     0.323 C 
ATOM     15  O   UNL d   1      29.759  17.379 -23.600  0.00  0.00    -0.257 OA
BRANCH  14  16
ATOM     16  C   UNL d   1      29.092  16.192 -24.020  0.00  0.00     0.163 A 
ATOM     17  O   UNL d   1      28.695  15.905 -24.689  0.00  0.00    -0.300 OA
ATOM     18  C   UNL d   1      28.065  15.453 -24.436  0.00  0.00     0.123 A 
ATOM     19  C   UNL d   1      28.064  15.454 -23.599  0.00  0.00     0.029 A 
ATOM     20  C   UNL d   1      28.702  15.913 -23.353  0.00  0.00     0.032 A 
ENDBRANCH  14  16
ENDBRANCH  13  14
ENDBRANCH   1  13
TORSDOF 3
ENDMDL
MODEL 4
REMARK VINA RESULT:      -2.3      2.670      4.484
REMARK  3 active torsions:
REMARK  status: ('A' for Active; 'I' for Inactive)
REMARK    1  A    between atoms: O_3  and  C_1 
REMARK    2  A    between atoms: C_4  and  O_3 
REMARK    3  A    between atoms: C_8  and  C_4 
ROOT
ATOM      1  C   UNL d   1      33.232  19.098 -23.542  0.00  0.00     0.131 A 
ATOM      2  C   UNL d   1      33.229  19.559 -22.856  0.00  0.00     0.106 A 
ATOM      3  C   UNL d   1      33.230  20.381 -22.905  0.00  0.00     0.030 A 
ATOM      4  C   UNL d   1      33.235  19.466 -24.285  0.00  0.00     0.083 A 
ATOM      5  C   UNL d   1      33.233  20.750 -23.648  0.00  0.00     0.060 A 
ATOM      6  C   UNL d   1      33.236  20.297 -24.334  0.00  0.00     0.025 A 
ATOM      7  N   UNL d   1      33.226  19.190 -22.117  0.00  0.00    -0.242 NA
ATOM      8 CL   UNL d   1      33.238  19.021 -24.976  0.00  0.00    -0.080 Cl
ATOM      9 CL   UNL d   1      33.234  21.573 -23.696  0.00  0.00    -0.082 Cl
ATOM     10  C   UNL d   1      33.227  20.834 -22.227  0.00  0.00     0.004 A 
ATOM     11  C   UNL d   1      33.224  19.643 -21.432  0.00  0.00     0.099 A 
ATOM     12  C   UNL d   1      33.224  20.469 -21.484  0.00  0.00     0.021 A 
ENDROOT
BRANCH   1  13
ATOM     13  O   UNL d   1      33.232  18.283 -23.502  0.00  0.00    -0.269 OA
BRANCH  13  14
ATOM     14  C   UNL d   1      32.562  17.854 -23.722  0.00  0.00     0.323 C 
ATOM     15  O   UNL d   1      31.913  18.248 -24.037  0.00  0.00    -0.257 OA
BRANCH  14  16
ATOM     16  C   UNL d   1      32.542  17.036 -23.629  0.00  0.00     0.163 A 
ATOM     17  O   UNL d   1      33.195  16.540 -23.510  0.00  0.00    -0.300 OA
ATOM     18  C   UNL d   1      32.924  15.773 -23.446  0.00  0.00     0.123 A 
ATOM     19  C   UNL d   1      32.091  15.785 -23.527  0.00  0.00     0.029 A 
ATOM     20  C   UNL d   1      31.866  16.568 -23.639  0.00  0.00     0.032 A 
ENDBRANCH  14  16
ENDBRANCH  13  14
ENDBRANCH   1  13
TORSDOF 3
ENDMDL
MODEL 5
REMARK VINA RESULT:      -1.9      4.309      5.826
REMARK  3 active torsions:
REMARK  status: ('A' for Active; 'I' for Inactive)
REMARK    1  A    between atoms: O_3  and  C_1 
REMARK    2  A    between atoms: C_4  and  O_3 
REMARK    3  A    between atoms: C_8  and  C_4 
ROOT
ATOM      1  C   UNL d   1      33.050  21.370 -21.595  0.00  0.00     0.131 A 
ATOM      2  C   UNL d   1      32.918  22.119 -21.920  0.00  0.00     0.106 A 
ATOM      3  C   UNL d   1      32.726  22.758 -21.436  0.00  0.00     0.030 A 
ATOM      4  C   UNL d   1      32.988  21.262 -20.775  0.00  0.00     0.083 A 
ATOM      5  C   UNL d   1      32.665  22.649 -20.616  0.00  0.00     0.060 A 
ATOM      6  C   UNL d   1      32.794  21.907 -20.286  0.00  0.00     0.025 A 
ATOM      7  N   UNL d   1      32.980  22.225 -22.737  0.00  0.00    -0.242 NA
ATOM      8 CL   UNL d   1      33.116  20.523 -20.437  0.00  0.00    -0.080 Cl
ATOM      9 CL   UNL d   1      32.473  23.288 -20.132  0.00  0.00    -0.082 Cl
ATOM     10  C   UNL d   1      32.597  23.495 -21.758  0.00  0.00     0.004 A 
ATOM     11  C   UNL d   1      32.850  22.967 -23.066  0.00  0.00     0.099 A 
ATOM     12  C   UNL d   1      32.658  23.606 -22.576  0.00  0.00     0.021 A 
ENDROOT
BRANCH   1  13
ATOM     13  O   UNL d   1      33.240  20.733 -22.068  0.00  0.00    -0.269 OA
BRANCH  13  14
ATOM     14  C   UNL d   1      32.680  20.149 -22.227  0.00  0.00     0.323 C 
ATOM     15  O   UNL d   1      31.902  20.257 -21.986  0.00  0.00    -0.257 OA
BRANCH  14  16
ATOM     16  C   UNL d   1      32.897  19.460 -22.623  0.00  0.00     0.163 A 
ATOM     17  O   UNL d   1      33.037  18.720 -22.277  0.00  0.00    -0.300 OA
ATOM     18  C   UNL d   1      33.237  18.196 -22.870  0.00  0.00     0.123 A 
ATOM     19  C   UNL d   1      33.223  18.610 -23.597  0.00  0.00     0.029 A 
ATOM     20  C   UNL d   1      33.012  19.388 -23.433  0.00  0.00     0.032 A 
ENDBRANCH  14  16
ENDBRANCH  13  14
ENDBRANCH   1  13
TORSDOF 3
ENDMDL
MODEL 6
REMARK VINA RESULT:      -0.2      3.319      4.499
REMARK  3 active torsions:
REMARK  status: ('A' for Active; 'I' for Inactive)
REMARK    1  A    between atoms: O_3  and  C_1 
REMARK    2  A    between atoms: C_4  and  O_3 
REMARK    3  A    between atoms: C_8  and  C_4 
ROOT
ATOM      1  C   UNL d   1      33.159  19.552 -23.174  0.00  0.00     0.131 A 
ATOM      2  C   UNL d   1      33.156  18.734 -23.054  0.00  0.00     0.106 A 
ATOM      3  C   UNL d   1      33.074  18.219 -23.692  0.00  0.00     0.030 A 
ATOM      4  C   UNL d   1      33.078  19.856 -23.942  0.00  0.00     0.083 A 
ATOM      5  C   UNL d   1      32.993  18.522 -24.460  0.00  0.00     0.060 A 
ATOM      6  C   UNL d   1      32.995  19.335 -24.585  0.00  0.00     0.025 A 
ATOM      7  N   UNL d   1      33.237  18.434 -22.289  0.00  0.00    -0.242 NA
ATOM      8 CL   UNL d   1      33.080  20.667 -24.076  0.00  0.00    -0.080 Cl
ATOM      9 CL   UNL d   1      32.910  18.006 -25.097  0.00  0.00    -0.082 Cl
ATOM     10  C   UNL d   1      33.071  17.413 -23.572  0.00  0.00     0.004 A 
ATOM     11  C   UNL d   1      33.235  17.622 -22.164  0.00  0.00     0.099 A 
ATOM     12  C   UNL d   1      33.152  17.107 -22.807  0.00  0.00     0.021 A 
ENDROOT
BRANCH   1  13
ATOM     13  O   UNL d   1      33.241  20.069 -22.548  0.00  0.00    -0.269 OA
BRANCH  13  14
ATOM     14  C   UNL d   1      32.588  20.482 -22.259  0.00  0.00     0.323 C 
ATOM     15  O   UNL d   1      31.833  20.276 -22.511  0.00  0.00    -0.257 OA
BRANCH  14  16
ATOM     16  C   UNL d   1      32.688  21.098 -21.722  0.00  0.00     0.163 A 
ATOM     17  O   UNL d   1      32.896  21.879 -21.906  0.00  0.00    -0.300 OA
ATOM     18  C   UNL d   1      32.934  22.303 -21.209  0.00  0.00     0.123 A 
ATOM     19  C   UNL d   1      32.748  21.784 -20.579  0.00  0.00     0.029 A 
ATOM     20  C   UNL d   1      32.598  21.044 -20.907  0.00  0.00     0.032 A 
ENDBRANCH  14  16
ENDBRANCH  13  14
ENDBRANCH   1  13
TORSDOF 3
ENDMDL
