MODEL 1
REMARK VINA RESULT:      70.0      0.000      0.000
REMARK  3 active torsions:
REMARK  status: ('A' for Active; 'I' for Inactive)
REMARK    1  A    between atoms: C_2  and  C_1 
REMARK    2  A    between atoms: C_14  and  O_17 
REMARK    3  A    between atoms: O_17  and  C_16 
ROOT
ATOM      1  C   UNL d   1     -49.831  27.424  33.866  0.00  0.00     0.087 A 
ATOM      2  C   UNL d   1     -49.344  27.452  34.536  0.00  0.00     0.201 A 
ATOM      3  C   UNL d   1     -48.827  28.081  34.664  0.00  0.00     0.062 A 
ATOM      4  C   UNL d   1     -49.793  28.043  33.318  0.00  0.00     0.128 A 
ATOM      5  C   UNL d   1     -48.789  28.705  34.113  0.00  0.00     0.105 A 
ATOM      6  O   UNL d   1     -49.269  28.688  33.443  0.00  0.00    -0.305 OA
ATOM      7  C   UNL d   1     -48.272  29.334  34.243  0.00  0.00     0.050 A 
ATOM      8  C   UNL d   1     -48.343  28.111  35.328  0.00  0.00     0.007 A 
ATOM      9  O   UNL d   1     -49.372  26.838  35.091  0.00  0.00    -0.286 OA
ATOM     10  C   UNL d   1     -47.798  29.347  34.908  0.00  0.00     0.105 A 
ATOM     11  C   UNL d   1     -47.836  28.723  35.459  0.00  0.00     0.025 A 
ENDROOT
BRANCH   1  12
ATOM     12  C   UNL d   1     -50.342  26.799  33.741  0.00  0.00     0.116 A 
ATOM     13  N   UNL d   1     -50.125  26.009  33.628  0.00  0.00    -0.238 NA
ATOM     14  C   UNL d   1     -50.819  25.575  33.524  0.00  0.00     0.088 A 
ATOM     15  C   UNL d   1     -50.943  24.776  33.392  0.00  0.00     0.020 A 
ATOM     16  C   UNL d   1     -51.459  26.085  33.572  0.00  0.00     0.049 A 
ATOM     17  C   UNL d   1     -51.709  24.475  33.306  0.00  0.00     0.002 A 
ATOM     18  C   UNL d   1     -52.353  25.001  33.356  0.00  0.00     0.001 A 
ATOM     19  C   UNL d   1     -52.229  25.800  33.488  0.00  0.00     0.008 A 
ATOM     20  S   UNL d   1     -51.176  26.859  33.709  0.00  0.00    -0.066 SA
ENDBRANCH   1  12
BRANCH  10  21
ATOM     21  O   UNL d   1     -47.280  29.987  35.028  0.00  0.00    -0.273 OA
BRANCH  21  22
ATOM     22  C   UNL d   1     -47.561  30.705  35.315  0.00  0.00     0.300 C 
ATOM     23  O   UNL d   1     -47.440  30.919  36.103  0.00  0.00    -0.259 OA
ATOM     24  C   UNL d   1     -47.972  31.227  34.810  0.00  0.00     0.074 C 
ENDBRANCH  21  22
ENDBRANCH  10  21
TORSDOF 3
ENDMDL
MODEL 2
REMARK VINA RESULT:      73.0      1.752      5.126
REMARK  3 active torsions:
REMARK  status: ('A' for Active; 'I' for Inactive)
REMARK    1  A    between atoms: C_2  and  C_1 
REMARK    2  A    between atoms: C_14  and  O_17 
REMARK    3  A    between atoms: O_17  and  C_16 
ROOT
ATOM      1  C   UNL d   1     -49.048  27.583  34.352  0.00  0.00     0.087 A 
ATOM      2  C   UNL d   1     -49.749  27.318  34.705  0.00  0.00     0.201 A 
ATOM      3  C   UNL d   1     -50.193  26.706  34.373  0.00  0.00     0.062 A 
ATOM      4  C   UNL d   1     -48.793  27.223  33.651  0.00  0.00     0.128 A 
ATOM      5  C   UNL d   1     -49.936  26.344  33.669  0.00  0.00     0.105 A 
ATOM      6  O   UNL d   1     -49.240  26.599  33.307  0.00  0.00    -0.305 OA
ATOM      7  C   UNL d   1     -50.380  25.733  33.337  0.00  0.00     0.050 A 
ATOM      8  C   UNL d   1     -50.888  26.442  34.723  0.00  0.00     0.007 A 
ATOM      9  O   UNL d   1     -50.015  27.669  35.406  0.00  0.00    -0.286 OA
ATOM     10  C   UNL d   1     -51.069  25.484  33.698  0.00  0.00     0.105 A 
ATOM     11  C   UNL d   1     -51.326  25.846  34.403  0.00  0.00     0.025 A 
ENDROOT
BRANCH   1  12
ATOM     12  C   UNL d   1     -48.611  28.188  34.683  0.00  0.00     0.116 A 
ATOM     13  N   UNL d   1     -48.771  28.996  34.615  0.00  0.00    -0.238 NA
ATOM     14  C   UNL d   1     -48.188  29.400  35.037  0.00  0.00     0.088 A 
ATOM     15  C   UNL d   1     -48.066  30.200  35.162  0.00  0.00     0.020 A 
ATOM     16  C   UNL d   1     -47.671  28.852  35.362  0.00  0.00     0.049 A 
ATOM     17  C   UNL d   1     -47.426  30.466  35.615  0.00  0.00     0.002 A 
ATOM     18  C   UNL d   1     -46.907  29.902  35.940  0.00  0.00     0.001 A 
ATOM     19  C   UNL d   1     -47.029  29.102  35.815  0.00  0.00     0.008 A 
ATOM     20  S   UNL d   1     -47.924  28.085  35.148  0.00  0.00    -0.066 SA
ENDBRANCH   1  12
BRANCH  10  21
ATOM     21  O   UNL d   1     -51.509  24.866  33.355  0.00  0.00    -0.273 OA
BRANCH  21  22
ATOM     22  C   UNL d   1     -51.272  24.083  33.443  0.00  0.00     0.300 C 
ATOM     23  O   UNL d   1     -50.498  23.901  33.667  0.00  0.00    -0.259 OA
ATOM     24  C   UNL d   1     -51.812  23.463  33.306  0.00  0.00     0.074 C 
ENDBRANCH  21  22
ENDBRANCH  10  21
TORSDOF 3
ENDMDL
