MODEL 1
REMARK VINA RESULT:      55.4      0.000      0.000
REMARK  4 active torsions:
REMARK  status: ('A' for Active; 'I' for Inactive)
REMARK    1  A    between atoms: S_2  and  N_1 
REMARK    2  A    between atoms: N_6  and  S_2 
REMARK    3  A    between atoms: C_10  and  C_3 
REMARK    4  A    between atoms: C_11  and  C_10 
ROOT
ATOM      1  N   UNL d   1      44.797 -15.936  37.412  0.00  0.00    -0.201 N 
ATOM      2  C   UNL d   1      44.124 -16.230  37.008  0.00  0.00     0.158 A 
ATOM      3  N   UNL d   1      43.913 -16.950  37.362  0.00  0.00    -0.226 NA
ATOM      4  C   UNL d   1      44.986 -16.475  38.003  0.00  0.00     0.095 A 
ATOM      5  C   UNL d   1      44.445 -17.099  37.974  0.00  0.00     0.100 A 
ATOM      6  C   UNL d   1      45.589 -16.473  38.564  0.00  0.00     0.020 A 
ATOM      7  C   UNL d   1      44.511 -17.720  38.512  0.00  0.00     0.021 A 
ATOM      8  C   UNL d   1      45.656 -17.093  39.103  0.00  0.00     0.002 A 
ATOM      9  C   UNL d   1      45.115 -17.721  39.078  0.00  0.00     0.002 A 
ENDROOT
BRANCH   1  10
ATOM     10  S   UNL d   1      45.190 -15.240  37.247  0.00  0.00     0.338 S 
ATOM     11  O   UNL d   1      45.103 -14.996  38.028  0.00  0.00    -0.181 OA
ATOM     12  O   UNL d   1      45.279 -15.483  36.464  0.00  0.00    -0.181 OA
BRANCH  10  13
ATOM     13  N   UNL d   1      45.588 -14.542  37.067  0.00  0.00    -0.216 N 
ATOM     14  C   UNL d   1      46.247 -14.560  36.572  0.00  0.00     0.093 A 
ATOM     15  C   UNL d   1      46.643 -13.865  36.393  0.00  0.00     0.020 A 
ATOM     16  C   UNL d   1      46.392 -13.151  36.701  0.00  0.00     0.003 A 
ATOM     17  C   UNL d   1      45.733 -13.124  37.198  0.00  0.00     0.020 A 
ATOM     18  C   UNL d   1      45.328 -13.828  37.382  0.00  0.00     0.093 A 
ENDBRANCH  10  13
ENDBRANCH   1  10
BRANCH   2  19
ATOM     19  C   UNL d   1      43.743 -15.864  36.371  0.00  0.00     0.038 C 
BRANCH  19  20
ATOM     20  C   UNL d   1      42.925 -15.780  36.384  0.00  0.00     0.003 A 
ATOM     21  C   UNL d   1      42.595 -15.022  36.426  0.00  0.00     0.000 A 
ATOM     22  C   UNL d   1      41.777 -14.937  36.439  0.00  0.00     0.000 A 
ATOM     23  C   UNL d   1      41.290 -15.593  36.410  0.00  0.00     0.000 A 
ATOM     24  C   UNL d   1      41.622 -16.354  36.368  0.00  0.00     0.000 A 
ATOM     25  C   UNL d   1      42.443 -16.442  36.355  0.00  0.00     0.000 A 
ENDBRANCH  19  20
ENDBRANCH   2  19
TORSDOF 4
ENDMDL
MODEL 2
REMARK VINA RESULT:      56.5      0.965      2.905
REMARK  4 active torsions:
REMARK  status: ('A' for Active; 'I' for Inactive)
REMARK    1  A    between atoms: S_2  and  N_1 
REMARK    2  A    between atoms: N_6  and  S_2 
REMARK    3  A    between atoms: C_10  and  C_3 
REMARK    4  A    between atoms: C_11  and  C_10 
ROOT
ATOM      1  N   UNL d   1      44.891 -15.845  37.467  0.00  0.00    -0.201 N 
ATOM      2  C   UNL d   1      44.331 -15.797  36.844  0.00  0.00     0.158 A 
ATOM      3  N   UNL d   1      44.578 -15.195  36.330  0.00  0.00    -0.226 NA
ATOM      4  C   UNL d   1      45.467 -15.277  37.325  0.00  0.00     0.095 A 
ATOM      5  C   UNL d   1      45.277 -14.877  36.628  0.00  0.00     0.100 A 
ATOM      6  C   UNL d   1      46.144 -15.076  37.750  0.00  0.00     0.020 A 
ATOM      7  C   UNL d   1      45.771 -14.273  36.358  0.00  0.00     0.021 A 
ATOM      8  C   UNL d   1      46.637 -14.473  37.481  0.00  0.00     0.002 A 
ATOM      9  C   UNL d   1      46.451 -14.068  36.781  0.00  0.00     0.002 A 
ENDROOT
BRANCH   1  10
ATOM     10  S   UNL d   1      44.865 -16.363  38.097  0.00  0.00     0.338 S 
ATOM     11  O   UNL d   1      44.327 -15.876  38.485  0.00  0.00    -0.181 OA
ATOM     12  O   UNL d   1      45.403 -16.852  37.710  0.00  0.00    -0.181 OA
BRANCH  10  13
ATOM     13  N   UNL d   1      44.847 -16.893  38.726  0.00  0.00    -0.216 N 
ATOM     14  C   UNL d   1      44.218 -16.879  39.259  0.00  0.00     0.093 A 
ATOM     15  C   UNL d   1      44.200 -17.406  39.886  0.00  0.00     0.020 A 
ATOM     16  C   UNL d   1      44.801 -17.951  39.989  0.00  0.00     0.003 A 
ATOM     17  C   UNL d   1      45.434 -17.973  39.460  0.00  0.00     0.020 A 
ATOM     18  C   UNL d   1      45.456 -17.438  38.823  0.00  0.00     0.093 A 
ENDBRANCH  10  13
ENDBRANCH   1  10
BRANCH   2  19
ATOM     19  C   UNL d   1      43.655 -16.268  36.763  0.00  0.00     0.038 C 
BRANCH  19  20
ATOM     20  C   UNL d   1      42.926 -15.910  36.634  0.00  0.00     0.003 A 
ATOM     21  C   UNL d   1      42.863 -15.087  36.681  0.00  0.00     0.000 A 
ATOM     22  C   UNL d   1      42.135 -14.728  36.552  0.00  0.00     0.000 A 
ATOM     23  C   UNL d   1      41.475 -15.178  36.378  0.00  0.00     0.000 A 
ATOM     24  C   UNL d   1      41.539 -16.006  36.330  0.00  0.00     0.000 A 
ATOM     25  C   UNL d   1      42.269 -16.367  36.459  0.00  0.00     0.000 A 
ENDBRANCH  19  20
ENDBRANCH   2  19
TORSDOF 4
ENDMDL
