MODEL 1
REMARK VINA RESULT:      -4.8      0.000      0.000
REMARK  4 active torsions:
REMARK  status: ('A' for Active; 'I' for Inactive)
REMARK    1  A    between atoms: C_6  and  C_1 
REMARK       I    between atoms: N_9  and  C_6 
REMARK       I    between atoms: C_8  and  N_10 
REMARK    2  A    between atoms: C_11  and  C_8 
REMARK    3  A    between atoms: N_10  and  N_9 
REMARK    4  A    between atoms: O_22  and  C_13 
ROOT
ATOM      1  C   UNL d   1      58.108  -0.504  30.363  0.00  0.00     0.123 A 
ATOM      2  C   UNL d   1      58.762  -0.111  30.049  0.00  0.00     0.305 A 
ATOM      3  O   UNL d   1      59.256  -0.495  29.537  0.00  0.00    -0.271 OA
ATOM      4  C   UNL d   1      57.966  -1.270  30.157  0.00  0.00     0.012 A 
ATOM      5  C   UNL d   1      59.120  -1.296  29.312  0.00  0.00     0.125 A 
ATOM      6  C   UNL d   1      58.466  -1.689  29.626  0.00  0.00     0.025 A 
ATOM      7  O   UNL d   1      58.909   0.656  30.252  0.00  0.00    -0.259 OA
ATOM      8  C   UNL d   1      59.619  -1.698  28.789  0.00  0.00     0.117 A 
ATOM      9  C   UNL d   1      58.329  -2.473  29.409  0.00  0.00     0.002 A 
ATOM     10  C   UNL d   1      58.826  -2.880  28.886  0.00  0.00     0.002 A 
ATOM     11  C   UNL d   1      59.480  -2.487  28.572  0.00  0.00     0.026 A 
ENDROOT
BRANCH   1  12
ATOM     12  C   UNL d   1      57.594  -0.134  30.884  0.00  0.00     0.302 C 
ATOM     13  N   UNL d   1      57.356  -0.554  31.557  0.00  0.00    -0.102 NA
ATOM     14  O   UNL d   1      57.315   0.653  30.737  0.00  0.00    -0.263 OA
BRANCH  13  15
ATOM     15  N   UNL d   1      56.848  -0.208  32.086  0.00  0.00    -0.102 NA
ATOM     16  C   UNL d   1      56.436  -0.687  32.626  0.00  0.00     0.297 C 
ATOM     17  O   UNL d   1      56.536  -1.491  32.630  0.00  0.00    -0.264 OA
BRANCH  16  18
ATOM     18  C   UNL d   1      55.922  -0.346  33.163  0.00  0.00     0.059 A 
ATOM     19  C   UNL d   1      55.120  -0.479  33.120  0.00  0.00     0.005 A 
ATOM     20  C   UNL d   1      54.601  -0.141  33.655  0.00  0.00     0.007 A 
ATOM     21  C   UNL d   1      54.875   0.344  34.252  0.00  0.00     0.035 A 
ATOM     22  C   UNL d   1      55.701   0.485  34.302  0.00  0.00     0.007 A 
ATOM     23 BR   UNL d   1      54.350   0.680  34.785  0.00  0.00    -0.049 Br
ATOM     24  C   UNL d   1      56.220   0.146  33.767  0.00  0.00     0.005 A 
ENDBRANCH  16  18
ENDBRANCH  13  15
ENDBRANCH   1  12
BRANCH   8  25
ATOM     25  O   UNL d   1      60.266  -1.309  28.478  0.00  0.00    -0.326 OA
ATOM     26  C   UNL d   1      60.998  -1.655  28.497  0.00  0.00     0.181 C 
ENDBRANCH   8  25
TORSDOF 4
ENDMDL
