MODEL 1
REMARK VINA RESULT:      77.3      0.000      0.000
REMARK  5 active torsions:
REMARK  status: ('A' for Active; 'I' for Inactive)
REMARK    1  A    between atoms: S_10  and  C_6 
REMARK    2  A    between atoms: C_15  and  S_10 
REMARK    3  A    between atoms: C_11  and  C_15 
REMARK       I    between atoms: N_13  and  C_11 
REMARK    4  A    between atoms: C_17  and  N_13 
REMARK    5  A    between atoms: O_25  and  C_18 
ROOT
ATOM      1  C   UNL d   1     -56.569 -99.750 -44.513  0.00  0.00     0.155 A 
ATOM      2  C   UNL d   1     -56.803-100.146 -43.824  0.00  0.00     0.107 A 
ATOM      3  N   UNL d   1     -55.416-100.590 -44.601  0.00  0.00    -0.250 N 
ATOM      4  C   UNL d   1     -55.880 -99.970 -44.899  0.00  0.00     0.285 A 
ATOM      5  N   UNL d   1     -56.340-100.766 -43.526  0.00  0.00    -0.220 NA
ATOM      6  C   UNL d   1     -55.650-100.980 -43.920  0.00  0.00     0.182 A 
ATOM      7  N   UNL d   1     -57.129 -99.168 -44.677  0.00  0.00    -0.239 NA
ATOM      8  C   UNL d   1     -57.506 -99.813 -43.559  0.00  0.00     0.037 A 
ATOM      9  C   UNL d   1     -57.712 -99.202 -44.088  0.00  0.00     0.083 A 
ATOM     10  O   UNL d   1     -55.638 -99.578 -45.590  0.00  0.00    -0.265 OA
ATOM     11  C   UNL d   1     -54.720-100.814 -44.990  0.00  0.00     0.104 C 
ATOM     12  C   UNL d   1     -57.989 -99.975 -42.914  0.00  0.00     0.003 A 
ATOM     13  C   UNL d   1     -58.401 -98.760 -43.965  0.00  0.00     0.019 A 
ATOM     14  C   UNL d   1     -58.678 -99.533 -42.790  0.00  0.00     0.000 A 
ATOM     15  C   UNL d   1     -58.880 -98.930 -43.314  0.00  0.00     0.002 A 
ENDROOT
BRANCH   6  16
ATOM     16  S   UNL d   1     -55.187-101.598 -43.625  0.00  0.00    -0.044 SA
BRANCH  16  17
ATOM     17  C   UNL d   1     -54.711-101.481 -42.961  0.00  0.00     0.101 C 
BRANCH  17  18
ATOM     18  C   UNL d   1     -54.907-101.836 -42.245  0.00  0.00     0.286 C 
ATOM     19  N   UNL d   1     -55.113-101.366 -41.607  0.00  0.00    -0.208 NA
ATOM     20  O   UNL d   1     -54.899-102.650 -42.161  0.00  0.00    -0.265 OA
BRANCH  19  21
ATOM     21  C   UNL d   1     -55.312-101.718 -40.883  0.00  0.00     0.085 A 
ATOM     22  C   UNL d   1     -54.976-101.446 -40.194  0.00  0.00     0.021 A 
ATOM     23  C   UNL d   1     -55.174-101.799 -39.470  0.00  0.00     0.026 A 
ATOM     24  C   UNL d   1     -55.712-102.424 -39.448  0.00  0.00     0.094 A 
ATOM     25  C   UNL d   1     -56.051-102.695 -40.165  0.00  0.00     0.026 A 
ATOM     26  C   UNL d   1     -55.850-102.342 -40.875  0.00  0.00     0.021 A 
BRANCH  24  27
ATOM     27  O   UNL d   1     -55.902-102.768 -38.717  0.00  0.00    -0.328 OA
ATOM     28  C   UNL d   1     -56.686-102.848 -38.489  0.00  0.00     0.181 C 
ENDBRANCH  24  27
ENDBRANCH  19  21
ENDBRANCH  17  18
ENDBRANCH  16  17
ENDBRANCH   6  16
TORSDOF 5
ENDMDL
MODEL 2
REMARK VINA RESULT:      80.2      0.992      1.072
REMARK  5 active torsions:
REMARK  status: ('A' for Active; 'I' for Inactive)
REMARK    1  A    between atoms: S_10  and  C_6 
REMARK    2  A    between atoms: C_15  and  S_10 
REMARK    3  A    between atoms: C_11  and  C_15 
REMARK       I    between atoms: N_13  and  C_11 
REMARK    4  A    between atoms: C_17  and  N_13 
REMARK    5  A    between atoms: O_25  and  C_18 
ROOT
ATOM      1  C   UNL d   1     -57.001 -99.328 -44.930  0.00  0.00     0.155 A 
ATOM      2  C   UNL d   1     -57.394 -99.916 -44.498  0.00  0.00     0.107 A 
ATOM      3  N   UNL d   1     -55.749 -99.948 -44.630  0.00  0.00    -0.250 N 
ATOM      4  C   UNL d   1     -56.184 -99.343 -44.996  0.00  0.00     0.285 A 
ATOM      5  N   UNL d   1     -56.960-100.520 -44.132  0.00  0.00    -0.220 NA
ATOM      6  C   UNL d   1     -56.140-100.528 -44.204  0.00  0.00     0.182 A 
ATOM      7  N   UNL d   1     -57.567 -98.807 -45.227  0.00  0.00    -0.239 NA
ATOM      8  C   UNL d   1     -58.201 -99.763 -44.526  0.00  0.00     0.037 A 
ATOM      9  C   UNL d   1     -58.313 -99.072 -44.980  0.00  0.00     0.083 A 
ATOM     10  O   UNL d   1     -55.783 -98.758 -45.427  0.00  0.00    -0.265 OA
ATOM     11  C   UNL d   1     -54.923 -99.965 -44.695  0.00  0.00     0.104 C 
ATOM     12  C   UNL d   1     -58.852-100.151 -44.204  0.00  0.00     0.003 A 
ATOM     13  C   UNL d   1     -59.075 -98.777 -45.107  0.00  0.00     0.019 A 
ATOM     14  C   UNL d   1     -59.614 -99.855 -44.332  0.00  0.00     0.000 A 
ATOM     15  C   UNL d   1     -59.722 -99.173 -44.780  0.00  0.00     0.002 A 
ENDROOT
BRANCH   6  16
ATOM     16  S   UNL d   1     -55.705-101.129 -43.840  0.00  0.00    -0.044 SA
BRANCH  16  17
ATOM     17  C   UNL d   1     -56.091-101.734 -43.433  0.00  0.00     0.101 C 
BRANCH  17  18
ATOM     18  C   UNL d   1     -55.794-102.002 -42.714  0.00  0.00     0.286 C 
ATOM     19  N   UNL d   1     -55.909-101.551 -42.040  0.00  0.00    -0.208 NA
ATOM     20  O   UNL d   1     -55.386-102.710 -42.662  0.00  0.00    -0.265 OA
BRANCH  19  21
ATOM     21  C   UNL d   1     -55.613-101.816 -41.312  0.00  0.00     0.085 A 
ATOM     22  C   UNL d   1     -55.133-101.332 -40.869  0.00  0.00     0.021 A 
ATOM     23  C   UNL d   1     -54.836-101.596 -40.141  0.00  0.00     0.026 A 
ATOM     24  C   UNL d   1     -55.028-102.350 -39.866  0.00  0.00     0.094 A 
ATOM     25  C   UNL d   1     -55.524-102.840 -40.331  0.00  0.00     0.026 A 
ATOM     26  C   UNL d   1     -55.812-102.571 -41.049  0.00  0.00     0.021 A 
BRANCH  24  27
ATOM     27  O   UNL d   1     -54.725-102.604 -39.136  0.00  0.00    -0.328 OA
ATOM     28  C   UNL d   1     -54.807-102.135 -38.468  0.00  0.00     0.181 C 
ENDBRANCH  24  27
ENDBRANCH  19  21
ENDBRANCH  17  18
ENDBRANCH  16  17
ENDBRANCH   6  16
TORSDOF 5
ENDMDL
