MODEL 1
REMARK VINA RESULT:      87.9      0.000      0.000
REMARK  9 active torsions:
REMARK  status: ('A' for Active; 'I' for Inactive)
REMARK    1  A    between atoms: C_3  and  C_1 
REMARK    2  A    between atoms: N_5  and  C_2 
REMARK    3  A    between atoms: N_4  and  C_3 
REMARK    4  A    between atoms: C_14  and  C_3 
REMARK    5  A    between atoms: C_12  and  N_4 
REMARK       I    between atoms: C_6  and  N_5 
REMARK    6  A    between atoms: C_9  and  C_6 
REMARK    7  A    between atoms: C_7  and  C_12 
REMARK       I    between atoms: N_16  and  C_7 
REMARK    8  A    between atoms: N_8  and  C_17 
REMARK    9  A    between atoms: C_17  and  C_9 
ROOT
ATOM      1  C   UNL d   1     -51.006  26.914  34.115  0.00  0.00     0.036 A 
ATOM      2  C   UNL d   1     -50.263  27.205  33.906  0.00  0.00     0.086 A 
ATOM      3  C   UNL d   1     -51.692  27.355  33.910  0.00  0.00     0.010 A 
ATOM      4  C   UNL d   1     -50.177  27.920  33.501  0.00  0.00     0.020 A 
ATOM      5  C   UNL d   1     -51.607  28.069  33.505  0.00  0.00     0.035 A 
ATOM      6  C   UNL d   1     -50.859  28.340  33.308  0.00  0.00     0.008 A 
ATOM      7 BR   UNL d   1     -52.266  28.492  33.308  0.00  0.00    -0.049 Br
ENDROOT
BRANCH   1   8
ATOM      8  C   UNL d   1     -51.106  26.177  34.533  0.00  0.00     0.083 C 
BRANCH   8   9
ATOM      9  N   UNL d   1     -51.055  26.200  35.357  0.00  0.00    -0.239 NA
BRANCH   9  10
ATOM     10  C   UNL d   1     -51.701  26.056  35.835  0.00  0.00     0.163 C 
BRANCH  10  11
ATOM     11  C   UNL d   1     -51.638  26.146  36.651  0.00  0.00     0.317 C 
ATOM     12  O   UNL d   1     -50.944  26.435  36.958  0.00  0.00    -0.262 OA
ATOM     13  N   UNL d   1     -52.272  25.943  37.138  0.00  0.00    -0.083 NA
ATOM     14  N   UNL d   1     -52.183  26.042  37.951  0.00  0.00    -0.019 N 
ENDBRANCH  10  11
ENDBRANCH   9  10
ENDBRANCH   8   9
BRANCH   8  15
ATOM     15  C   UNL d   1     -51.244  25.493  34.138  0.00  0.00     0.018 A 
ATOM     16  C   UNL d   1     -52.003  25.330  33.863  0.00  0.00     0.002 A 
ATOM     17  C   UNL d   1     -52.142  24.626  33.457  0.00  0.00     0.000 A 
ATOM     18  C   UNL d   1     -51.552  24.084  33.317  0.00  0.00     0.000 A 
ATOM     19  C   UNL d   1     -50.772  24.245  33.594  0.00  0.00     0.000 A 
ATOM     20  C   UNL d   1     -50.628  24.958  34.007  0.00  0.00     0.002 A 
ENDBRANCH   8  15
ENDBRANCH   1   8
BRANCH   2  21
ATOM     21  N   UNL d   1     -49.592  26.762  34.113  0.00  0.00    -0.208 NA
ATOM     22  C   UNL d   1     -48.955  27.153  34.456  0.00  0.00     0.281 C 
ATOM     23  O   UNL d   1     -48.288  26.710  34.661  0.00  0.00    -0.265 OA
BRANCH  22  24
ATOM     24  C   UNL d   1     -48.970  27.967  34.598  0.00  0.00     0.082 C 
BRANCH  24  25
ATOM     25  C   UNL d   1     -48.651  28.269  35.282  0.00  0.00     0.085 C 
BRANCH  25  26
ATOM     26  N   UNL d   1     -48.283  28.991  35.261  0.00  0.00    -0.299 N 
ATOM     27  C   UNL d   1     -48.446  29.516  34.646  0.00  0.00     0.107 A 
ATOM     28  C   UNL d   1     -48.075  30.253  34.617  0.00  0.00     0.142 A 
ATOM     29  O   UNL d   1     -47.537  30.458  35.214  0.00  0.00    -0.300 OA
ATOM     30  C   UNL d   1     -47.378  29.936  35.820  0.00  0.00     0.142 A 
ATOM     31  C   UNL d   1     -47.750  29.202  35.846  0.00  0.00     0.107 A 
ENDBRANCH  25  26
ENDBRANCH  24  25
ENDBRANCH  22  24
ENDBRANCH   2  21
TORSDOF 9
ENDMDL
MODEL 2
REMARK VINA RESULT:      89.2      2.361      3.396
REMARK  9 active torsions:
REMARK  status: ('A' for Active; 'I' for Inactive)
REMARK    1  A    between atoms: C_3  and  C_1 
REMARK    2  A    between atoms: N_5  and  C_2 
REMARK    3  A    between atoms: N_4  and  C_3 
REMARK    4  A    between atoms: C_14  and  C_3 
REMARK    5  A    between atoms: C_12  and  N_4 
REMARK       I    between atoms: C_6  and  N_5 
REMARK    6  A    between atoms: C_9  and  C_6 
REMARK    7  A    between atoms: C_7  and  C_12 
REMARK       I    between atoms: N_16  and  C_7 
REMARK    8  A    between atoms: N_8  and  C_17 
REMARK    9  A    between atoms: C_17  and  C_9 
ROOT
ATOM      1  C   UNL d   1     -51.237  25.850  34.279  0.00  0.00     0.036 A 
ATOM      2  C   UNL d   1     -51.407  26.139  35.033  0.00  0.00     0.086 A 
ATOM      3  C   UNL d   1     -50.884  26.362  33.712  0.00  0.00     0.010 A 
ATOM      4  C   UNL d   1     -51.239  26.920  35.243  0.00  0.00     0.020 A 
ATOM      5  C   UNL d   1     -50.717  27.142  33.922  0.00  0.00     0.035 A 
ATOM      6  C   UNL d   1     -50.894  27.409  34.677  0.00  0.00     0.008 A 
ATOM      7 BR   UNL d   1     -50.379  27.633  33.378  0.00  0.00    -0.049 Br
ENDROOT
BRANCH   1   8
ATOM      8  C   UNL d   1     -51.406  25.045  34.051  0.00  0.00     0.083 C 
BRANCH   8   9
ATOM      9  N   UNL d   1     -52.200  24.819  34.023  0.00  0.00    -0.239 NA
BRANCH   9  10
ATOM     10  C   UNL d   1     -52.557  24.577  33.331  0.00  0.00     0.163 C 
BRANCH  10  11
ATOM     11  C   UNL d   1     -53.349  24.350  33.333  0.00  0.00     0.317 C 
ATOM     12  O   UNL d   1     -53.919  24.929  33.309  0.00  0.00    -0.262 OA
ATOM     13  N   UNL d   1     -53.549  23.551  33.358  0.00  0.00    -0.083 NA
ATOM     14  N   UNL d   1     -54.348  23.351  33.360  0.00  0.00    -0.019 N 
ENDBRANCH  10  11
ENDBRANCH   9  10
ENDBRANCH   8   9
BRANCH   8  15
ATOM     15  C   UNL d   1     -50.815  24.534  33.872  0.00  0.00     0.018 A 
ATOM     16  C   UNL d   1     -50.995  23.822  33.499  0.00  0.00     0.002 A 
ATOM     17  C   UNL d   1     -50.385  23.298  33.316  0.00  0.00     0.000 A 
ATOM     18  C   UNL d   1     -49.608  23.461  33.492  0.00  0.00     0.000 A 
ATOM     19  C   UNL d   1     -49.417  24.188  33.874  0.00  0.00     0.000 A 
ATOM     20  C   UNL d   1     -50.033  24.721  34.061  0.00  0.00     0.002 A 
ENDBRANCH   8  15
ENDBRANCH   1   8
BRANCH   2  21
ATOM     21  N   UNL d   1     -51.754  25.627  35.585  0.00  0.00    -0.208 NA
ATOM     22  C   UNL d   1     -51.697  25.814  36.383  0.00  0.00     0.281 C 
ATOM     23  O   UNL d   1     -52.044  25.301  36.931  0.00  0.00    -0.265 OA
BRANCH  22  24
ATOM     24  C   UNL d   1     -51.305  26.492  36.644  0.00  0.00     0.082 C 
BRANCH  24  25
ATOM     25  C   UNL d   1     -50.871  26.477  37.331  0.00  0.00     0.085 C 
BRANCH  25  26
ATOM     26  N   UNL d   1     -50.922  27.101  37.845  0.00  0.00    -0.299 N 
ATOM     27  C   UNL d   1     -51.660  27.424  38.025  0.00  0.00     0.107 A 
ATOM     28  C   UNL d   1     -51.720  28.060  38.547  0.00  0.00     0.142 A 
ATOM     29  O   UNL d   1     -51.031  28.369  38.889  0.00  0.00    -0.300 OA
ATOM     30  C   UNL d   1     -50.304  28.047  38.710  0.00  0.00     0.142 A 
ATOM     31  C   UNL d   1     -50.247  27.413  38.188  0.00  0.00     0.107 A 
ENDBRANCH  25  26
ENDBRANCH  24  25
ENDBRANCH  22  24
ENDBRANCH   2  21
TORSDOF 9
ENDMDL
MODEL 3
REMARK VINA RESULT:      89.6      1.736      4.545
REMARK  9 active torsions:
REMARK  status: ('A' for Active; 'I' for Inactive)
REMARK    1  A    between atoms: C_3  and  C_1 
REMARK    2  A    between atoms: N_5  and  C_2 
REMARK    3  A    between atoms: N_4  and  C_3 
REMARK    4  A    between atoms: C_14  and  C_3 
REMARK    5  A    between atoms: C_12  and  N_4 
REMARK       I    between atoms: C_6  and  N_5 
REMARK    6  A    between atoms: C_9  and  C_6 
REMARK    7  A    between atoms: C_7  and  C_12 
REMARK       I    between atoms: N_16  and  C_7 
REMARK    8  A    between atoms: N_8  and  C_17 
REMARK    9  A    between atoms: C_17  and  C_9 
ROOT
ATOM      1  C   UNL d   1     -51.308  26.500  34.233  0.00  0.00     0.036 A 
ATOM      2  C   UNL d   1     -51.321  25.830  33.751  0.00  0.00     0.086 A 
ATOM      3  C   UNL d   1     -51.991  26.992  34.271  0.00  0.00     0.010 A 
ATOM      4  C   UNL d   1     -51.987  25.631  33.306  0.00  0.00     0.020 A 
ATOM      5  C   UNL d   1     -52.656  26.792  33.827  0.00  0.00     0.035 A 
ATOM      6  C   UNL d   1     -52.648  26.122  33.354  0.00  0.00     0.008 A 
ATOM      7 BR   UNL d   1     -53.311  27.264  33.863  0.00  0.00    -0.049 Br
ENDROOT
BRANCH   1   8
ATOM      8  C   UNL d   1     -50.626  26.716  34.697  0.00  0.00     0.083 C 
BRANCH   8   9
ATOM      9  N   UNL d   1     -50.557  26.377  35.447  0.00  0.00    -0.239 NA
BRANCH   9  10
ATOM     10  C   UNL d   1     -50.436  26.829  36.116  0.00  0.00     0.163 C 
BRANCH  10  11
ATOM     11  C   UNL d   1     -51.009  26.851  36.707  0.00  0.00     0.317 C 
ATOM     12  O   UNL d   1     -51.729  27.186  36.538  0.00  0.00    -0.262 OA
ATOM     13  N   UNL d   1     -50.844  26.538  37.452  0.00  0.00    -0.083 NA
ATOM     14  N   UNL d   1     -51.434  26.574  38.026  0.00  0.00    -0.019 N 
ENDBRANCH  10  11
ENDBRANCH   9  10
ENDBRANCH   8   9
BRANCH   8  15
ATOM     15  C   UNL d   1     -50.077  27.226  34.411  0.00  0.00     0.018 A 
ATOM     16  C   UNL d   1     -50.160  27.524  33.648  0.00  0.00     0.002 A 
ATOM     17  C   UNL d   1     -49.594  28.048  33.356  0.00  0.00     0.000 A 
ATOM     18  C   UNL d   1     -48.954  28.283  33.799  0.00  0.00     0.000 A 
ATOM     19  C   UNL d   1     -48.863  27.982  34.582  0.00  0.00     0.000 A 
ATOM     20  C   UNL d   1     -49.435  27.450  34.880  0.00  0.00     0.002 A 
ENDBRANCH   8  15
ENDBRANCH   1   8
BRANCH   2  21
ATOM     21  N   UNL d   1     -50.643  25.353  33.720  0.00  0.00    -0.208 NA
ATOM     22  C   UNL d   1     -50.732  24.559  33.527  0.00  0.00     0.281 C 
ATOM     23  O   UNL d   1     -50.056  24.085  33.496  0.00  0.00    -0.265 OA
BRANCH  22  24
ATOM     24  C   UNL d   1     -51.473  24.231  33.364  0.00  0.00     0.082 C 
BRANCH  24  25
ATOM     25  C   UNL d   1     -51.702  23.538  33.722  0.00  0.00     0.085 C 
BRANCH  25  26
ATOM     26  N   UNL d   1     -52.484  23.426  33.902  0.00  0.00    -0.299 N 
ATOM     27  C   UNL d   1     -52.712  23.322  34.689  0.00  0.00     0.107 A 
ATOM     28  C   UNL d   1     -53.506  23.207  34.881  0.00  0.00     0.142 A 
ATOM     29  O   UNL d   1     -54.071  23.198  34.275  0.00  0.00    -0.300 OA
ATOM     30  C   UNL d   1     -53.843  23.301  33.499  0.00  0.00     0.142 A 
ATOM     31  C   UNL d   1     -53.050  23.415  33.311  0.00  0.00     0.107 A 
ENDBRANCH  25  26
ENDBRANCH  24  25
ENDBRANCH  22  24
ENDBRANCH   2  21
TORSDOF 9
ENDMDL
