MODEL 1
REMARK VINA RESULT:      -2.8      0.000      0.000
REMARK  3 active torsions:
REMARK  status: ('A' for Active; 'I' for Inactive)
REMARK    1  A    between atoms: C_10  and  C_2 
REMARK    2  A    between atoms: C_4  and  C_10 
REMARK    3  A    between atoms: C_27  and  N_13 
ROOT
ATOM      1  C   UNL d   1      58.064   0.678  32.792  0.00  0.00     0.093 A 
ATOM      2  C   UNL d   1      58.348   0.677  31.155  0.00  0.00     0.035 A 
ATOM      3  C   UNL d   1      57.451   0.675  32.311  0.00  0.00    -0.012 A 
ATOM      4  C   UNL d   1      55.786   0.671  33.788  0.00  0.00     0.056 A 
ATOM      5  C   UNL d   1      58.973   0.680  31.634  0.00  0.00     0.180 A 
ATOM      6  C   UNL d   1      55.180   0.669  33.312  0.00  0.00    -0.012 A 
ATOM      7  C   UNL d   1      56.548   0.674  33.462  0.00  0.00    -0.016 A 
ATOM      8  C   UNL d   1      56.690   0.673  32.649  0.00  0.00    -0.007 A 
ATOM      9  C   UNL d   1      57.594   0.675  31.498  0.00  0.00    -0.001 A 
ATOM     10  C   UNL d   1      55.327   0.669  32.493  0.00  0.00    -0.004 A 
ATOM     11  C   UNL d   1      57.917   0.678  33.612  0.00  0.00    -0.016 A 
ATOM     12  C   UNL d   1      56.083   0.671  32.161  0.00  0.00    -0.001 A 
ATOM     13  C   UNL d   1      57.161   0.676  33.943  0.00  0.00    -0.007 A 
ATOM     14  C   UNL d   1      55.643   0.672  34.600  0.00  0.00    -0.015 A 
ATOM     15  C   UNL d   1      54.400   0.667  33.647  0.00  0.00     0.038 A 
ATOM     16  O   UNL d   1      59.739   0.682  31.486  0.00  0.00    -0.291 OA
ATOM     17  C   UNL d   1      58.684   0.680  33.279  0.00  0.00     0.017 C 
ATOM     18  C   UNL d   1      54.879   0.670  34.958  0.00  0.00     0.038 A 
ATOM     19  C   UNL d   1      54.259   0.667  34.471  0.00  0.00     0.195 A 
ATOM     20  C   UNL d   1      56.618   0.675  34.452  0.00  0.00     0.013 C 
ATOM     21  O   UNL d   1      53.515   0.665  34.789  0.00  0.00    -0.287 OA
ENDROOT
BRANCH   2  22
ATOM     22  C   UNL d   1      58.448   0.677  30.353  0.00  0.00     0.006 C 
BRANCH  22  23
ATOM     23  C   UNL d   1      58.503  -0.014  29.913  0.00  0.00     0.039 A 
ATOM     24  C   UNL d   1      58.963  -0.293  29.314  0.00  0.00     0.085 A 
ATOM     25  N   UNL d   1      58.700  -1.071  29.132  0.00  0.00    -0.228 N 
ATOM     26  C   UNL d   1      59.573   0.195  29.000  0.00  0.00     0.021 C 
ATOM     27  N   UNL d   1      58.074  -1.276  29.620  0.00  0.00    -0.164 NA
ATOM     28  C   UNL d   1      57.951  -0.616  30.108  0.00  0.00     0.122 A 
BRANCH  25  29
ATOM     29  C   UNL d   1      59.034  -1.559  28.537  0.00  0.00     0.101 C 
ATOM     30  C   UNL d   1      58.848  -2.388  28.513  0.00  0.00     0.022 C 
ENDBRANCH  25  29
ENDBRANCH  22  23
ENDBRANCH   2  22
TORSDOF 3
ENDMDL
