MODEL 1
REMARK VINA RESULT:      69.5      0.000      0.000
REMARK  6 active torsions:
REMARK  status: ('A' for Active; 'I' for Inactive)
REMARK    1  A    between atoms: C_6  and  C_2 
REMARK    2  A    between atoms: C_7  and  C_6 
REMARK    3  A    between atoms: C_8  and  C_15 
REMARK       I    between atoms: N_9  and  C_8 
REMARK    4  A    between atoms: C_16  and  N_9 
REMARK    5  A    between atoms: O_13  and  C_12 
REMARK    6  A    between atoms: C_15  and  O_13 
ROOT
ATOM      1  C   UNL d   1     -55.076-100.619 -43.309  0.00  0.00     0.023 A 
ATOM      2  C   UNL d   1     -55.526-100.178 -43.842  0.00  0.00     0.100 A 
ATOM      3  C   UNL d   1     -54.720-101.318 -43.547  0.00  0.00     0.002 A 
ATOM      4  C   UNL d   1     -55.620-100.438 -44.619  0.00  0.00     0.025 A 
ATOM      5  C   UNL d   1     -54.809-101.587 -44.325  0.00  0.00     0.000 A 
ATOM      6  C   UNL d   1     -55.262-101.142 -44.859  0.00  0.00     0.002 A 
ENDROOT
BRANCH   2   7
ATOM      7  O   UNL d   1     -55.884 -99.472 -43.600  0.00  0.00    -0.300 OA
BRANCH   7   8
ATOM      8  C   UNL d   1     -56.632 -99.272 -43.903  0.00  0.00     0.185 C 
BRANCH   8   9
ATOM      9  C   UNL d   1     -57.290 -99.251 -43.394  0.00  0.00     0.304 C 
ATOM     10  N   UNL d   1     -58.049 -99.166 -43.712  0.00  0.00    -0.206 NA
ATOM     11  O   UNL d   1     -57.183 -99.315 -42.578  0.00  0.00    -0.263 OA
BRANCH  10  12
ATOM     12  C   UNL d   1     -58.155 -99.102 -44.527  0.00  0.00     0.085 A 
ATOM     13  C   UNL d   1     -57.541 -99.328 -45.040  0.00  0.00     0.019 A 
ATOM     14  C   UNL d   1     -57.641 -99.267 -45.857  0.00  0.00     0.002 A 
ATOM     15  C   UNL d   1     -58.357 -98.979 -46.166  0.00  0.00     0.000 A 
ATOM     16  C   UNL d   1     -58.965 -98.756 -45.649  0.00  0.00     0.002 A 
ATOM     17  C   UNL d   1     -58.860 -98.819 -44.833  0.00  0.00     0.019 A 
ENDBRANCH  10  12
ENDBRANCH   8   9
ENDBRANCH   7   8
ENDBRANCH   2   7
BRANCH   1  18
ATOM     18  C   UNL d   1     -54.980-100.360 -42.529  0.00  0.00     0.013 C 
BRANCH  18  19
ATOM     19  C   UNL d   1     -54.889-100.901 -41.915  0.00  0.00     0.092 A 
ATOM     20  C   UNL d   1     -54.775-100.725 -41.123  0.00  0.00     0.288 A 
ATOM     21  N   UNL d   1     -54.711-101.431 -40.707  0.00  0.00    -0.163 NA
ATOM     22  O   UNL d   1     -54.730 -99.967 -40.797  0.00  0.00    -0.265 OA
ATOM     23  C   UNL d   1     -54.787-102.054 -41.249  0.00  0.00     0.313 A 
ATOM     24  S   UNL d   1     -54.898-101.725 -41.999  0.00  0.00    -0.021 SA
ATOM     25  O   UNL d   1     -54.758-102.864 -41.071  0.00  0.00    -0.258 OA
ENDBRANCH  18  19
ENDBRANCH   1  18
TORSDOF 6
ENDMDL
MODEL 2
REMARK VINA RESULT:      70.8      1.952      3.244
REMARK  6 active torsions:
REMARK  status: ('A' for Active; 'I' for Inactive)
REMARK    1  A    between atoms: C_6  and  C_2 
REMARK    2  A    between atoms: C_7  and  C_6 
REMARK    3  A    between atoms: C_8  and  C_15 
REMARK       I    between atoms: N_9  and  C_8 
REMARK    4  A    between atoms: C_16  and  N_9 
REMARK    5  A    between atoms: O_13  and  C_12 
REMARK    6  A    between atoms: C_15  and  O_13 
ROOT
ATOM      1  C   UNL d   1     -57.533 -99.783 -44.438  0.00  0.00     0.023 A 
ATOM      2  C   UNL d   1     -57.993 -99.230 -44.840  0.00  0.00     0.100 A 
ATOM      3  C   UNL d   1     -57.610 -99.877 -43.627  0.00  0.00     0.002 A 
ATOM      4  C   UNL d   1     -58.535 -98.765 -44.427  0.00  0.00     0.025 A 
ATOM      5  C   UNL d   1     -58.152 -99.415 -43.205  0.00  0.00     0.000 A 
ATOM      6  C   UNL d   1     -58.614 -98.859 -43.611  0.00  0.00     0.002 A 
ENDROOT
BRANCH   2   7
ATOM      7  O   UNL d   1     -57.914 -99.136 -45.659  0.00  0.00    -0.300 OA
BRANCH   7   8
ATOM      8  C   UNL d   1     -58.577 -98.915 -46.108  0.00  0.00     0.185 C 
BRANCH   8   9
ATOM      9  C   UNL d   1     -59.340 -99.016 -45.793  0.00  0.00     0.304 C 
ATOM     10  N   UNL d   1     -59.959 -99.250 -46.290  0.00  0.00    -0.206 NA
ATOM     11  O   UNL d   1     -59.476 -98.882 -44.990  0.00  0.00    -0.263 OA
BRANCH  10  12
ATOM     12  C   UNL d   1     -59.823 -99.384 -47.092  0.00  0.00     0.085 A 
ATOM     13  C   UNL d   1     -59.839-100.161 -47.388  0.00  0.00     0.019 A 
ATOM     14  C   UNL d   1     -59.702-100.301 -48.190  0.00  0.00     0.002 A 
ATOM     15  C   UNL d   1     -59.549 -99.664 -48.701  0.00  0.00     0.000 A 
ATOM     16  C   UNL d   1     -59.535 -98.892 -48.399  0.00  0.00     0.002 A 
ATOM     17  C   UNL d   1     -59.672 -98.758 -47.597  0.00  0.00     0.019 A 
ENDBRANCH  10  12
ENDBRANCH   8   9
ENDBRANCH   7   8
ENDBRANCH   2   7
BRANCH   1  18
ATOM     18  C   UNL d   1     -56.987-100.251 -44.850  0.00  0.00     0.013 C 
BRANCH  18  19
ATOM     19  C   UNL d   1     -56.237-100.391 -44.541  0.00  0.00     0.092 A 
ATOM     20  C   UNL d   1     -55.623 -99.851 -44.489  0.00  0.00     0.288 A 
ATOM     21  N   UNL d   1     -54.977-100.225 -44.145  0.00  0.00    -0.163 NA
ATOM     22  O   UNL d   1     -55.648 -99.064 -44.738  0.00  0.00    -0.265 OA
ATOM     23  C   UNL d   1     -55.194-101.009 -43.982  0.00  0.00     0.313 A 
ATOM     24  S   UNL d   1     -55.976-101.112 -44.228  0.00  0.00    -0.021 SA
ATOM     25  O   UNL d   1     -54.711-101.588 -43.634  0.00  0.00    -0.258 OA
ENDBRANCH  18  19
ENDBRANCH   1  18
TORSDOF 6
ENDMDL
