MODEL 1
REMARK VINA RESULT:      14.8      0.000      0.000
REMARK  4 active torsions:
REMARK  status: ('A' for Active; 'I' for Inactive)
REMARK    1  A    between atoms: N_4  and  S_1 
REMARK    2  A    between atoms: C_6  and  S_1 
REMARK    3  A    between atoms: N_3  and  C_2 
REMARK    4  A    between atoms: C_7  and  N_4 
ROOT
ATOM      1  S   UNL d   1      45.367 -15.258  44.679  0.00  0.00     0.285 S 
ATOM      2  O   UNL d   1      46.162 -15.389  44.955  0.00  0.00    -0.198 OA
ATOM      3  O   UNL d   1      44.579 -15.168  44.415  0.00  0.00    -0.198 OA
ENDROOT
BRANCH   1   4
ATOM      4  N   UNL d   1      45.193 -16.077  44.832  0.00  0.00    -0.158 NA
BRANCH   4   5
ATOM      5  C   UNL d   1      45.558 -16.680  44.375  0.00  0.00     0.094 A 
ATOM      6  C   UNL d   1      45.829 -17.365  44.769  0.00  0.00     0.023 A 
ATOM      7  C   UNL d   1      46.195 -17.969  44.312  0.00  0.00     0.044 A 
ATOM      8  C   UNL d   1      46.268 -17.851  43.488  0.00  0.00     0.196 A 
ATOM      9  C   UNL d   1      46.001 -17.178  43.112  0.00  0.00     0.044 A 
ATOM     10  O   UNL d   1      46.636 -18.458  43.028  0.00  0.00    -0.287 OA
ATOM     11  C   UNL d   1      45.634 -16.574  43.569  0.00  0.00     0.023 A 
ENDBRANCH   4   5
ENDBRANCH   1   4
BRANCH   1  12
ATOM     12  C   UNL d   1      45.533 -14.459  44.528  0.00  0.00     0.107 A 
ATOM     13  C   UNL d   1      45.098 -14.068  43.947  0.00  0.00     0.037 A 
ATOM     14  C   UNL d   1      45.264 -13.275  43.800  0.00  0.00     0.138 A 
ATOM     15  C   UNL d   1      45.844 -12.887  44.217  0.00  0.00     0.080 A 
ATOM     16  C   UNL d   1      46.280 -13.277  44.798  0.00  0.00     0.014 A 
ATOM     17 CL   UNL d   1      46.009 -12.082  44.064  0.00  0.00    -0.081 Cl
ATOM     18  C   UNL d   1      46.112 -14.071  44.945  0.00  0.00     0.014 A 
BRANCH  14  19
ATOM     19  N   UNL d   1      44.827 -12.874  43.213  0.00  0.00    -0.113 N 
ATOM     20  O   UNL d   1      44.022 -12.732  43.317  0.00  0.00    -0.532 OA
ATOM     21  O   UNL d   1      45.188 -12.620  42.533  0.00  0.00    -0.532 OA
ENDBRANCH  14  19
ENDBRANCH   1  12
TORSDOF 4
ENDMDL
MODEL 2
REMARK VINA RESULT:      14.9      2.148      4.633
REMARK  4 active torsions:
REMARK  status: ('A' for Active; 'I' for Inactive)
REMARK    1  A    between atoms: N_4  and  S_1 
REMARK    2  A    between atoms: C_6  and  S_1 
REMARK    3  A    between atoms: N_3  and  C_2 
REMARK    4  A    between atoms: C_7  and  N_4 
ROOT
ATOM      1  S   UNL d   1      45.783 -16.863  44.422  0.00  0.00     0.285 S 
ATOM      2  O   UNL d   1      46.434 -17.045  44.939  0.00  0.00    -0.198 OA
ATOM      3  O   UNL d   1      45.132 -16.654  43.939  0.00  0.00    -0.198 OA
ENDROOT
BRANCH   1   4
ATOM      4  N   UNL d   1      45.555 -16.235  44.951  0.00  0.00    -0.158 NA
BRANCH   4   5
ATOM      5  C   UNL d   1      45.576 -15.436  44.692  0.00  0.00     0.094 A 
ATOM      6  C   UNL d   1      44.868 -14.994  44.718  0.00  0.00     0.023 A 
ATOM      7  C   UNL d   1      44.889 -14.194  44.459  0.00  0.00     0.044 A 
ATOM      8  C   UNL d   1      45.617 -13.885  44.191  0.00  0.00     0.196 A 
ATOM      9  C   UNL d   1      46.304 -14.325  44.170  0.00  0.00     0.044 A 
ATOM     10  O   UNL d   1      45.639 -13.080  43.931  0.00  0.00    -0.287 OA
ATOM     11  C   UNL d   1      46.283 -15.125  44.428  0.00  0.00     0.023 A 
ENDBRANCH   4   5
ENDBRANCH   1   4
BRANCH   1  12
ATOM     12  C   UNL d   1      46.000 -17.473  43.904  0.00  0.00     0.107 A 
ATOM     13  C   UNL d   1      46.047 -18.242  44.197  0.00  0.00     0.037 A 
ATOM     14  C   UNL d   1      46.264 -18.846  43.680  0.00  0.00     0.138 A 
ATOM     15  C   UNL d   1      46.427 -18.688  42.900  0.00  0.00     0.080 A 
ATOM     16  C   UNL d   1      46.380 -17.919  42.605  0.00  0.00     0.014 A 
ATOM     17 CL   UNL d   1      46.646 -19.304  42.380  0.00  0.00    -0.081 Cl
ATOM     18  C   UNL d   1      46.163 -17.315  43.123  0.00  0.00     0.014 A 
BRANCH  14  19
ATOM     19  N   UNL d   1      46.313 -19.627  43.972  0.00  0.00    -0.113 N 
ATOM     20  O   UNL d   1      46.598 -19.771  44.731  0.00  0.00    -0.532 OA
ATOM     21  O   UNL d   1      46.081 -20.253  43.512  0.00  0.00    -0.532 OA
ENDBRANCH  14  19
ENDBRANCH   1  12
TORSDOF 4
ENDMDL
MODEL 3
REMARK VINA RESULT:      16.9      1.284      1.637
REMARK  4 active torsions:
REMARK  status: ('A' for Active; 'I' for Inactive)
REMARK    1  A    between atoms: N_4  and  S_1 
REMARK    2  A    between atoms: C_6  and  S_1 
REMARK    3  A    between atoms: N_3  and  C_2 
REMARK    4  A    between atoms: C_7  and  N_4 
ROOT
ATOM      1  S   UNL d   1      45.880 -16.440  44.872  0.00  0.00     0.285 S 
ATOM      2  O   UNL d   1      46.643 -16.072  44.790  0.00  0.00    -0.198 OA
ATOM      3  O   UNL d   1      45.149 -16.838  44.955  0.00  0.00    -0.198 OA
ENDROOT
BRANCH   1   4
ATOM      4  N   UNL d   1      46.267 -17.196  44.937  0.00  0.00    -0.158 NA
BRANCH   4   5
ATOM      5  C   UNL d   1      46.270 -17.727  44.286  0.00  0.00     0.094 A 
ATOM      6  C   UNL d   1      46.247 -18.547  44.444  0.00  0.00     0.023 A 
ATOM      7  C   UNL d   1      46.251 -19.078  43.792  0.00  0.00     0.044 A 
ATOM      8  C   UNL d   1      46.276 -18.758  43.022  0.00  0.00     0.196 A 
ATOM      9  C   UNL d   1      46.298 -17.955  42.877  0.00  0.00     0.044 A 
ATOM     10  O   UNL d   1      46.279 -19.292  42.366  0.00  0.00    -0.287 OA
ATOM     11  C   UNL d   1      46.295 -17.424  43.529  0.00  0.00     0.023 A 
ENDBRANCH   4   5
ENDBRANCH   1   4
BRANCH   1  12
ATOM     12  C   UNL d   1      45.499 -15.706  44.809  0.00  0.00     0.107 A 
ATOM     13  C   UNL d   1      45.947 -15.045  44.603  0.00  0.00     0.037 A 
ATOM     14  C   UNL d   1      45.566 -14.317  44.541  0.00  0.00     0.138 A 
ATOM     15  C   UNL d   1      44.768 -14.252  44.680  0.00  0.00     0.080 A 
ATOM     16  C   UNL d   1      44.319 -14.912  44.886  0.00  0.00     0.014 A 
ATOM     17 CL   UNL d   1      44.386 -13.512  44.616  0.00  0.00    -0.081 Cl
ATOM     18  C   UNL d   1      44.701 -15.641  44.947  0.00  0.00     0.014 A 
BRANCH  14  19
ATOM     19  N   UNL d   1      46.015 -13.644  44.334  0.00  0.00    -0.113 N 
ATOM     20  O   UNL d   1      46.482 -13.265  44.896  0.00  0.00    -0.532 OA
ATOM     21  O   UNL d   1      45.996 -13.356  43.576  0.00  0.00    -0.532 OA
ENDBRANCH  14  19
ENDBRANCH   1  12
TORSDOF 4
ENDMDL
