MODEL 1
REMARK VINA RESULT:     126.5      0.000      0.000
REMARK  1 active torsions:
REMARK  status: ('A' for Active; 'I' for Inactive)
REMARK    1  A    between atoms: C_24  and  N_4 
ROOT
ATOM      1  C   UNL d   1     -51.185  27.277  33.667  0.00  0.00     0.111 A 
ATOM      2  C   UNL d   1     -50.471  26.062  33.705  0.00  0.00     0.062 A 
ATOM      3  C   UNL d   1     -50.500  26.855  33.793  0.00  0.00     0.018 A 
ATOM      4  N   UNL d   1     -47.475  28.795  34.808  0.00  0.00    -0.305 N 
ATOM      5  C   UNL d   1     -51.873  26.866  33.440  0.00  0.00     0.213 A 
ATOM      6  C   UNL d   1     -51.160  25.651  33.478  0.00  0.00     0.101 A 
ATOM      7  C   UNL d   1     -48.756  28.693  34.465  0.00  0.00     0.018 A 
ATOM      8  C   UNL d   1     -48.063  28.264  34.592  0.00  0.00     0.064 A 
ATOM      9  O   UNL d   1     -51.859  26.043  33.344  0.00  0.00    -0.288 OA
ATOM     10  C   UNL d   1     -49.783  25.633  33.831  0.00  0.00     0.194 A 
ATOM     11  C   UNL d   1     -47.797  29.534  34.814  0.00  0.00     0.064 A 
ATOM     12  C   UNL d   1     -49.446  27.484  34.141  0.00  0.00     0.001 A 
ATOM     13  C   UNL d   1     -48.590  29.485  34.603  0.00  0.00     0.018 A 
ATOM     14  C   UNL d   1     -49.454  28.297  34.237  0.00  0.00     0.002 A 
ATOM     15  C   UNL d   1     -51.207  28.101  33.761  0.00  0.00     0.105 C 
ATOM     16  N   UNL d   1     -51.234  28.953  33.857  0.00  0.00    -0.191 NA
ATOM     17  C   UNL d   1     -48.081  27.445  34.489  0.00  0.00     0.018 A 
ATOM     18  C   UNL d   1     -51.142  24.821  33.382  0.00  0.00     0.002 A 
ATOM     19  C   UNL d   1     -50.434  24.415  33.516  0.00  0.00     0.042 A 
ATOM     20  C   UNL d   1     -49.746  24.826  33.743  0.00  0.00     0.019 A 
ATOM     21  C   UNL d   1     -48.772  27.065  34.264  0.00  0.00     0.002 A 
ATOM     22  O   UNL d   1     -49.087  26.049  34.061  0.00  0.00    -0.287 OA
ATOM     23  N   UNL d   1     -52.584  27.278  33.306  0.00  0.00    -0.120 N 
ATOM     24  C   UNL d   1     -47.477  30.288  34.987  0.00  0.00     0.018 A 
ATOM     25  C   UNL d   1     -49.065  30.180  34.564  0.00  0.00     0.002 A 
ATOM     26  C   UNL d   1     -50.033  23.733  33.537  0.00  0.00     0.009 C 
ATOM     27  C   UNL d   1     -50.999  23.884  33.306  0.00  0.00     0.009 C 
ATOM     28  C   UNL d   1     -48.738  30.917  34.737  0.00  0.00     0.000 A 
ATOM     29  C   UNL d   1     -47.937  30.964  34.950  0.00  0.00     0.002 A 
ENDROOT
BRANCH   4  30
ATOM     30  C   UNL d   1     -46.697  28.631  34.989  0.00  0.00     0.080 C 
ATOM     31  C   UNL d   1     -46.348  28.933  35.675  0.00  0.00     0.021 C 
ENDBRANCH   4  30
TORSDOF 1
ENDMDL
