MODEL 1
REMARK VINA RESULT:      26.2      0.000      0.000
REMARK  6 active torsions:
REMARK  status: ('A' for Active; 'I' for Inactive)
REMARK    1  A    between atoms: C_3  and  N_1 
REMARK    2  A    between atoms: C_2  and  N_5 
REMARK    3  A    between atoms: N_6  and  C_2 
REMARK    4  A    between atoms: N_5  and  N_9 
REMARK    5  A    between atoms: C_13  and  N_6 
REMARK    6  A    between atoms: N_9  and  C_12 
ROOT
ATOM      1  N   UNL d   1     -54.840-101.803 -39.968  0.00  0.00    -0.276 N 
ATOM      2  H   UNL d   1     -54.744-100.998 -40.122  0.00  0.00     0.189 HD
ENDROOT
BRANCH   1   3
ATOM      3  C   UNL d   1     -54.834-102.066 -39.174  0.00  0.00     0.191 C 
ATOM      4  S   UNL d   1     -54.924-102.876 -39.020  0.00  0.00    -0.039 SA
BRANCH   3   5
ATOM      5  N   UNL d   1     -54.742-101.542 -38.544  0.00  0.00    -0.331 N 
ATOM      6  H   UNL d   1     -54.617-100.745 -38.715  0.00  0.00     0.168 HD
BRANCH   5   7
ATOM      7  C   UNL d   1     -54.772-101.802 -37.761  0.00  0.00     0.058 A 
ATOM      8  C   UNL d   1     -54.751-101.245 -37.147  0.00  0.00     0.017 A 
ATOM      9  C   UNL d   1     -54.781-101.496 -36.372  0.00  0.00     0.002 A 
ATOM     10  C   UNL d   1     -54.832-102.299 -36.187  0.00  0.00     0.000 A 
ATOM     11  C   UNL d   1     -54.853-102.857 -36.801  0.00  0.00     0.002 A 
ATOM     12  C   UNL d   1     -54.823-102.597 -37.584  0.00  0.00     0.017 A 
ENDBRANCH   5   7
ENDBRANCH   3   5
ENDBRANCH   1   3
BRANCH   1  13
ATOM     13  N   UNL d   1     -54.937-102.324 -40.587  0.00  0.00    -0.297 N 
ATOM     14  H   UNL d   1     -55.095-103.136 -40.429  0.00  0.00     0.187 HD
BRANCH  13  15
ATOM     15  C   UNL d   1     -54.885-102.071 -41.387  0.00  0.00     0.072 A 
ATOM     16  C   UNL d   1     -54.929-102.637 -41.986  0.00  0.00     0.020 A 
ATOM     17  C   UNL d   1     -54.881-102.421 -42.774  0.00  0.00     0.025 A 
ATOM     18  C   UNL d   1     -54.787-101.619 -42.959  0.00  0.00     0.127 A 
ATOM     19  C   UNL d   1     -54.743-101.053 -42.361  0.00  0.00     0.025 A 
ATOM     20  C   UNL d   1     -54.793-101.289 -41.577  0.00  0.00     0.020 A 
BRANCH  18  21
ATOM     21  N   UNL d   1     -54.736-101.386 -43.789  0.00  0.00    -0.114 N 
ATOM     22  O   UNL d   1     -54.712-101.969 -44.372  0.00  0.00    -0.532 OA
ATOM     23  O   UNL d   1     -54.713-100.588 -43.969  0.00  0.00    -0.532 OA
ENDBRANCH  18  21
ENDBRANCH  13  15
ENDBRANCH   1  13
TORSDOF 6
ENDMDL
