MODEL 1
REMARK VINA RESULT:      46.9      0.000      0.000
REMARK  3 active torsions:
REMARK  status: ('A' for Active; 'I' for Inactive)
REMARK    1  A    between atoms: C_2  and  C_4 
REMARK    2  A    between atoms: N_3  and  C_2 
REMARK    3  A    between atoms: C_5  and  N_3 
ROOT
ATOM      1  N   UNL d   1     -55.371-100.474 -43.423  0.00  0.00    -0.243 NA
ATOM      2  C   UNL d   1     -55.364-100.156 -44.196  0.00  0.00     0.109 A 
ATOM      3  C   UNL d   1     -55.156-101.261 -43.301  0.00  0.00     0.081 A 
ATOM      4  C   UNL d   1     -55.140-100.629 -44.834  0.00  0.00     0.021 A 
ATOM      5  C   UNL d   1     -54.931-101.734 -43.948  0.00  0.00     0.018 A 
ATOM      6  C   UNL d   1     -54.924-101.419 -44.713  0.00  0.00     0.003 A 
ATOM      7  C   UNL d   1     -55.161-101.582 -42.543  0.00  0.00     0.019 A 
ATOM      8  C   UNL d   1     -54.717-102.518 -43.824  0.00  0.00     0.002 A 
ATOM      9  C   UNL d   1     -54.946-102.362 -42.427  0.00  0.00     0.002 A 
ATOM     10  C   UNL d   1     -54.724-102.830 -43.067  0.00  0.00     0.000 A 
ENDROOT
BRANCH   2  11
ATOM     11  C   UNL d   1     -55.580 -99.365 -44.317  0.00  0.00     0.153 C 
ATOM     12  S   UNL d   1     -55.120 -98.756 -44.001  0.00  0.00    -0.056 SA
BRANCH  11  13
ATOM     13  N   UNL d   1     -56.257 -99.189 -44.753  0.00  0.00    -0.233 NA
BRANCH  13  14
ATOM     14  C   UNL d   1     -56.971 -99.046 -44.365  0.00  0.00     0.082 A 
ATOM     15  C   UNL d   1     -57.680 -99.026 -44.797  0.00  0.00     0.018 A 
ATOM     16  C   UNL d   1     -57.672 -99.148 -45.608  0.00  0.00     0.002 C 
ATOM     17  C   UNL d   1     -58.390 -98.882 -44.401  0.00  0.00     0.002 A 
ATOM     18  C   UNL d   1     -58.400 -98.760 -43.585  0.00  0.00     0.000 A 
ATOM     19  C   UNL d   1     -57.692 -98.781 -43.159  0.00  0.00     0.002 A 
ATOM     20  C   UNL d   1     -56.976 -98.924 -43.550  0.00  0.00     0.019 A 
ENDBRANCH  13  14
ENDBRANCH  11  13
ENDBRANCH   2  11
TORSDOF 3
ENDMDL
