MODEL 1
REMARK VINA RESULT:      -4.9      0.000      0.000
REMARK  6 active torsions:
REMARK  status: ('A' for Active; 'I' for Inactive)
REMARK    1  A    between atoms: C_4  and  N_1 
REMARK    2  A    between atoms: C_7  and  C_3 
REMARK    3  A    between atoms: N_13  and  C_4 
REMARK    4  A    between atoms: C_16  and  N_13 
REMARK    5  A    between atoms: C_20  and  C_16 
REMARK    6  A    between atoms: C_17  and  C_20 
ROOT
ATOM      1  N   UNL d   1      58.998  -1.391  29.325  0.00  0.00    -0.281 N 
ATOM      2  C   UNL d   1      60.166  -2.104  28.959  0.00  0.00     0.080 A 
ATOM      3  C   UNL d   1      59.803  -1.401  29.173  0.00  0.00     0.084 A 
ATOM      4  N   UNL d   1      59.726  -2.794  28.897  0.00  0.00    -0.301 N 
ATOM      5  C   UNL d   1      58.553  -2.086  29.263  0.00  0.00     0.101 A 
ATOM      6  C   UNL d   1      60.951  -2.284  28.776  0.00  0.00     0.021 A 
ATOM      7  C   UNL d   1      60.233  -3.407  28.676  0.00  0.00     0.080 A 
ATOM      8  C   UNL d   1      58.925  -2.787  29.048  0.00  0.00     0.100 A 
ATOM      9  C   UNL d   1      60.992  -3.095  28.599  0.00  0.00     0.021 A 
ENDROOT
BRANCH   1  10
ATOM     10  C   UNL d   1      58.621  -0.686  29.542  0.00  0.00     0.184 C 
ATOM     11  S   UNL d   1      58.386  -0.163  28.958  0.00  0.00    -0.040 SA
BRANCH  10  12
ATOM     12  N   UNL d   1      58.485  -0.514  30.331  0.00  0.00    -0.330 N 
ATOM     13  H   UNL d   1      59.121  -0.382  30.840  0.00  0.00     0.168 HD
BRANCH  12  14
ATOM     14  C   UNL d   1      57.716  -0.471  30.616  0.00  0.00     0.074 C 
BRANCH  14  15
ATOM     15  C   UNL d   1      57.541   0.007  31.227  0.00  0.00     0.018 C 
BRANCH  15  16
ATOM     16  C   UNL d   1      56.950  -0.118  31.793  0.00  0.00     0.002 A 
ATOM     17  C   UNL d   1      56.689   0.521  32.261  0.00  0.00     0.000 A 
ATOM     18  C   UNL d   1      56.100   0.400  32.826  0.00  0.00     0.000 A 
ATOM     19  C   UNL d   1      55.770  -0.353  32.928  0.00  0.00     0.000 A 
ATOM     20  C   UNL d   1      56.031  -0.992  32.462  0.00  0.00     0.000 A 
ATOM     21  C   UNL d   1      56.622  -0.864  31.896  0.00  0.00     0.000 A 
ENDBRANCH  15  16
ENDBRANCH  14  15
ENDBRANCH  12  14
ENDBRANCH  10  12
ENDBRANCH   1  10
BRANCH   3  22
ATOM     22  C   UNL d   1      60.243  -0.707  29.236  0.00  0.00     0.037 A 
ATOM     23  C   UNL d   1      60.266  -0.174  28.608  0.00  0.00     0.100 A 
ATOM     24  N   UNL d   1      60.707   0.516  28.678  0.00  0.00    -0.242 NA
ATOM     25  C   UNL d   1      61.120   0.680  29.354  0.00  0.00     0.099 A 
ATOM     26  C   UNL d   1      61.101   0.148  29.989  0.00  0.00     0.021 A 
ATOM     27  C   UNL d   1      60.661  -0.546  29.926  0.00  0.00     0.005 A 
ENDBRANCH   3  22
TORSDOF 6
ENDMDL
