MODEL 1
REMARK VINA RESULT:      -2.7      0.000      0.000
REMARK  6 active torsions:
REMARK  status: ('A' for Active; 'I' for Inactive)
REMARK       I    between atoms: N_2  and  C_4 
REMARK    1  A    between atoms: C_6  and  N_2 
REMARK    2  A    between atoms: C_12  and  C_3 
REMARK    3  A    between atoms: C_4  and  C_11 
REMARK    4  A    between atoms: O_13  and  C_9 
REMARK    5  A    between atoms: C_11  and  C_12 
REMARK    6  A    between atoms: C_17  and  O_13 
ROOT
ATOM      1  N   UNL d   1      31.032  15.899 -24.532  0.00  0.00    -0.206 NA
ATOM      2  C   UNL d   1      31.801  16.127 -24.346  0.00  0.00     0.279 C 
ATOM      3  O   UNL d   1      32.405  15.570 -24.336  0.00  0.00    -0.265 OA
ENDROOT
BRANCH   1   4
ATOM      4  C   UNL d   1      30.424  16.467 -24.541  0.00  0.00     0.107 A 
ATOM      5  C   UNL d   1      29.797  16.404 -24.012  0.00  0.00     0.118 A 
ATOM      6  C   UNL d   1      29.199  16.961 -24.019  0.00  0.00     0.026 A 
ATOM      7  C   UNL d   1      29.219  17.593 -24.558  0.00  0.00     0.002 A 
ATOM      8  C   UNL d   1      29.851  17.656 -25.091  0.00  0.00     0.002 A 
ATOM      9  C   UNL d   1      30.458  17.088 -25.082  0.00  0.00     0.021 A 
BRANCH   5  10
ATOM     10  O   UNL d   1      29.780  15.777 -23.479  0.00  0.00    -0.304 OA
BRANCH  10  11
ATOM     11  C   UNL d   1      29.105  15.623 -23.036  0.00  0.00     0.123 C 
ATOM     12  C   UNL d   1      29.161  15.453 -22.233  0.00  0.00     0.029 C 
ENDBRANCH  10  11
ENDBRANCH   5  10
ENDBRANCH   1   4
BRANCH   2  13
ATOM     13  C   UNL d   1      31.974  16.915 -24.169  0.00  0.00     0.065 C 
BRANCH  13  14
ATOM     14  C   UNL d   1      32.730  17.129 -23.936  0.00  0.00     0.030 C 
BRANCH  14  15
ATOM     15  C   UNL d   1      32.875  17.888 -23.642  0.00  0.00     0.100 A 
ATOM     16  O   UNL d   1      32.770  18.150 -22.863  0.00  0.00    -0.307 OA
ATOM     17  C   UNL d   1      32.982  18.938 -22.820  0.00  0.00     0.100 A 
ATOM     18  C   UNL d   1      33.222  19.177 -23.577  0.00  0.00     0.027 A 
ATOM     19  C   UNL d   1      32.961  19.411 -22.152  0.00  0.00     0.027 C 
ATOM     20  C   UNL d   1      33.156  18.529 -24.084  0.00  0.00     0.027 A 
ENDBRANCH  14  15
ENDBRANCH  13  14
ENDBRANCH   2  13
TORSDOF 6
ENDMDL
MODEL 2
REMARK VINA RESULT:      -2.4      1.283      2.090
REMARK  6 active torsions:
REMARK  status: ('A' for Active; 'I' for Inactive)
REMARK       I    between atoms: N_2  and  C_4 
REMARK    1  A    between atoms: C_6  and  N_2 
REMARK    2  A    between atoms: C_12  and  C_3 
REMARK    3  A    between atoms: C_4  and  C_11 
REMARK    4  A    between atoms: O_13  and  C_9 
REMARK    5  A    between atoms: C_11  and  C_12 
REMARK    6  A    between atoms: C_17  and  O_13 
ROOT
ATOM      1  N   UNL d   1      31.603  17.707 -24.867  0.00  0.00    -0.206 NA
ATOM      2  C   UNL d   1      32.075  18.329 -24.604  0.00  0.00     0.279 C 
ATOM      3  O   UNL d   1      32.223  18.971 -25.095  0.00  0.00    -0.265 OA
ENDROOT
BRANCH   1   4
ATOM      4  C   UNL d   1      31.457  17.060 -24.365  0.00  0.00     0.107 A 
ATOM      5  C   UNL d   1      30.690  16.902 -24.115  0.00  0.00     0.118 A 
ATOM      6  C   UNL d   1      30.544  16.266 -23.622  0.00  0.00     0.026 A 
ATOM      7  C   UNL d   1      31.167  15.777 -23.371  0.00  0.00     0.002 A 
ATOM      8  C   UNL d   1      31.940  15.937 -23.623  0.00  0.00     0.002 A 
ATOM      9  C   UNL d   1      32.086  16.584 -24.125  0.00  0.00     0.021 A 
BRANCH   5  10
ATOM     10  O   UNL d   1      30.074  17.388 -24.366  0.00  0.00    -0.304 OA
BRANCH  10  11
ATOM     11  C   UNL d   1      29.294  17.138 -24.307  0.00  0.00     0.123 C 
ATOM     12  C   UNL d   1      28.676  17.682 -24.338  0.00  0.00     0.029 C 
ENDBRANCH  10  11
ENDBRANCH   5  10
ENDBRANCH   1   4
BRANCH   2  13
ATOM     13  C   UNL d   1      32.404  18.315 -23.847  0.00  0.00     0.065 C 
BRANCH  13  14
ATOM     14  C   UNL d   1      33.011  18.830 -23.651  0.00  0.00     0.030 C 
BRANCH  14  15
ATOM     15  C   UNL d   1      33.051  19.156 -22.892  0.00  0.00     0.100 A 
ATOM     16  O   UNL d   1      32.912  19.944 -22.679  0.00  0.00    -0.307 OA
ATOM     17  C   UNL d   1      33.014  20.020 -21.872  0.00  0.00     0.100 A 
ATOM     18  C   UNL d   1      33.218  19.275 -21.571  0.00  0.00     0.027 A 
ATOM     19  C   UNL d   1      32.929  20.708 -21.435  0.00  0.00     0.027 C 
ATOM     20  C   UNL d   1      33.241  18.742 -22.201  0.00  0.00     0.027 A 
ENDBRANCH  14  15
ENDBRANCH  13  14
ENDBRANCH   2  13
TORSDOF 6
ENDMDL
MODEL 3
REMARK VINA RESULT:      -1.2      2.120      3.789
REMARK  6 active torsions:
REMARK  status: ('A' for Active; 'I' for Inactive)
REMARK       I    between atoms: N_2  and  C_4 
REMARK    1  A    between atoms: C_6  and  N_2 
REMARK    2  A    between atoms: C_12  and  C_3 
REMARK    3  A    between atoms: C_4  and  C_11 
REMARK    4  A    between atoms: O_13  and  C_9 
REMARK    5  A    between atoms: C_11  and  C_12 
REMARK    6  A    between atoms: C_17  and  O_13 
ROOT
ATOM      1  N   UNL d   1      33.072  18.637 -22.657  0.00  0.00    -0.206 NA
ATOM      2  C   UNL d   1      33.062  19.157 -22.019  0.00  0.00     0.279 C 
ATOM      3  O   UNL d   1      33.241  18.888 -21.264  0.00  0.00    -0.265 OA
ENDROOT
BRANCH   1   4
ATOM      4  C   UNL d   1      32.890  18.915 -23.419  0.00  0.00     0.107 A 
ATOM      5  C   UNL d   1      32.364  18.495 -23.892  0.00  0.00     0.118 A 
ATOM      6  C   UNL d   1      32.183  18.767 -24.642  0.00  0.00     0.026 A 
ATOM      7  C   UNL d   1      32.529  19.465 -24.931  0.00  0.00     0.002 A 
ATOM      8  C   UNL d   1      33.058  19.887 -24.454  0.00  0.00     0.002 A 
ATOM      9  C   UNL d   1      33.241  19.609 -23.692  0.00  0.00     0.021 A 
BRANCH   5  10
ATOM     10  O   UNL d   1      32.024  17.803 -23.604  0.00  0.00    -0.304 OA
BRANCH  10  11
ATOM     11  C   UNL d   1      31.665  17.269 -24.115  0.00  0.00     0.123 C 
ATOM     12  C   UNL d   1      31.246  16.624 -23.820  0.00  0.00     0.029 C 
ENDBRANCH  10  11
ENDBRANCH   5  10
ENDBRANCH   1   4
BRANCH   2  13
ATOM     13  C   UNL d   1      32.871  19.953 -22.130  0.00  0.00     0.065 C 
BRANCH  13  14
ATOM     14  C   UNL d   1      32.530  20.385 -21.523  0.00  0.00     0.030 C 
BRANCH  14  15
ATOM     15  C   UNL d   1      32.579  21.211 -21.520  0.00  0.00     0.100 A 
ATOM     16  O   UNL d   1      31.991  21.744 -21.288  0.00  0.00    -0.307 OA
ATOM     17  C   UNL d   1      32.277  22.505 -21.375  0.00  0.00     0.100 A 
ATOM     18  C   UNL d   1      33.052  22.452 -21.665  0.00  0.00     0.027 A 
ATOM     19  C   UNL d   1      31.873  23.197 -21.207  0.00  0.00     0.027 C 
ATOM     20  C   UNL d   1      33.239  21.653 -21.755  0.00  0.00     0.027 A 
ENDBRANCH  14  15
ENDBRANCH  13  14
ENDBRANCH   2  13
TORSDOF 6
ENDMDL
MODEL 4
REMARK VINA RESULT:      -0.7      2.744      5.318
REMARK  6 active torsions:
REMARK  status: ('A' for Active; 'I' for Inactive)
REMARK       I    between atoms: N_2  and  C_4 
REMARK    1  A    between atoms: C_6  and  N_2 
REMARK    2  A    between atoms: C_12  and  C_3 
REMARK    3  A    between atoms: C_4  and  C_11 
REMARK    4  A    between atoms: O_13  and  C_9 
REMARK    5  A    between atoms: C_11  and  C_12 
REMARK    6  A    between atoms: C_17  and  O_13 
ROOT
ATOM      1  N   UNL d   1      33.115  20.808 -21.285  0.00  0.00    -0.206 NA
ATOM      2  C   UNL d   1      33.089  20.007 -21.474  0.00  0.00     0.279 C 
ATOM      3  O   UNL d   1      33.153  19.441 -20.882  0.00  0.00    -0.265 OA
ENDROOT
BRANCH   1   4
ATOM      4  C   UNL d   1      33.049  21.376 -21.888  0.00  0.00     0.107 A 
ATOM      5  C   UNL d   1      32.795  22.138 -21.707  0.00  0.00     0.118 A 
ATOM      6  C   UNL d   1      32.730  22.698 -22.299  0.00  0.00     0.026 A 
ATOM      7  C   UNL d   1      32.919  22.504 -23.084  0.00  0.00     0.002 A 
ATOM      8  C   UNL d   1      33.176  21.738 -23.266  0.00  0.00     0.002 A 
ATOM      9  C   UNL d   1      33.241  21.169 -22.663  0.00  0.00     0.021 A 
BRANCH   5  10
ATOM     10  O   UNL d   1      32.608  22.327 -20.928  0.00  0.00    -0.304 OA
BRANCH  10  11
ATOM     11  C   UNL d   1      32.201  23.018 -20.752  0.00  0.00     0.123 C 
ATOM     12  C   UNL d   1      32.229  23.340 -19.995  0.00  0.00     0.029 C 
ENDBRANCH  10  11
ENDBRANCH   5  10
ENDBRANCH   1   4
BRANCH   2  13
ATOM     13  C   UNL d   1      32.999  19.764 -22.258  0.00  0.00     0.065 C 
BRANCH  13  14
ATOM     14  C   UNL d   1      33.067  18.971 -22.455  0.00  0.00     0.030 C 
BRANCH  14  15
ATOM     15  C   UNL d   1      32.786  18.697 -23.183  0.00  0.00     0.100 A 
ATOM     16  O   UNL d   1      32.014  18.460 -23.362  0.00  0.00    -0.307 OA
ATOM     17  C   UNL d   1      31.984  18.231 -24.146  0.00  0.00     0.100 A 
ATOM     18  C   UNL d   1      32.744  18.323 -24.465  0.00  0.00     0.027 A 
ATOM     19  C   UNL d   1      31.325  17.958 -24.548  0.00  0.00     0.027 C 
ATOM     20  C   UNL d   1      33.239  18.611 -23.871  0.00  0.00     0.027 A 
ENDBRANCH  14  15
ENDBRANCH  13  14
ENDBRANCH   2  13
TORSDOF 6
ENDMDL
