MODEL 1
REMARK VINA RESULT:      40.3      0.000      0.000
REMARK  3 active torsions:
REMARK  status: ('A' for Active; 'I' for Inactive)
REMARK    1  A    between atoms: C_4  and  C_1 
REMARK       I    between atoms: C_5  and  N_6 
REMARK    2  A    between atoms: C_8  and  C_5 
REMARK    3  A    between atoms: N_6  and  C_7 
ROOT
ATOM      1  C   UNL d   1      46.205 -17.537  42.055  0.00  0.00     0.042 A 
ATOM      2  C   UNL d   1      46.383 -18.338  42.155  0.00  0.00     0.087 A 
ATOM      3  C   UNL d   1      46.249 -17.204  41.302  0.00  0.00     0.004 A 
ATOM      4  C   UNL d   1      46.604 -18.803  41.512  0.00  0.00     0.019 A 
ATOM      5  C   UNL d   1      46.467 -17.658  40.653  0.00  0.00     0.000 A 
ATOM      6  C   UNL d   1      46.646 -18.465  40.760  0.00  0.00     0.002 A 
ENDROOT
BRANCH   1   7
ATOM      7  C   UNL d   1      45.984 -17.074  42.702  0.00  0.00     0.112 A 
ATOM      8  N   UNL d   1      45.403 -17.181  43.266  0.00  0.00    -0.238 NA
ATOM      9  C   UNL d   1      45.434 -16.540  43.782  0.00  0.00     0.088 A 
ATOM     10  C   UNL d   1      44.994 -16.345  44.446  0.00  0.00     0.020 A 
ATOM     11  C   UNL d   1      46.035 -16.043  43.530  0.00  0.00     0.049 A 
ATOM     12  C   UNL d   1      45.157 -15.649  44.860  0.00  0.00     0.002 A 
ATOM     13  C   UNL d   1      45.758 -15.153  44.607  0.00  0.00     0.001 A 
ATOM     14  C   UNL d   1      46.197 -15.347  43.944  0.00  0.00     0.008 A 
ATOM     15  S   UNL d   1      46.376 -16.380  42.855  0.00  0.00    -0.066 SA
ENDBRANCH   1   7
BRANCH   2  16
ATOM     16  N   UNL d   1      46.340 -18.672  42.908  0.00  0.00    -0.206 NA
ATOM     17  C   UNL d   1      46.093 -19.464  42.998  0.00  0.00     0.302 C 
ATOM     18  O   UNL d   1      45.894 -19.908  42.335  0.00  0.00    -0.263 OA
BRANCH  17  19
ATOM     19  C   UNL d   1      46.048 -19.801  43.750  0.00  0.00     0.158 A 
ATOM     20  O   UNL d   1      46.632 -20.022  44.295  0.00  0.00    -0.300 OA
ATOM     21  C   UNL d   1      46.254 -20.330  44.950  0.00  0.00     0.123 A 
ATOM     22  C   UNL d   1      45.439 -20.308  44.827  0.00  0.00     0.029 A 
ATOM     23  C   UNL d   1      45.314 -19.979  44.081  0.00  0.00     0.032 A 
ENDBRANCH  17  19
ENDBRANCH   2  16
TORSDOF 3
ENDMDL
