MODEL 1
REMARK VINA RESULT:      28.1      0.000      0.000
REMARK  2 active torsions:
REMARK  status: ('A' for Active; 'I' for Inactive)
REMARK    1  A    between atoms: C_6  and  C_1 
REMARK    2  A    between atoms: C_8  and  C_6 
ROOT
ATOM      1  C   UNL d   1     -51.089  25.062  33.444  0.00  0.00     0.141 A 
ATOM      2  C   UNL d   1     -52.309  24.507  33.401  0.00  0.00     0.064 A 
ATOM      3  C   UNL d   1     -51.499  24.345  33.426  0.00  0.00     0.220 A 
ATOM      4  C   UNL d   1     -52.401  25.327  33.404  0.00  0.00     0.106 A 
ATOM      5  O   UNL d   1     -51.651  25.675  33.431  0.00  0.00    -0.304 OA
ATOM      6  C   UNL d   1     -52.974  24.011  33.377  0.00  0.00     0.008 A 
ATOM      7  C   UNL d   1     -53.157  25.658  33.383  0.00  0.00     0.067 A 
ATOM      8  C   UNL d   1     -53.728  24.341  33.355  0.00  0.00     0.042 A 
ATOM      9  C   UNL d   1     -53.819  25.161  33.358  0.00  0.00     0.198 A 
ATOM     10  O   UNL d   1     -51.152  23.592  33.432  0.00  0.00    -0.284 OA
ATOM     11  O   UNL d   1     -54.572  25.493  33.337  0.00  0.00    -0.286 OA
ATOM     12  C   UNL d   1     -52.879  23.190  33.374  0.00  0.00     0.000 C 
ENDROOT
BRANCH   1  13
ATOM     13  C   UNL d   1     -50.270  25.161  33.471  0.00  0.00     0.053 C 
BRANCH  13  14
ATOM     14  C   UNL d   1     -49.941  25.913  33.433  0.00  0.00     0.102 A 
ATOM     15  O   UNL d   1     -50.365  26.621  33.426  0.00  0.00    -0.305 OA
ATOM     16  C   UNL d   1     -49.817  27.237  33.384  0.00  0.00     0.123 A 
ATOM     17  C   UNL d   1     -49.065  26.911  33.364  0.00  0.00     0.029 A 
ATOM     18  C   UNL d   1     -49.140  26.086  33.395  0.00  0.00     0.027 A 
ENDBRANCH  13  14
ENDBRANCH   1  13
TORSDOF 2
ENDMDL
MODEL 2
REMARK VINA RESULT:      29.3      1.180      1.578
REMARK  2 active torsions:
REMARK  status: ('A' for Active; 'I' for Inactive)
REMARK    1  A    between atoms: C_6  and  C_1 
REMARK    2  A    between atoms: C_8  and  C_6 
ROOT
ATOM      1  C   UNL d   1     -50.829  25.771  33.307  0.00  0.00     0.141 A 
ATOM      2  C   UNL d   1     -51.229  24.491  33.309  0.00  0.00     0.064 A 
ATOM      3  C   UNL d   1     -50.569  24.988  33.308  0.00  0.00     0.220 A 
ATOM      4  C   UNL d   1     -51.901  24.969  33.309  0.00  0.00     0.106 A 
ATOM      5  O   UNL d   1     -51.661  25.760  33.308  0.00  0.00    -0.304 OA
ATOM      6  C   UNL d   1     -51.302  23.664  33.310  0.00  0.00     0.008 A 
ATOM      7  C   UNL d   1     -52.653  24.626  33.311  0.00  0.00     0.067 A 
ATOM      8  C   UNL d   1     -52.051  23.322  33.312  0.00  0.00     0.042 A 
ATOM      9  C   UNL d   1     -52.724  23.800  33.312  0.00  0.00     0.198 A 
ATOM     10  O   UNL d   1     -49.775  24.745  33.307  0.00  0.00    -0.284 OA
ATOM     11  O   UNL d   1     -53.473  23.460  33.313  0.00  0.00    -0.286 OA
ATOM     12  C   UNL d   1     -50.627  23.188  33.310  0.00  0.00     0.000 C 
ENDROOT
BRANCH   1  13
ATOM     13  C   UNL d   1     -50.358  26.448  33.306  0.00  0.00     0.053 C 
BRANCH  13  14
ATOM     14  C   UNL d   1     -50.148  26.810  34.013  0.00  0.00     0.102 A 
ATOM     15  O   UNL d   1     -49.441  27.214  34.152  0.00  0.00    -0.305 OA
ATOM     16  C   UNL d   1     -49.463  27.487  34.931  0.00  0.00     0.123 A 
ATOM     17  C   UNL d   1     -50.173  27.254  35.266  0.00  0.00     0.029 A 
ATOM     18  C   UNL d   1     -50.602  26.832  34.696  0.00  0.00     0.027 A 
ENDBRANCH  13  14
ENDBRANCH   1  13
TORSDOF 2
ENDMDL
