MODEL 1
REMARK VINA RESULT:      -9.0      0.000      0.000
REMARK  4 active torsions:
REMARK  status: ('A' for Active; 'I' for Inactive)
REMARK    1  A    between atoms: N_6  and  C_2 
REMARK    2  A    between atoms: C_7  and  C_3 
REMARK    3  A    between atoms: C_10  and  N_6 
REMARK    4  A    between atoms: O_14  and  C_11 
ROOT
ATOM      1  N   UNL d   1      52.960  33.181  53.208  0.00  0.00    -0.221 NA
ATOM      2  C   UNL d   1      53.389  32.485  53.289  0.00  0.00     0.194 A 
ATOM      3  C   UNL d   1      52.205  32.975  52.977  0.00  0.00     0.090 A 
ATOM      4  S   UNL d   1      52.885  31.870  53.105  0.00  0.00    -0.046 SA
ATOM      5  C   UNL d   1      52.155  32.162  52.912  0.00  0.00     0.058 A 
ENDROOT
BRANCH   3   6
ATOM      6  C   UNL d   1      51.546  33.444  52.816  0.00  0.00     0.018 A 
ATOM      7  C   UNL d   1      50.909  33.431  53.276  0.00  0.00     0.004 A 
ATOM      8  C   UNL d   1      50.251  33.912  53.100  0.00  0.00     0.024 A 
ATOM      9  C   UNL d   1      50.275  34.377  52.470  0.00  0.00     0.094 A 
ATOM     10  C   UNL d   1      50.922  34.408  51.979  0.00  0.00     0.024 A 
ATOM     11  C   UNL d   1      51.580  33.939  52.140  0.00  0.00     0.004 A 
BRANCH   9  12
ATOM     12  O   UNL d   1      49.596  34.864  52.300  0.00  0.00    -0.328 OA
ATOM     13  C   UNL d   1      49.077  34.614  51.703  0.00  0.00     0.181 C 
ENDBRANCH   9  12
ENDBRANCH   3   6
BRANCH   2  14
ATOM     14  N   UNL d   1      54.184  32.439  53.516  0.00  0.00    -0.221 NA
BRANCH  14  15
ATOM     15  C   UNL d   1      54.439  32.834  54.183  0.00  0.00     0.084 A 
ATOM     16  C   UNL d   1      54.168  32.618  54.942  0.00  0.00     0.019 A 
ATOM     17  C   UNL d   1      54.423  33.016  55.634  0.00  0.00     0.002 A 
ATOM     18  C   UNL d   1      54.960  33.643  55.562  0.00  0.00     0.000 A 
ATOM     19  C   UNL d   1      55.241  33.868  54.781  0.00  0.00     0.002 A 
ATOM     20  C   UNL d   1      54.986  33.472  54.109  0.00  0.00     0.019 A 
ENDBRANCH  14  15
ENDBRANCH   2  14
TORSDOF 4
ENDMDL
MODEL 2
REMARK VINA RESULT:      -8.6      1.484      2.337
REMARK  4 active torsions:
REMARK  status: ('A' for Active; 'I' for Inactive)
REMARK    1  A    between atoms: N_6  and  C_2 
REMARK    2  A    between atoms: C_7  and  C_3 
REMARK    3  A    between atoms: C_10  and  N_6 
REMARK    4  A    between atoms: O_14  and  C_11 
ROOT
ATOM      1  N   UNL d   1      52.669  32.344  52.921  0.00  0.00    -0.221 NA
ATOM      2  C   UNL d   1      53.361  32.168  53.327  0.00  0.00     0.194 A 
ATOM      3  C   UNL d   1      52.401  33.062  53.201  0.00  0.00     0.090 A 
ATOM      4  S   UNL d   1      53.499  32.783  53.845  0.00  0.00    -0.046 SA
ATOM      5  C   UNL d   1      52.913  33.338  53.774  0.00  0.00     0.058 A 
ENDROOT
BRANCH   3   6
ATOM      6  C   UNL d   1      51.735  33.504  52.993  0.00  0.00     0.018 A 
ATOM      7  C   UNL d   1      51.760  34.042  52.422  0.00  0.00     0.004 A 
ATOM      8  C   UNL d   1      51.079  34.480  52.224  0.00  0.00     0.024 A 
ATOM      9  C   UNL d   1      50.413  34.349  52.615  0.00  0.00     0.094 A 
ATOM     10  C   UNL d   1      50.362  33.798  53.210  0.00  0.00     0.024 A 
ATOM     11  C   UNL d   1      51.026  33.356  53.417  0.00  0.00     0.004 A 
BRANCH   9  12
ATOM     12  O   UNL d   1      49.723  34.803  52.404  0.00  0.00    -0.328 OA
ATOM     13  C   UNL d   1      49.237  34.515  51.797  0.00  0.00     0.181 C 
ENDBRANCH   9  12
ENDBRANCH   3   6
BRANCH   2  14
ATOM     14  N   UNL d   1      53.819  31.487  53.216  0.00  0.00    -0.221 NA
BRANCH  14  15
ATOM     15  C   UNL d   1      53.515  30.756  53.418  0.00  0.00     0.084 A 
ATOM     16  C   UNL d   1      53.616  30.446  54.186  0.00  0.00     0.019 A 
ATOM     17  C   UNL d   1      53.309  29.697  54.405  0.00  0.00     0.002 A 
ATOM     18  C   UNL d   1      52.894  29.253  53.843  0.00  0.00     0.000 A 
ATOM     19  C   UNL d   1      52.789  29.571  53.050  0.00  0.00     0.002 A 
ATOM     20  C   UNL d   1      53.093  30.305  52.845  0.00  0.00     0.019 A 
ENDBRANCH  14  15
ENDBRANCH   2  14
TORSDOF 4
ENDMDL
MODEL 3
REMARK VINA RESULT:      -8.4      2.252      4.327
REMARK  4 active torsions:
REMARK  status: ('A' for Active; 'I' for Inactive)
REMARK    1  A    between atoms: N_6  and  C_2 
REMARK    2  A    between atoms: C_7  and  C_3 
REMARK    3  A    between atoms: C_10  and  N_6 
REMARK    4  A    between atoms: O_14  and  C_11 
ROOT
ATOM      1  N   UNL d   1      52.594  32.688  53.546  0.00  0.00    -0.221 NA
ATOM      2  C   UNL d   1      52.890  33.422  53.324  0.00  0.00     0.194 A 
ATOM      3  C   UNL d   1      53.196  32.146  53.454  0.00  0.00     0.090 A 
ATOM      4  S   UNL d   1      53.667  33.310  53.102  0.00  0.00    -0.046 SA
ATOM      5  C   UNL d   1      53.864  32.528  53.178  0.00  0.00     0.058 A 
ENDROOT
BRANCH   3   6
ATOM      6  C   UNL d   1      53.212  31.333  53.592  0.00  0.00     0.018 A 
ATOM      7  C   UNL d   1      53.581  31.029  54.216  0.00  0.00     0.004 A 
ATOM      8  C   UNL d   1      53.588  30.205  54.342  0.00  0.00     0.024 A 
ATOM      9  C   UNL d   1      53.223  29.736  53.831  0.00  0.00     0.094 A 
ATOM     10  C   UNL d   1      52.835  30.027  53.179  0.00  0.00     0.024 A 
ATOM     11  C   UNL d   1      52.819  30.839  53.040  0.00  0.00     0.004 A 
BRANCH   9  12
ATOM     12  O   UNL d   1      53.237  28.895  53.971  0.00  0.00    -0.328 OA
ATOM     13  C   UNL d   1      53.357  28.631  54.748  0.00  0.00     0.181 C 
ENDBRANCH   9  12
ENDBRANCH   3   6
BRANCH   2  14
ATOM     14  N   UNL d   1      52.462  34.130  53.332  0.00  0.00    -0.221 NA
BRANCH  14  15
ATOM     15  C   UNL d   1      51.753  34.181  52.931  0.00  0.00     0.084 A 
ATOM     16  C   UNL d   1      51.025  34.134  53.335  0.00  0.00     0.019 A 
ATOM     17  C   UNL d   1      50.290  34.185  52.933  0.00  0.00     0.002 A 
ATOM     18  C   UNL d   1      50.289  34.285  52.111  0.00  0.00     0.000 A 
ATOM     19  C   UNL d   1      51.038  34.334  51.692  0.00  0.00     0.002 A 
ATOM     20  C   UNL d   1      51.752  34.283  52.094  0.00  0.00     0.019 A 
ENDBRANCH  14  15
ENDBRANCH   2  14
TORSDOF 4
ENDMDL
MODEL 4
REMARK VINA RESULT:      -8.2      2.276      3.208
REMARK  4 active torsions:
REMARK  status: ('A' for Active; 'I' for Inactive)
REMARK    1  A    between atoms: N_6  and  C_2 
REMARK    2  A    between atoms: C_7  and  C_3 
REMARK    3  A    between atoms: C_10  and  N_6 
REMARK    4  A    between atoms: O_14  and  C_11 
ROOT
ATOM      1  N   UNL d   1      53.110  32.452  53.069  0.00  0.00    -0.221 NA
ATOM      2  C   UNL d   1      52.641  31.822  52.828  0.00  0.00     0.194 A 
ATOM      3  C   UNL d   1      52.610  33.055  53.293  0.00  0.00     0.090 A 
ATOM      4  S   UNL d   1      51.864  32.056  52.911  0.00  0.00    -0.046 SA
ATOM      5  C   UNL d   1      51.835  32.813  53.196  0.00  0.00     0.058 A 
ENDROOT
BRANCH   3   6
ATOM      6  C   UNL d   1      52.775  33.811  53.579  0.00  0.00     0.018 A 
ATOM      7  C   UNL d   1      52.646  34.453  53.143  0.00  0.00     0.004 A 
ATOM      8  C   UNL d   1      52.818  35.210  53.447  0.00  0.00     0.024 A 
ATOM      9  C   UNL d   1      53.110  35.275  54.172  0.00  0.00     0.094 A 
ATOM     10  C   UNL d   1      53.251  34.626  54.641  0.00  0.00     0.024 A 
ATOM     11  C   UNL d   1      53.086  33.871  54.355  0.00  0.00     0.004 A 
BRANCH   9  12
ATOM     12  O   UNL d   1      53.281  36.055  54.471  0.00  0.00    -0.328 OA
ATOM     13  C   UNL d   1      52.816  36.345  55.093  0.00  0.00     0.181 C 
ENDBRANCH   9  12
ENDBRANCH   3   6
BRANCH   2  14
ATOM     14  N   UNL d   1      52.925  31.093  52.556  0.00  0.00    -0.221 NA
BRANCH  14  15
ATOM     15  C   UNL d   1      53.031  30.477  53.080  0.00  0.00     0.084 A 
ATOM     16  C   UNL d   1      53.739  30.400  53.515  0.00  0.00     0.019 A 
ATOM     17  C   UNL d   1      53.860  29.771  54.057  0.00  0.00     0.002 A 
ATOM     18  C   UNL d   1      53.260  29.211  54.163  0.00  0.00     0.000 A 
ATOM     19  C   UNL d   1      52.529  29.288  53.715  0.00  0.00     0.002 A 
ATOM     20  C   UNL d   1      52.420  29.907  53.187  0.00  0.00     0.019 A 
ENDBRANCH  14  15
ENDBRANCH   2  14
TORSDOF 4
ENDMDL
