MODEL 1
REMARK VINA RESULT:      -3.6      0.000      0.000
REMARK  5 active torsions:
REMARK  status: ('A' for Active; 'I' for Inactive)
REMARK    1  A    between atoms: C_12  and  N_1 
REMARK    2  A    between atoms: S_9  and  C_2 
REMARK       I    between atoms: N_7  and  C_10 
REMARK    3  A    between atoms: C_19  and  N_8 
REMARK    4  A    between atoms: C_14  and  S_9 
REMARK    5  A    between atoms: C_10  and  C_14 
ROOT
ATOM      1  N   UNL d   1      59.897  -1.643  29.235  0.00  0.00    -0.254 N 
ATOM      2  C   UNL d   1      59.087  -1.601  29.081  0.00  0.00     0.182 A 
ATOM      3  C   UNL d   1      60.296  -2.360  29.152  0.00  0.00     0.274 A 
ATOM      4  C   UNL d   1      59.887  -3.031  28.915  0.00  0.00     0.104 A 
ATOM      5  N   UNL d   1      58.677  -2.278  28.844  0.00  0.00    -0.222 NA
ATOM      6  C   UNL d   1      59.077  -2.990  28.761  0.00  0.00     0.095 A 
ATOM      7  S   UNL d   1      60.129  -3.808  28.786  0.00  0.00    -0.080 SA
ATOM      8  O   UNL d   1      61.106  -2.401  29.305  0.00  0.00    -0.266 OA
ATOM      9  C   UNL d   1      58.820  -3.741  28.538  0.00  0.00     0.027 A 
ATOM     10  C   UNL d   1      59.464  -4.243  28.553  0.00  0.00     0.037 A 
ENDROOT
BRANCH   2  11
ATOM     11  S   UNL d   1      58.678  -0.879  29.164  0.00  0.00    -0.044 SA
BRANCH  11  12
ATOM     12  C   UNL d   1      57.981  -0.853  29.606  0.00  0.00     0.099 C 
BRANCH  12  13
ATOM     13  C   UNL d   1      57.696  -0.130  29.885  0.00  0.00     0.272 C 
ATOM     14  N   UNL d   1      57.344  -0.086  30.630  0.00  0.00    -0.269 N 
ATOM     15  C   UNL d   1      57.278  -0.764  31.096  0.00  0.00     0.102 A 
ATOM     16  C   UNL d   1      57.060   0.637  30.909  0.00  0.00     0.102 A 
ATOM     17  C   UNL d   1      56.927  -0.710  31.836  0.00  0.00     0.100 A 
ATOM     18  N   UNL d   1      56.644   0.004  32.116  0.00  0.00    -0.301 N 
ATOM     19  C   UNL d   1      56.710   0.682  31.650  0.00  0.00     0.100 A 
ATOM     20  O   UNL d   1      57.762   0.548  29.418  0.00  0.00    -0.266 OA
BRANCH  18  21
ATOM     21  C   UNL d   1      56.292   0.049  32.861  0.00  0.00     0.064 A 
ATOM     22  C   UNL d   1      55.486  -0.106  32.947  0.00  0.00     0.018 A 
ATOM     23  C   UNL d   1      55.134  -0.061  33.692  0.00  0.00     0.002 A 
ATOM     24  C   UNL d   1      55.590   0.138  34.351  0.00  0.00     0.000 A 
ATOM     25  C   UNL d   1      56.396   0.292  34.266  0.00  0.00     0.002 A 
ATOM     26  C   UNL d   1      56.747   0.248  33.521  0.00  0.00     0.018 A 
ENDBRANCH  18  21
ENDBRANCH  12  13
ENDBRANCH  11  12
ENDBRANCH   2  11
BRANCH   1  27
ATOM     27  C   UNL d   1      60.306  -0.975  29.471  0.00  0.00     0.069 A 
ATOM     28  C   UNL d   1      60.556  -0.422  28.912  0.00  0.00     0.018 A 
ATOM     29  C   UNL d   1      60.969   0.251  29.153  0.00  0.00     0.002 A 
ATOM     30  C   UNL d   1      61.131   0.370  29.954  0.00  0.00     0.000 A 
ATOM     31  C   UNL d   1      60.881  -0.182  30.513  0.00  0.00     0.002 A 
ATOM     32  C   UNL d   1      60.468  -0.855  30.271  0.00  0.00     0.018 A 
ENDBRANCH   1  27
TORSDOF 5
ENDMDL
