MODEL 1
REMARK VINA RESULT:      77.8      0.000      0.000
REMARK  3 active torsions:
REMARK  status: ('A' for Active; 'I' for Inactive)
REMARK    1  A    between atoms: N_9  and  C_3 
REMARK    2  A    between atoms: C_14  and  C_4 
REMARK       I    between atoms: C_10  and  N_11 
REMARK    3  A    between atoms: C_13  and  C_10 
ROOT
ATOM      1  N   UNL d   1     -50.775  25.991  33.742  0.00  0.00    -0.196 N 
ATOM      2  C   UNL d   1     -51.034  25.219  33.646  0.00  0.00     0.167 A 
ATOM      3  C   UNL d   1     -49.969  26.168  33.703  0.00  0.00     0.152 A 
ATOM      4  C   UNL d   1     -51.852  25.214  33.712  0.00  0.00     0.057 A 
ATOM      5  N   UNL d   1     -51.432  26.467  33.869  0.00  0.00    -0.161 NA
ATOM      6  N   UNL d   1     -50.491  24.612  33.509  0.00  0.00    -0.227 NA
ATOM      7  C   UNL d   1     -49.423  25.559  33.565  0.00  0.00     0.057 A 
ATOM      8  C   UNL d   1     -52.097  25.979  33.849  0.00  0.00     0.124 A 
ATOM      9  C   UNL d   1     -49.682  24.787  33.469  0.00  0.00     0.086 A 
ATOM     10  C   UNL d   1     -49.126  24.181  33.331  0.00  0.00     0.021 C 
ENDROOT
BRANCH   3  11
ATOM     11  N   UNL d   1     -49.710  26.940  33.800  0.00  0.00    -0.286 N 
ATOM     12  C   UNL d   1     -49.157  27.131  34.374  0.00  0.00     0.101 A 
ATOM     13  C   UNL d   1     -48.898  27.913  34.469  0.00  0.00     0.102 A 
ATOM     14  N   UNL d   1     -49.202  28.504  33.977  0.00  0.00    -0.267 N 
ATOM     15  C   UNL d   1     -48.946  29.293  34.066  0.00  0.00     0.288 C 
ATOM     16  C   UNL d   1     -49.754  28.318  33.404  0.00  0.00     0.102 A 
ATOM     17  O   UNL d   1     -49.243  29.887  33.582  0.00  0.00    -0.264 OA
ATOM     18  C   UNL d   1     -50.013  27.537  33.309  0.00  0.00     0.101 A 
BRANCH  15  19
ATOM     19  C   UNL d   1     -48.389  29.477  34.646  0.00  0.00     0.156 A 
ATOM     20  O   UNL d   1     -48.080  30.187  34.907  0.00  0.00    -0.300 OA
ATOM     21  C   UNL d   1     -47.533  30.028  35.510  0.00  0.00     0.123 A 
ATOM     22  C   UNL d   1     -47.513  29.229  35.613  0.00  0.00     0.029 A 
ATOM     23  C   UNL d   1     -48.037  28.881  35.085  0.00  0.00     0.032 A 
ENDBRANCH  15  19
ENDBRANCH   3  11
BRANCH   4  24
ATOM     24  C   UNL d   1     -52.407  24.606  33.665  0.00  0.00     0.004 A 
ATOM     25  C   UNL d   1     -53.164  24.759  33.357  0.00  0.00     0.000 A 
ATOM     26  C   UNL d   1     -53.719  24.152  33.310  0.00  0.00     0.000 A 
ATOM     27  C   UNL d   1     -53.528  23.391  33.568  0.00  0.00     0.000 A 
ATOM     28  C   UNL d   1     -52.775  23.237  33.875  0.00  0.00     0.000 A 
ATOM     29  C   UNL d   1     -52.220  23.845  33.922  0.00  0.00     0.000 A 
ENDBRANCH   4  24
TORSDOF 3
ENDMDL
