MODEL 1
REMARK VINA RESULT:      -5.2      0.000      0.000
REMARK  7 active torsions:
REMARK  status: ('A' for Active; 'I' for Inactive)
REMARK    1  A    between atoms: N_3  and  C_1 
REMARK       I    between atoms: C_7  and  N_3 
REMARK    2  A    between atoms: C_11  and  N_3 
REMARK    3  A    between atoms: S_5  and  C_10 
REMARK    4  A    between atoms: C_14  and  S_5 
REMARK    5  A    between atoms: C_9  and  C_7 
REMARK    6  A    between atoms: C_10  and  C_9 
REMARK    7  A    between atoms: C_18  and  C_11 
ROOT
ATOM      1  N   UNL d   1     -48.084  13.620  23.010  0.00  0.00    -0.253 N 
ATOM      2  C   UNL d   1     -47.400  13.849  22.582  0.00  0.00     0.267 C 
ATOM      3  O   UNL d   1     -47.411  14.545  22.145  0.00  0.00    -0.267 OA
ENDROOT
BRANCH   1   4
ATOM      4  C   UNL d   1     -48.757  14.095  22.987  0.00  0.00     0.182 A 
ATOM      5  N   UNL d   1     -49.306  14.140  22.366  0.00  0.00    -0.219 NA
ATOM      6  C   UNL d   1     -49.894  14.686  22.578  0.00  0.00     0.117 A 
ATOM      7  C   UNL d   1     -50.559  14.940  22.177  0.00  0.00     0.158 A 
ATOM      8  C   UNL d   1     -49.711  14.977  23.322  0.00  0.00     0.052 A 
ATOM      9  F   UNL d   1     -50.744  14.652  21.435  0.00  0.00    -0.203 F 
ATOM     10  C   UNL d   1     -51.047  15.493  22.528  0.00  0.00     0.031 A 
ATOM     11  C   UNL d   1     -50.871  15.792  23.277  0.00  0.00     0.003 A 
ATOM     12  C   UNL d   1     -50.199  15.531  23.673  0.00  0.00     0.008 A 
ATOM     13  S   UNL d   1     -49.011  14.617  23.581  0.00  0.00    -0.048 SA
ENDBRANCH   1   4
BRANCH   1  14
ATOM     14  C   UNL d   1     -48.081  12.924  23.450  0.00  0.00     0.086 C 
BRANCH  14  15
ATOM     15  C   UNL d   1     -48.515  12.272  23.193  0.00  0.00     0.037 A 
ATOM     16  C   UNL d   1     -48.398  11.969  22.437  0.00  0.00     0.100 A 
ATOM     17  N   UNL d   1     -48.832  11.316  22.180  0.00  0.00    -0.242 NA
ATOM     18  C   UNL d   1     -49.385  10.966  22.680  0.00  0.00     0.099 A 
ATOM     19  C   UNL d   1     -49.505  11.269  23.440  0.00  0.00     0.021 A 
ATOM     20  C   UNL d   1     -49.070  11.921  23.697  0.00  0.00     0.005 A 
ENDBRANCH  14  15
ENDBRANCH   1  14
BRANCH   2  21
ATOM     21  C   UNL d   1     -46.732  13.375  22.605  0.00  0.00     0.073 C 
BRANCH  21  22
ATOM     22  C   UNL d   1     -46.008  13.677  22.338  0.00  0.00     0.104 C 
BRANCH  22  23
ATOM     23  S   UNL d   1     -45.344  13.184  22.300  0.00  0.00     0.211 S 
ATOM     24  O   UNL d   1     -45.273  13.337  21.479  0.00  0.00    -0.217 OA
ATOM     25  O   UNL d   1     -45.413  13.032  23.116  0.00  0.00    -0.217 OA
BRANCH  23  26
ATOM     26  C   UNL d   1     -44.677  12.691  22.260  0.00  0.00     0.088 A 
ATOM     27  C   UNL d   1     -44.614  12.045  22.770  0.00  0.00     0.011 A 
ATOM     28  C   UNL d   1     -43.955  11.553  22.734  0.00  0.00     0.001 A 
ATOM     29  C   UNL d   1     -43.359  11.707  22.187  0.00  0.00     0.000 A 
ATOM     30  C   UNL d   1     -43.417  12.344  21.681  0.00  0.00     0.001 A 
ATOM     31  C   UNL d   1     -44.078  12.843  21.713  0.00  0.00     0.011 A 
ENDBRANCH  23  26
ENDBRANCH  22  23
ENDBRANCH  21  22
ENDBRANCH   2  21
TORSDOF 7
ENDMDL
MODEL 2
REMARK VINA RESULT:      -3.9      7.639      9.916
REMARK  7 active torsions:
REMARK  status: ('A' for Active; 'I' for Inactive)
REMARK    1  A    between atoms: N_3  and  C_1 
REMARK       I    between atoms: C_7  and  N_3 
REMARK    2  A    between atoms: C_11  and  N_3 
REMARK    3  A    between atoms: S_5  and  C_10 
REMARK    4  A    between atoms: C_14  and  S_5 
REMARK    5  A    between atoms: C_9  and  C_7 
REMARK    6  A    between atoms: C_10  and  C_9 
REMARK    7  A    between atoms: C_18  and  C_11 
ROOT
ATOM      1  N   UNL d   1     -38.901  14.434  20.252  0.00  0.00    -0.253 N 
ATOM      2  C   UNL d   1     -38.497  13.943  19.706  0.00  0.00     0.267 C 
ATOM      3  O   UNL d   1     -37.944  13.401  19.982  0.00  0.00    -0.267 OA
ENDROOT
BRANCH   1   4
ATOM      4  C   UNL d   1     -38.741  14.366  21.057  0.00  0.00     0.182 A 
ATOM      5  N   UNL d   1     -38.985  13.750  21.558  0.00  0.00    -0.219 NA
ATOM      6  C   UNL d   1     -38.701  13.907  22.321  0.00  0.00     0.117 A 
ATOM      7  C   UNL d   1     -38.779  13.487  23.018  0.00  0.00     0.158 A 
ATOM      8  C   UNL d   1     -38.285  14.612  22.296  0.00  0.00     0.052 A 
ATOM      9  F   UNL d   1     -39.193  12.783  23.047  0.00  0.00    -0.203 F 
ATOM     10  C   UNL d   1     -38.433  13.781  23.698  0.00  0.00     0.031 A 
ATOM     11  C   UNL d   1     -38.012  14.490  23.682  0.00  0.00     0.003 A 
ATOM     12  C   UNL d   1     -37.940  14.905  22.976  0.00  0.00     0.008 A 
ATOM     13  S   UNL d   1     -38.305  14.901  21.519  0.00  0.00    -0.048 SA
ENDBRANCH   1   4
BRANCH   1  14
ATOM     14  C   UNL d   1     -39.456  14.979  19.983  0.00  0.00     0.086 C 
BRANCH  14  15
ATOM     15  C   UNL d   1     -40.251  14.896  20.189  0.00  0.00     0.037 A 
ATOM     16  C   UNL d   1     -40.639  15.499  20.592  0.00  0.00     0.100 A 
ATOM     17  N   UNL d   1     -41.434  15.415  20.797  0.00  0.00    -0.242 NA
ATOM     18  C   UNL d   1     -41.840  14.728  20.600  0.00  0.00     0.099 A 
ATOM     19  C   UNL d   1     -41.453  14.120  20.194  0.00  0.00     0.021 A 
ATOM     20  C   UNL d   1     -40.658  14.204  19.989  0.00  0.00     0.005 A 
ENDBRANCH  14  15
ENDBRANCH   1  14
BRANCH   2  21
ATOM     21  C   UNL d   1     -38.658  14.012  18.905  0.00  0.00     0.073 C 
BRANCH  21  22
ATOM     22  C   UNL d   1     -38.152  13.654  18.355  0.00  0.00     0.104 C 
BRANCH  22  23
ATOM     23  S   UNL d   1     -38.197  13.862  17.555  0.00  0.00     0.211 S 
ATOM     24  O   UNL d   1     -38.252  13.053  17.344  0.00  0.00    -0.217 OA
ATOM     25  O   UNL d   1     -38.144  14.667  17.763  0.00  0.00    -0.217 OA
BRANCH  23  26
ATOM     26  C   UNL d   1     -38.244  14.069  16.752  0.00  0.00     0.088 A 
ATOM     27  C   UNL d   1     -37.989  13.535  16.177  0.00  0.00     0.011 A 
ATOM     28  C   UNL d   1     -38.033  13.734  15.380  0.00  0.00     0.001 A 
ATOM     29  C   UNL d   1     -38.331  14.470  15.158  0.00  0.00     0.000 A 
ATOM     30  C   UNL d   1     -38.583  15.001  15.724  0.00  0.00     0.001 A 
ATOM     31  C   UNL d   1     -38.542  14.805  16.527  0.00  0.00     0.011 A 
ENDBRANCH  23  26
ENDBRANCH  22  23
ENDBRANCH  21  22
ENDBRANCH   2  21
TORSDOF 7
ENDMDL
MODEL 3
REMARK VINA RESULT:      -3.5      0.937      1.105
REMARK  7 active torsions:
REMARK  status: ('A' for Active; 'I' for Inactive)
REMARK    1  A    between atoms: N_3  and  C_1 
REMARK       I    between atoms: C_7  and  N_3 
REMARK    2  A    between atoms: C_11  and  N_3 
REMARK    3  A    between atoms: S_5  and  C_10 
REMARK    4  A    between atoms: C_14  and  S_5 
REMARK    5  A    between atoms: C_9  and  C_7 
REMARK    6  A    between atoms: C_10  and  C_9 
REMARK    7  A    between atoms: C_18  and  C_11 
ROOT
ATOM      1  N   UNL d   1     -47.737  13.377  22.712  0.00  0.00    -0.253 N 
ATOM      2  C   UNL d   1     -47.122  13.497  22.155  0.00  0.00     0.267 C 
ATOM      3  O   UNL d   1     -47.289  13.876  21.445  0.00  0.00    -0.267 OA
ENDROOT
BRANCH   1   4
ATOM      4  C   UNL d   1     -48.499  13.639  22.541  0.00  0.00     0.182 A 
ATOM      5  N   UNL d   1     -48.978  13.385  21.912  0.00  0.00    -0.219 NA
ATOM      6  C   UNL d   1     -49.698  13.795  21.951  0.00  0.00     0.117 A 
ATOM      7  C   UNL d   1     -50.361  13.760  21.475  0.00  0.00     0.158 A 
ATOM      8  C   UNL d   1     -49.668  14.298  22.598  0.00  0.00     0.052 A 
ATOM      9  F   UNL d   1     -50.395  13.260  20.829  0.00  0.00    -0.203 F 
ATOM     10  C   UNL d   1     -51.001  14.236  21.650  0.00  0.00     0.031 A 
ATOM     11  C   UNL d   1     -50.980  14.746  22.299  0.00  0.00     0.003 A 
ATOM     12  C   UNL d   1     -50.308  14.774  22.773  0.00  0.00     0.008 A 
ATOM     13  S   UNL d   1     -48.931  14.207  22.966  0.00  0.00    -0.048 SA
ENDBRANCH   1   4
BRANCH   1  14
ATOM     14  C   UNL d   1     -47.578  12.997  23.426  0.00  0.00     0.086 C 
BRANCH  14  15
ATOM     15  C   UNL d   1     -47.745  12.194  23.512  0.00  0.00     0.037 A 
ATOM     16  C   UNL d   1     -48.526  11.939  23.570  0.00  0.00     0.100 A 
ATOM     17  N   UNL d   1     -48.693  11.135  23.657  0.00  0.00    -0.242 NA
ATOM     18  C   UNL d   1     -48.080  10.588  23.686  0.00  0.00     0.099 A 
ATOM     19  C   UNL d   1     -47.295  10.841  23.628  0.00  0.00     0.021 A 
ATOM     20  C   UNL d   1     -47.127  11.645  23.541  0.00  0.00     0.005 A 
ENDBRANCH  14  15
ENDBRANCH   1  14
BRANCH   2  21
ATOM     21  C   UNL d   1     -46.365  13.235  22.327  0.00  0.00     0.073 C 
BRANCH  21  22
ATOM     22  C   UNL d   1     -45.712  13.645  22.022  0.00  0.00     0.104 C 
BRANCH  22  23
ATOM     23  S   UNL d   1     -44.981  13.263  21.950  0.00  0.00     0.211 S 
ATOM     24  O   UNL d   1     -45.299  12.759  21.360  0.00  0.00    -0.217 OA
ATOM     25  O   UNL d   1     -44.664  13.762  22.537  0.00  0.00    -0.217 OA
BRANCH  23  26
ATOM     26  C   UNL d   1     -44.249  12.878  21.876  0.00  0.00     0.088 A 
ATOM     27  C   UNL d   1     -44.110  12.179  22.292  0.00  0.00     0.011 A 
ATOM     28  C   UNL d   1     -43.386  11.794  22.222  0.00  0.00     0.001 A 
ATOM     29  C   UNL d   1     -42.801  12.108  21.735  0.00  0.00     0.000 A 
ATOM     30  C   UNL d   1     -42.934  12.799  21.323  0.00  0.00     0.001 A 
ATOM     31  C   UNL d   1     -43.661  13.192  21.389  0.00  0.00     0.011 A 
ENDBRANCH  23  26
ENDBRANCH  22  23
ENDBRANCH  21  22
ENDBRANCH   2  21
TORSDOF 7
ENDMDL
MODEL 4
REMARK VINA RESULT:      -3.5      1.938      2.797
REMARK  7 active torsions:
REMARK  status: ('A' for Active; 'I' for Inactive)
REMARK    1  A    between atoms: N_3  and  C_1 
REMARK       I    between atoms: C_7  and  N_3 
REMARK    2  A    between atoms: C_11  and  N_3 
REMARK    3  A    between atoms: S_5  and  C_10 
REMARK    4  A    between atoms: C_14  and  S_5 
REMARK    5  A    between atoms: C_9  and  C_7 
REMARK    6  A    between atoms: C_10  and  C_9 
REMARK    7  A    between atoms: C_18  and  C_11 
ROOT
ATOM      1  N   UNL d   1     -47.654  12.331  23.396  0.00  0.00    -0.253 N 
ATOM      2  C   UNL d   1     -47.317  11.564  23.393  0.00  0.00     0.267 C 
ATOM      3  O   UNL d   1     -47.757  10.931  23.107  0.00  0.00    -0.267 OA
ENDROOT
BRANCH   1   4
ATOM      4  C   UNL d   1     -48.420  12.442  23.113  0.00  0.00     0.182 A 
ATOM      5  N   UNL d   1     -48.655  12.446  22.317  0.00  0.00    -0.219 NA
ATOM      6  C   UNL d   1     -49.474  12.575  22.287  0.00  0.00     0.117 A 
ATOM      7  C   UNL d   1     -49.985  12.630  21.653  0.00  0.00     0.158 A 
ATOM      8  C   UNL d   1     -49.745  12.651  23.057  0.00  0.00     0.052 A 
ATOM      9  F   UNL d   1     -49.718  12.556  20.884  0.00  0.00    -0.203 F 
ATOM     10  C   UNL d   1     -50.779  12.763  21.793  0.00  0.00     0.031 A 
ATOM     11  C   UNL d   1     -51.062  12.840  22.564  0.00  0.00     0.003 A 
ATOM     12  C   UNL d   1     -50.539  12.784  23.197  0.00  0.00     0.008 A 
ATOM     13  S   UNL d   1     -49.101  12.570  23.572  0.00  0.00    -0.048 SA
ENDBRANCH   1   4
BRANCH   1  14
ATOM     14  C   UNL d   1     -47.220  12.971  23.681  0.00  0.00     0.086 C 
BRANCH  14  15
ATOM     15  C   UNL d   1     -46.962  13.558  23.162  0.00  0.00     0.037 A 
ATOM     16  C   UNL d   1     -47.190  14.341  23.279  0.00  0.00     0.100 A 
ATOM     17  N   UNL d   1     -46.932  14.928  22.760  0.00  0.00    -0.242 NA
ATOM     18  C   UNL d   1     -46.447  14.733  22.126  0.00  0.00     0.099 A 
ATOM     19  C   UNL d   1     -46.216  13.948  22.006  0.00  0.00     0.021 A 
ATOM     20  C   UNL d   1     -46.474  13.361  22.524  0.00  0.00     0.005 A 
ENDBRANCH  14  15
ENDBRANCH   1  14
BRANCH   2  21
ATOM     21  C   UNL d   1     -46.555  11.456  23.674  0.00  0.00     0.073 C 
BRANCH  21  22
ATOM     22  C   UNL d   1     -46.231  10.694  23.693  0.00  0.00     0.104 C 
BRANCH  22  23
ATOM     23  S   UNL d   1     -45.414  10.590  23.610  0.00  0.00     0.211 S 
ATOM     24  O   UNL d   1     -45.300  11.418  23.677  0.00  0.00    -0.217 OA
ATOM     25  O   UNL d   1     -45.526   9.768  23.543  0.00  0.00    -0.217 OA
BRANCH  23  26
ATOM     26  C   UNL d   1     -44.594  10.489  23.527  0.00  0.00     0.088 A 
ATOM     27  C   UNL d   1     -44.127  11.121  23.275  0.00  0.00     0.011 A 
ATOM     28  C   UNL d   1     -43.314  11.026  23.192  0.00  0.00     0.001 A 
ATOM     29  C   UNL d   1     -42.967  10.298  23.361  0.00  0.00     0.000 A 
ATOM     30  C   UNL d   1     -43.425   9.671  23.610  0.00  0.00     0.001 A 
ATOM     31  C   UNL d   1     -44.244   9.760  23.696  0.00  0.00     0.011 A 
ENDBRANCH  23  26
ENDBRANCH  22  23
ENDBRANCH  21  22
ENDBRANCH   2  21
TORSDOF 7
ENDMDL
MODEL 5
REMARK VINA RESULT:      -3.0      8.257     10.207
REMARK  7 active torsions:
REMARK  status: ('A' for Active; 'I' for Inactive)
REMARK    1  A    between atoms: N_3  and  C_1 
REMARK       I    between atoms: C_7  and  N_3 
REMARK    2  A    between atoms: C_11  and  N_3 
REMARK    3  A    between atoms: S_5  and  C_10 
REMARK    4  A    between atoms: C_14  and  S_5 
REMARK    5  A    between atoms: C_9  and  C_7 
REMARK    6  A    between atoms: C_10  and  C_9 
REMARK    7  A    between atoms: C_18  and  C_11 
ROOT
ATOM      1  N   UNL d   1     -39.542  15.102  18.117  0.00  0.00    -0.253 N 
ATOM      2  C   UNL d   1     -39.128  14.479  17.739  0.00  0.00     0.267 C 
ATOM      3  O   UNL d   1     -38.897  13.823  18.177  0.00  0.00    -0.267 OA
ENDROOT
BRANCH   1   4
ATOM      4  C   UNL d   1     -39.713  15.049  18.921  0.00  0.00     0.182 A 
ATOM      5  N   UNL d   1     -40.106  14.423  19.300  0.00  0.00    -0.219 NA
ATOM      6  C   UNL d   1     -40.158  14.601  20.109  0.00  0.00     0.117 A 
ATOM      7  C   UNL d   1     -40.486  14.182  20.729  0.00  0.00     0.158 A 
ATOM      8  C   UNL d   1     -39.802  15.329  20.231  0.00  0.00     0.052 A 
ATOM      9  F   UNL d   1     -40.842  13.456  20.612  0.00  0.00    -0.203 F 
ATOM     10  C   UNL d   1     -40.455  14.499  21.482  0.00  0.00     0.031 A 
ATOM     11  C   UNL d   1     -40.099  15.232  21.615  0.00  0.00     0.003 A 
ATOM     12  C   UNL d   1     -39.772  15.646  20.984  0.00  0.00     0.008 A 
ATOM     13  S   UNL d   1     -39.525  15.611  19.503  0.00  0.00    -0.048 SA
ENDBRANCH   1   4
BRANCH   1  14
ATOM     14  C   UNL d   1     -39.776  15.762  17.685  0.00  0.00     0.086 C 
BRANCH  14  15
ATOM     15  C   UNL d   1     -40.523  15.783  17.335  0.00  0.00     0.037 A 
ATOM     16  C   UNL d   1     -41.193  15.898  17.799  0.00  0.00     0.100 A 
ATOM     17  N   UNL d   1     -41.940  15.919  17.450  0.00  0.00    -0.242 NA
ATOM     18  C   UNL d   1     -42.017  15.825  16.636  0.00  0.00     0.099 A 
ATOM     19  C   UNL d   1     -41.346  15.709  16.167  0.00  0.00     0.021 A 
ATOM     20  C   UNL d   1     -40.599  15.688  16.517  0.00  0.00     0.005 A 
ENDBRANCH  14  15
ENDBRANCH   1  14
BRANCH   2  21
ATOM     21  C   UNL d   1     -38.958  14.533  16.939  0.00  0.00     0.073 C 
BRANCH  21  22
ATOM     22  C   UNL d   1     -38.249  14.217  16.649  0.00  0.00     0.104 C 
BRANCH  22  23
ATOM     23  S   UNL d   1     -38.173  14.043  15.844  0.00  0.00     0.211 S 
ATOM     24  O   UNL d   1     -38.266  13.226  16.009  0.00  0.00    -0.217 OA
ATOM     25  O   UNL d   1     -38.081  14.854  15.678  0.00  0.00    -0.217 OA
BRANCH  23  26
ATOM     26  C   UNL d   1     -38.098  13.865  15.036  0.00  0.00     0.088 A 
ATOM     27  C   UNL d   1     -38.046  14.477  14.485  0.00  0.00     0.011 A 
ATOM     28  C   UNL d   1     -37.971  14.306  13.684  0.00  0.00     0.001 A 
ATOM     29  C   UNL d   1     -37.947  13.522  13.433  0.00  0.00     0.000 A 
ATOM     30  C   UNL d   1     -37.998  12.914  13.974  0.00  0.00     0.001 A 
ATOM     31  C   UNL d   1     -38.074  13.080  14.782  0.00  0.00     0.011 A 
ENDBRANCH  23  26
ENDBRANCH  22  23
ENDBRANCH  21  22
ENDBRANCH   2  21
TORSDOF 7
ENDMDL
MODEL 6
REMARK VINA RESULT:      -2.8      5.442      8.726
REMARK  7 active torsions:
REMARK  status: ('A' for Active; 'I' for Inactive)
REMARK    1  A    between atoms: N_3  and  C_1 
REMARK       I    between atoms: C_7  and  N_3 
REMARK    2  A    between atoms: C_11  and  N_3 
REMARK    3  A    between atoms: S_5  and  C_10 
REMARK    4  A    between atoms: C_14  and  S_5 
REMARK    5  A    between atoms: C_9  and  C_7 
REMARK    6  A    between atoms: C_10  and  C_9 
REMARK    7  A    between atoms: C_18  and  C_11 
ROOT
ATOM      1  N   UNL d   1     -40.478  14.484  20.319  0.00  0.00    -0.253 N 
ATOM      2  C   UNL d   1     -41.120  13.971  20.153  0.00  0.00     0.267 C 
ATOM      3  O   UNL d   1     -41.207  13.667  19.394  0.00  0.00    -0.267 OA
ENDROOT
BRANCH   1   4
ATOM      4  C   UNL d   1     -39.945  14.678  19.722  0.00  0.00     0.182 A 
ATOM      5  N   UNL d   1     -39.413  14.159  19.351  0.00  0.00    -0.219 NA
ATOM      6  C   UNL d   1     -38.984  14.588  18.784  0.00  0.00     0.117 A 
ATOM      7  C   UNL d   1     -38.397  14.353  18.268  0.00  0.00     0.158 A 
ATOM      8  C   UNL d   1     -39.246  15.364  18.804  0.00  0.00     0.052 A 
ATOM      9  F   UNL d   1     -38.133  13.580  18.246  0.00  0.00    -0.203 F 
ATOM     10  C   UNL d   1     -38.068  14.906  17.763  0.00  0.00     0.031 A 
ATOM     11  C   UNL d   1     -38.325  15.690  17.775  0.00  0.00     0.003 A 
ATOM     12  C   UNL d   1     -38.918  15.916  18.300  0.00  0.00     0.008 A 
ATOM     13  S   UNL d   1     -39.839  15.427  19.380  0.00  0.00    -0.048 SA
ENDBRANCH   1   4
BRANCH   1  14
ATOM     14  C   UNL d   1     -40.384  14.793  21.077  0.00  0.00     0.086 C 
BRANCH  14  15
ATOM     15  C   UNL d   1     -39.793  14.498  21.572  0.00  0.00     0.037 A 
ATOM     16  C   UNL d   1     -39.677  13.686  21.637  0.00  0.00     0.100 A 
ATOM     17  N   UNL d   1     -39.086  13.391  22.133  0.00  0.00    -0.242 NA
ATOM     18  C   UNL d   1     -38.613  13.909  22.562  0.00  0.00     0.099 A 
ATOM     19  C   UNL d   1     -38.727  14.725  22.499  0.00  0.00     0.021 A 
ATOM     20  C   UNL d   1     -39.318  15.020  22.004  0.00  0.00     0.005 A 
ENDBRANCH  14  15
ENDBRANCH   1  14
BRANCH   2  21
ATOM     21  C   UNL d   1     -41.649  13.780  20.748  0.00  0.00     0.073 C 
BRANCH  21  22
ATOM     22  C   UNL d   1     -42.449  13.664  20.562  0.00  0.00     0.104 C 
BRANCH  22  23
ATOM     23  S   UNL d   1     -42.933  13.231  21.075  0.00  0.00     0.211 S 
ATOM     24  O   UNL d   1     -42.785  12.535  20.631  0.00  0.00    -0.217 OA
ATOM     25  O   UNL d   1     -43.081  13.922  21.516  0.00  0.00    -0.217 OA
BRANCH  23  26
ATOM     26  C   UNL d   1     -43.419  12.794  21.587  0.00  0.00     0.088 A 
ATOM     27  C   UNL d   1     -44.219  12.985  21.656  0.00  0.00     0.011 A 
ATOM     28  C   UNL d   1     -44.704  12.556  22.162  0.00  0.00     0.001 A 
ATOM     29  C   UNL d   1     -44.389  11.933  22.601  0.00  0.00     0.000 A 
ATOM     30  C   UNL d   1     -43.599  11.741  22.536  0.00  0.00     0.001 A 
ATOM     31  C   UNL d   1     -43.106  12.170  22.028  0.00  0.00     0.011 A 
ENDBRANCH  23  26
ENDBRANCH  22  23
ENDBRANCH  21  22
ENDBRANCH   2  21
TORSDOF 7
ENDMDL
