MODEL 1
REMARK VINA RESULT:      50.6      0.000      0.000
REMARK  10 active torsions:
REMARK  status: ('A' for Active; 'I' for Inactive)
REMARK    1  A    between atoms: C_7  and  C_1 
REMARK    2  A    between atoms: C_8  and  C_2 
REMARK    3  A    between atoms: O_24  and  C_8 
REMARK    4  A    between atoms: O_25  and  C_12 
REMARK    5  A    between atoms: C_14  and  C_22 
REMARK    6  A    between atoms: O_26  and  C_14 
REMARK    7  A    between atoms: O_27  and  C_16 
REMARK    8  A    between atoms: O_21  and  C_20 
REMARK    9  A    between atoms: C_22  and  O_21 
REMARK   10  A    between atoms: C_28  and  O_24 
ROOT
ATOM      1  C   UNL d   1      13.786  13.477  -3.364  0.00  0.00     0.067 A 
ATOM      2  C   UNL d   1      13.505  13.102  -4.048  0.00  0.00     0.166 A 
ATOM      3  C   UNL d   1      13.997  14.288  -3.389  0.00  0.00     0.200 A 
ATOM      4  O   UNL d   1      13.430  13.530  -4.765  0.00  0.00    -0.301 OA
ATOM      5  C   UNL d   1      13.925  14.710  -4.089  0.00  0.00     0.062 A 
ATOM      6  C   UNL d   1      13.641  14.332  -4.781  0.00  0.00     0.105 A 
ATOM      7  C   UNL d   1      13.569  14.759  -5.489  0.00  0.00     0.050 A 
ATOM      8  C   UNL d   1      14.132  15.515  -4.125  0.00  0.00     0.007 A 
ATOM      9  O   UNL d   1      14.277  14.657  -2.705  0.00  0.00    -0.286 OA
ATOM     10  C   UNL d   1      13.778  15.560  -5.508  0.00  0.00     0.102 A 
ATOM     11  C   UNL d   1      14.059  15.936  -4.829  0.00  0.00     0.025 A 
ENDROOT
BRANCH   1  12
ATOM     12  C   UNL d   1      13.860  13.056  -2.660  0.00  0.00     0.007 A 
ATOM     13  C   UNL d   1      14.567  13.108  -2.230  0.00  0.00     0.026 A 
ATOM     14  C   UNL d   1      14.633  12.682  -1.523  0.00  0.00     0.116 A 
ATOM     15  C   UNL d   1      14.005  12.214  -1.252  0.00  0.00     0.116 A 
ATOM     16  C   UNL d   1      13.306  12.170  -1.686  0.00  0.00     0.026 A 
ATOM     17  C   UNL d   1      13.234  12.591  -2.390  0.00  0.00     0.002 A 
BRANCH  14  18
ATOM     18  O   UNL d   1      15.332  12.726  -1.089  0.00  0.00    -0.326 OA
ATOM     19  C   UNL d   1      15.732  13.445  -1.022  0.00  0.00     0.181 C 
ENDBRANCH  14  18
BRANCH  15  20
ATOM     20  O   UNL d   1      14.079  11.795  -0.550  0.00  0.00    -0.326 OA
ATOM     21  C   UNL d   1      13.448  11.780  -0.014  0.00  0.00     0.181 C 
ENDBRANCH  15  20
ENDBRANCH   1  12
BRANCH   2  22
ATOM     22  C   UNL d   1      13.298  12.306  -4.022  0.00  0.00     0.323 C 
ATOM     23  O   UNL d   1      12.926  11.992  -3.360  0.00  0.00    -0.257 OA
BRANCH  22  24
ATOM     24  O   UNL d   1      13.466  11.810  -4.671  0.00  0.00    -0.270 OA
BRANCH  24  25
ATOM     25  C   UNL d   1      13.499  12.122  -5.431  0.00  0.00     0.126 C 
ATOM     26  C   UNL d   1      13.054  11.784  -6.038  0.00  0.00     0.029 C 
ENDBRANCH  24  25
ENDBRANCH  22  24
ENDBRANCH   2  22
BRANCH  10  27
ATOM     27  O   UNL d   1      13.705  15.979  -6.212  0.00  0.00    -0.300 OA
BRANCH  27  28
ATOM     28  C   UNL d   1      14.038  16.725  -6.286  0.00  0.00     0.191 C 
BRANCH  28  29
ATOM     29  C   UNL d   1      13.572  17.398  -6.185  0.00  0.00     0.321 C 
ATOM     30  O   UNL d   1      12.772  17.385  -6.387  0.00  0.00    -0.257 OA
BRANCH  29  31
ATOM     31  O   UNL d   1      13.901  18.089  -5.883  0.00  0.00    -0.294 OA
ATOM     32  C   UNL d   1      13.907  18.780  -6.329  0.00  0.00     0.185 C 
ENDBRANCH  29  31
ENDBRANCH  28  29
ENDBRANCH  27  28
ENDBRANCH  10  27
TORSDOF 10
ENDMDL
MODEL 2
REMARK VINA RESULT:      51.5      1.258      3.041
REMARK  10 active torsions:
REMARK  status: ('A' for Active; 'I' for Inactive)
REMARK    1  A    between atoms: C_7  and  C_1 
REMARK    2  A    between atoms: C_8  and  C_2 
REMARK    3  A    between atoms: O_24  and  C_8 
REMARK    4  A    between atoms: O_25  and  C_12 
REMARK    5  A    between atoms: C_14  and  C_22 
REMARK    6  A    between atoms: O_26  and  C_14 
REMARK    7  A    between atoms: O_27  and  C_16 
REMARK    8  A    between atoms: O_21  and  C_20 
REMARK    9  A    between atoms: C_22  and  O_21 
REMARK   10  A    between atoms: C_28  and  O_24 
ROOT
ATOM      1  C   UNL d   1      13.712  14.986  -4.368  0.00  0.00     0.067 A 
ATOM      2  C   UNL d   1      14.239  15.515  -4.006  0.00  0.00     0.166 A 
ATOM      3  C   UNL d   1      13.301  15.216  -5.061  0.00  0.00     0.200 A 
ATOM      4  O   UNL d   1      14.364  16.277  -4.331  0.00  0.00    -0.301 OA
ATOM      5  C   UNL d   1      13.420  15.962  -5.382  0.00  0.00     0.062 A 
ATOM      6  C   UNL d   1      13.952  16.496  -5.017  0.00  0.00     0.105 A 
ATOM      7  C   UNL d   1      14.073  17.251  -5.341  0.00  0.00     0.050 A 
ATOM      8  C   UNL d   1      13.017  16.200  -6.069  0.00  0.00     0.007 A 
ATOM      9  O   UNL d   1      12.777  14.687  -5.418  0.00  0.00    -0.286 OA
ATOM     10  C   UNL d   1      13.664  17.472  -6.026  0.00  0.00     0.102 A 
ATOM     11  C   UNL d   1      13.139  16.949  -6.389  0.00  0.00     0.025 A 
ENDROOT
BRANCH   1  12
ATOM     12  C   UNL d   1      13.590  14.237  -4.049  0.00  0.00     0.007 A 
ATOM     13  C   UNL d   1      13.587  13.579  -4.553  0.00  0.00     0.026 A 
ATOM     14  C   UNL d   1      13.464  12.828  -4.225  0.00  0.00     0.116 A 
ATOM     15  C   UNL d   1      13.347  12.739  -3.409  0.00  0.00     0.116 A 
ATOM     16  C   UNL d   1      13.352  13.400  -2.917  0.00  0.00     0.026 A 
ATOM     17  C   UNL d   1      13.473  14.148  -3.237  0.00  0.00     0.002 A 
BRANCH  14  18
ATOM     18  O   UNL d   1      13.459  12.169  -4.718  0.00  0.00    -0.326 OA
ATOM     19  C   UNL d   1      12.793  11.998  -5.173  0.00  0.00     0.181 C 
ENDBRANCH  14  18
BRANCH  15  20
ATOM     20  O   UNL d   1      13.225  11.991  -3.093  0.00  0.00    -0.326 OA
ATOM     21  C   UNL d   1      13.549  11.803  -2.354  0.00  0.00     0.181 C 
ENDBRANCH  15  20
ENDBRANCH   1  12
BRANCH   2  22
ATOM     22  C   UNL d   1      14.643  15.287  -3.325  0.00  0.00     0.323 C 
ATOM     23  O   UNL d   1      15.241  14.725  -3.362  0.00  0.00    -0.257 OA
BRANCH  22  24
ATOM     24  O   UNL d   1      14.445  15.628  -2.591  0.00  0.00    -0.270 OA
BRANCH  24  25
ATOM     25  C   UNL d   1      15.033  15.788  -2.038  0.00  0.00     0.126 C 
ATOM     26  C   UNL d   1      14.953  16.426  -1.522  0.00  0.00     0.029 C 
ENDBRANCH  24  25
ENDBRANCH  22  24
ENDBRANCH   2  22
BRANCH  10  27
ATOM     27  O   UNL d   1      13.787  18.221  -6.344  0.00  0.00    -0.300 OA
BRANCH  27  28
ATOM     28  C   UNL d   1      13.864  18.872  -5.852  0.00  0.00     0.191 C 
BRANCH  28  29
ATOM     29  C   UNL d   1      13.847  19.634  -6.168  0.00  0.00     0.321 C 
ATOM     30  O   UNL d   1      13.131  19.978  -6.389  0.00  0.00    -0.257 OA
BRANCH  29  31
ATOM     31  O   UNL d   1      14.546  20.058  -6.266  0.00  0.00    -0.294 OA
ATOM     32  C   UNL d   1      14.767  20.634  -5.721  0.00  0.00     0.185 C 
ENDBRANCH  29  31
ENDBRANCH  28  29
ENDBRANCH  27  28
ENDBRANCH  10  27
TORSDOF 10
ENDMDL
