MODEL 1
REMARK VINA RESULT:      -3.2      0.000      0.000
REMARK  5 active torsions:
REMARK  status: ('A' for Active; 'I' for Inactive)
REMARK    1  A    between atoms: C_2  and  S_1 
REMARK    2  A    between atoms: N_3  and  S_1 
REMARK    3  A    between atoms: C_4  and  N_3 
REMARK    4  A    between atoms: O_16  and  C_9 
REMARK    5  A    between atoms: O_17  and  C_14 
ROOT
ATOM      1  C   UNL d   1      58.910  -0.304  29.423  0.00  0.00     0.118 A 
ATOM      2  C   UNL d   1      58.547  -1.042  29.490  0.00  0.00     0.046 A 
ATOM      3  C   UNL d   1      59.647  -0.239  29.062  0.00  0.00     0.113 A 
ATOM      4  C   UNL d   1      60.024  -0.912  28.767  0.00  0.00     0.028 A 
ATOM      5  C   UNL d   1      58.920  -1.714  29.196  0.00  0.00     0.096 A 
ATOM      6  C   UNL d   1      59.661  -1.650  28.834  0.00  0.00     0.026 A 
ENDROOT
BRANCH   1   7
ATOM      7  N   UNL d   1      58.535   0.383  29.720  0.00  0.00    -0.156 NA
BRANCH   7   8
ATOM      8  S   UNL d   1      58.086   0.342  30.425  0.00  0.00     0.291 S 
ATOM      9  O   UNL d   1      57.399   0.273  29.975  0.00  0.00    -0.198 OA
ATOM     10  O   UNL d   1      58.778   0.412  30.869  0.00  0.00    -0.198 OA
BRANCH   8  11
ATOM     11  C   UNL d   1      57.642   0.302  31.119  0.00  0.00     0.135 A 
ATOM     12  S   UNL d   1      57.854   0.681  31.698  0.00  0.00    -0.073 SA
ATOM     13  C   UNL d   1      57.455   0.637  32.301  0.00  0.00     0.036 A 
ATOM     14  C   UNL d   1      56.861   0.227  32.324  0.00  0.00     0.008 A 
ATOM     15  C   UNL d   1      57.052  -0.103  31.145  0.00  0.00     0.020 A 
ENDBRANCH   8  11
ENDBRANCH   7   8
ENDBRANCH   1   7
BRANCH   3  16
ATOM     16  O   UNL d   1      60.010   0.499  28.995  0.00  0.00    -0.327 OA
ATOM     17  C   UNL d   1      60.620   0.612  28.455  0.00  0.00     0.181 C 
ENDBRANCH   3  16
BRANCH   5  18
ATOM     18  O   UNL d   1      58.557  -2.452  29.263  0.00  0.00    -0.328 OA
ATOM     19  C   UNL d   1      58.880  -3.106  28.883  0.00  0.00     0.181 C 
ENDBRANCH   5  18
TORSDOF 5
ENDMDL
MODEL 2
REMARK VINA RESULT:      -3.0      1.045      2.034
REMARK  5 active torsions:
REMARK  status: ('A' for Active; 'I' for Inactive)
REMARK    1  A    between atoms: C_2  and  S_1 
REMARK    2  A    between atoms: N_3  and  S_1 
REMARK    3  A    between atoms: C_4  and  N_3 
REMARK    4  A    between atoms: O_16  and  C_9 
REMARK    5  A    between atoms: O_17  and  C_14 
ROOT
ATOM      1  C   UNL d   1      58.569  -0.518  29.821  0.00  0.00     0.118 A 
ATOM      2  C   UNL d   1      59.030   0.066  30.178  0.00  0.00     0.046 A 
ATOM      3  C   UNL d   1      58.919  -1.070  29.321  0.00  0.00     0.113 A 
ATOM      4  C   UNL d   1      59.732  -1.040  29.175  0.00  0.00     0.028 A 
ATOM      5  C   UNL d   1      59.840   0.098  30.035  0.00  0.00     0.096 A 
ATOM      6  C   UNL d   1      60.193  -0.456  29.533  0.00  0.00     0.026 A 
ENDROOT
BRANCH   1   7
ATOM      7  N   UNL d   1      57.745  -0.556  29.963  0.00  0.00    -0.156 NA
BRANCH   7   8
ATOM      8  S   UNL d   1      57.440  -0.346  30.713  0.00  0.00     0.291 S 
ATOM      9  O   UNL d   1      57.526  -1.129  30.958  0.00  0.00    -0.198 OA
ATOM     10  O   UNL d   1      57.357   0.435  30.461  0.00  0.00    -0.198 OA
BRANCH   8  11
ATOM     11  C   UNL d   1      57.140  -0.142  31.454  0.00  0.00     0.135 A 
ATOM     12  S   UNL d   1      56.772  -0.635  31.835  0.00  0.00    -0.073 SA
ATOM     13  C   UNL d   1      56.513  -0.443  32.484  0.00  0.00     0.036 A 
ATOM     14  C   UNL d   1      56.619   0.222  32.744  0.00  0.00     0.008 A 
ATOM     15  C   UNL d   1      57.243   0.517  31.714  0.00  0.00     0.020 A 
ENDBRANCH   8  11
ENDBRANCH   7   8
ENDBRANCH   1   7
BRANCH   3  16
ATOM     16  O   UNL d   1      58.458  -1.654  28.964  0.00  0.00    -0.327 OA
ATOM     17  C   UNL d   1      58.806  -2.200  28.455  0.00  0.00     0.181 C 
ENDBRANCH   3  16
BRANCH   5  18
ATOM     18  O   UNL d   1      60.300   0.682  30.392  0.00  0.00    -0.328 OA
ATOM     19  C   UNL d   1      61.120   0.618  30.391  0.00  0.00     0.181 C 
ENDBRANCH   5  18
TORSDOF 5
ENDMDL
MODEL 3
REMARK VINA RESULT:      -3.0      1.768      2.705
REMARK  5 active torsions:
REMARK  status: ('A' for Active; 'I' for Inactive)
REMARK    1  A    between atoms: C_2  and  S_1 
REMARK    2  A    between atoms: N_3  and  S_1 
REMARK    3  A    between atoms: C_4  and  N_3 
REMARK    4  A    between atoms: O_16  and  C_9 
REMARK    5  A    between atoms: O_17  and  C_14 
ROOT
ATOM      1  C   UNL d   1      57.943   0.092  30.967  0.00  0.00     0.118 A 
ATOM      2  C   UNL d   1      58.371   0.236  31.657  0.00  0.00     0.046 A 
ATOM      3  C   UNL d   1      58.285   0.233  30.232  0.00  0.00     0.113 A 
ATOM      4  C   UNL d   1      59.060   0.519  30.185  0.00  0.00     0.028 A 
ATOM      5  C   UNL d   1      59.142   0.520  31.613  0.00  0.00     0.096 A 
ATOM      6  C   UNL d   1      59.488   0.663  30.875  0.00  0.00     0.026 A 
ENDROOT
BRANCH   1   7
ATOM      7  N   UNL d   1      57.158  -0.198  31.006  0.00  0.00    -0.156 NA
BRANCH   7   8
ATOM      8  S   UNL d   1      56.722  -0.128  31.716  0.00  0.00     0.291 S 
ATOM      9  O   UNL d   1      56.871  -0.923  31.877  0.00  0.00    -0.198 OA
ATOM     10  O   UNL d   1      56.577   0.667  31.549  0.00  0.00    -0.198 OA
BRANCH   8  11
ATOM     11  C   UNL d   1      56.292  -0.062  32.417  0.00  0.00     0.135 A 
ATOM     12  S   UNL d   1      56.091  -0.662  32.767  0.00  0.00    -0.073 SA
ATOM     13  C   UNL d   1      55.713  -0.590  33.382  0.00  0.00     0.036 A 
ATOM     14  C   UNL d   1      55.542   0.062  33.638  0.00  0.00     0.008 A 
ATOM     15  C   UNL d   1      56.121   0.584  32.674  0.00  0.00     0.020 A 
ENDBRANCH   8  11
ENDBRANCH   7   8
ENDBRANCH   1   7
BRANCH   3  16
ATOM     16  O   UNL d   1      57.857   0.089  29.542  0.00  0.00    -0.327 OA
ATOM     17  C   UNL d   1      58.251  -0.032  28.830  0.00  0.00     0.181 C 
ENDBRANCH   3  16
BRANCH   5  18
ATOM     18  O   UNL d   1      59.570   0.664  32.303  0.00  0.00    -0.328 OA
ATOM     19  C   UNL d   1      60.392   0.682  32.282  0.00  0.00     0.181 C 
ENDBRANCH   5  18
TORSDOF 5
ENDMDL
MODEL 4
REMARK VINA RESULT:      -1.7      1.824      4.339
REMARK  5 active torsions:
REMARK  status: ('A' for Active; 'I' for Inactive)
REMARK    1  A    between atoms: C_2  and  S_1 
REMARK    2  A    between atoms: N_3  and  S_1 
REMARK    3  A    between atoms: C_4  and  N_3 
REMARK    4  A    between atoms: O_16  and  C_9 
REMARK    5  A    between atoms: O_17  and  C_14 
ROOT
ATOM      1  C   UNL d   1      56.797   0.043  32.350  0.00  0.00     0.118 A 
ATOM      2  C   UNL d   1      57.573   0.224  32.566  0.00  0.00     0.046 A 
ATOM      3  C   UNL d   1      56.187   0.134  32.893  0.00  0.00     0.113 A 
ATOM      4  C   UNL d   1      56.349   0.405  33.657  0.00  0.00     0.028 A 
ATOM      5  C   UNL d   1      57.737   0.494  33.326  0.00  0.00     0.096 A 
ATOM      6  C   UNL d   1      57.124   0.586  33.874  0.00  0.00     0.026 A 
ENDROOT
BRANCH   1   7
ATOM      7  N   UNL d   1      56.624  -0.232  31.579  0.00  0.00    -0.156 NA
BRANCH   7   8
ATOM      8  S   UNL d   1      57.178  -0.120  30.961  0.00  0.00     0.291 S 
ATOM      9  O   UNL d   1      57.427  -0.901  31.053  0.00  0.00    -0.198 OA
ATOM     10  O   UNL d   1      56.923   0.660  30.874  0.00  0.00    -0.198 OA
BRANCH   8  11
ATOM     11  C   UNL d   1      57.724  -0.012  30.352  0.00  0.00     0.135 A 
ATOM     12  S   UNL d   1      57.660   0.563  29.917  0.00  0.00    -0.073 SA
ATOM     13  C   UNL d   1      58.146   0.647  29.386  0.00  0.00     0.036 A 
ATOM     14  C   UNL d   1      58.680   0.169  29.293  0.00  0.00     0.008 A 
ATOM     15  C   UNL d   1      58.254  -0.483  30.257  0.00  0.00     0.020 A 
ENDBRANCH   8  11
ENDBRANCH   7   8
ENDBRANCH   1   7
BRANCH   3  16
ATOM     16  O   UNL d   1      55.411  -0.047  32.677  0.00  0.00    -0.327 OA
ATOM     17  C   UNL d   1      54.847  -0.203  33.255  0.00  0.00     0.181 C 
ENDBRANCH   3  16
BRANCH   5  18
ATOM     18  O   UNL d   1      58.513   0.675  33.542  0.00  0.00    -0.328 OA
ATOM     19  C   UNL d   1      58.739   0.638  34.332  0.00  0.00     0.181 C 
ENDBRANCH   5  18
TORSDOF 5
ENDMDL
MODEL 5
REMARK VINA RESULT:      -1.5      1.745      2.356
REMARK  5 active torsions:
REMARK  status: ('A' for Active; 'I' for Inactive)
REMARK    1  A    between atoms: C_2  and  S_1 
REMARK    2  A    between atoms: N_3  and  S_1 
REMARK    3  A    between atoms: C_4  and  N_3 
REMARK    4  A    between atoms: O_16  and  C_9 
REMARK    5  A    between atoms: O_17  and  C_14 
ROOT
ATOM      1  C   UNL d   1      58.345   0.467  31.373  0.00  0.00     0.118 A 
ATOM      2  C   UNL d   1      57.907   0.256  30.707  0.00  0.00     0.046 A 
ATOM      3  C   UNL d   1      59.167   0.471  31.341  0.00  0.00     0.113 A 
ATOM      4  C   UNL d   1      59.555   0.264  30.641  0.00  0.00     0.028 A 
ATOM      5  C   UNL d   1      58.290   0.050  30.009  0.00  0.00     0.096 A 
ATOM      6  C   UNL d   1      59.116   0.053  29.974  0.00  0.00     0.026 A 
ENDROOT
BRANCH   1   7
ATOM      7  N   UNL d   1      57.961   0.678  32.086  0.00  0.00    -0.156 NA
BRANCH   7   8
ATOM      8  S   UNL d   1      57.286   0.252  32.339  0.00  0.00     0.291 S 
ATOM      9  O   UNL d   1      56.852   0.590  31.723  0.00  0.00    -0.198 OA
ATOM     10  O   UNL d   1      57.725  -0.081  32.952  0.00  0.00    -0.198 OA
BRANCH   8  11
ATOM     11  C   UNL d   1      56.618  -0.166  32.586  0.00  0.00     0.135 A 
ATOM     12  S   UNL d   1      56.019   0.198  32.763  0.00  0.00    -0.073 SA
ATOM     13  C   UNL d   1      55.439  -0.181  32.978  0.00  0.00     0.036 A 
ATOM     14  C   UNL d   1      55.460  -0.902  33.015  0.00  0.00     0.008 A 
ATOM     15  C   UNL d   1      56.636  -0.880  32.623  0.00  0.00     0.020 A 
ENDBRANCH   8  11
ENDBRANCH   7   8
ENDBRANCH   1   7
BRANCH   3  16
ATOM     16  O   UNL d   1      59.606   0.681  32.007  0.00  0.00    -0.327 OA
ATOM     17  C   UNL d   1      60.422   0.572  32.016  0.00  0.00     0.181 C 
ENDBRANCH   3  16
BRANCH   5  18
ATOM     18  O   UNL d   1      57.851  -0.161  29.342  0.00  0.00    -0.328 OA
ATOM     19  C   UNL d   1      58.147  -0.011  28.590  0.00  0.00     0.181 C 
ENDBRANCH   5  18
TORSDOF 5
ENDMDL
