MODEL 1
REMARK VINA RESULT:      -6.0      0.000      0.000
REMARK  6 active torsions:
REMARK  status: ('A' for Active; 'I' for Inactive)
REMARK    1  A    between atoms: S_6  and  C_1 
REMARK    2  A    between atoms: C_15  and  S_6 
REMARK    3  A    between atoms: C_8  and  O_11 
REMARK    4  A    between atoms: C_10  and  C_15 
REMARK    5  A    between atoms: C_16  and  C_10 
REMARK    6  A    between atoms: O_11  and  C_16 
ROOT
ATOM      1  C   UNL d   1     -46.752  13.666  23.036  0.00  0.00     0.040 C 
ENDROOT
BRANCH   1   2
ATOM      2  C   UNL d   1     -47.197  14.313  22.785  0.00  0.00     0.034 C 
BRANCH   2   3
ATOM      3  C   UNL d   1     -48.010  14.337  22.940  0.00  0.00     0.123 C 
BRANCH   3   4
ATOM      4  O   UNL d   1     -48.424  15.035  22.791  0.00  0.00    -0.305 OA
BRANCH   4   5
ATOM      5  C   UNL d   1     -49.244  15.046  22.843  0.00  0.00     0.100 A 
ATOM      6  C   UNL d   1     -49.698  14.599  22.318  0.00  0.00     0.025 A 
ATOM      7  C   UNL d   1     -50.530  14.614  22.376  0.00  0.00     0.002 A 
ATOM      8  C   UNL d   1     -50.982  14.167  21.852  0.00  0.00     0.000 C 
ATOM      9  C   UNL d   1     -50.895  15.075  22.954  0.00  0.00     0.000 A 
ATOM     10  C   UNL d   1     -50.430  15.524  23.480  0.00  0.00     0.002 A 
ATOM     11  C   UNL d   1     -49.605  15.511  23.426  0.00  0.00     0.025 A 
ENDBRANCH   4   5
ENDBRANCH   3   4
ENDBRANCH   2   3
ENDBRANCH   1   2
BRANCH   1  12
ATOM     12  S   UNL d   1     -46.277  13.264  22.494  0.00  0.00    -0.048 SA
BRANCH  12  13
ATOM     13  C   UNL d   1     -45.832  12.613  22.732  0.00  0.00     0.194 A 
ATOM     14  N   UNL d   1     -46.100  11.964  23.174  0.00  0.00    -0.220 NA
ATOM     15  C   UNL d   1     -45.461  11.445  23.283  0.00  0.00     0.101 A 
ATOM     16  C   UNL d   1     -45.406  10.720  23.675  0.00  0.00     0.021 A 
ATOM     17  C   UNL d   1     -44.790  11.767  22.909  0.00  0.00     0.101 A 
ATOM     18  C   UNL d   1     -44.688  10.316  23.696  0.00  0.00     0.002 A 
ATOM     19  C   UNL d   1     -44.024  10.635  23.327  0.00  0.00     0.002 A 
ATOM     20  C   UNL d   1     -44.077  11.358  22.935  0.00  0.00     0.021 A 
ATOM     21  N   UNL d   1     -45.020  12.495  22.566  0.00  0.00    -0.220 NA
ENDBRANCH  12  13
ENDBRANCH   1  12
TORSDOF 6
ENDMDL
MODEL 2
REMARK VINA RESULT:      -5.9      1.613      5.837
REMARK  6 active torsions:
REMARK  status: ('A' for Active; 'I' for Inactive)
REMARK    1  A    between atoms: S_6  and  C_1 
REMARK    2  A    between atoms: C_15  and  S_6 
REMARK    3  A    between atoms: C_8  and  O_11 
REMARK    4  A    between atoms: C_10  and  C_15 
REMARK    5  A    between atoms: C_16  and  C_10 
REMARK    6  A    between atoms: O_11  and  C_16 
ROOT
ATOM      1  C   UNL d   1     -47.304  13.237  22.879  0.00  0.00     0.040 C 
ENDROOT
BRANCH   1   2
ATOM      2  C   UNL d   1     -46.496  13.113  22.985  0.00  0.00     0.034 C 
BRANCH   2   3
ATOM      3  C   UNL d   1     -46.215  12.351  23.146  0.00  0.00     0.123 C 
BRANCH   3   4
ATOM      4  O   UNL d   1     -45.420  12.181  23.006  0.00  0.00    -0.305 OA
BRANCH   4   5
ATOM      5  C   UNL d   1     -45.113  11.446  23.213  0.00  0.00     0.100 A 
ATOM      6  C   UNL d   1     -44.304  11.303  23.145  0.00  0.00     0.025 A 
ATOM      7  C   UNL d   1     -43.999  10.556  23.357  0.00  0.00     0.002 A 
ATOM      8  C   UNL d   1     -43.190  10.413  23.289  0.00  0.00     0.000 C 
ATOM      9  C   UNL d   1     -44.505   9.966  23.632  0.00  0.00     0.000 A 
ATOM     10  C   UNL d   1     -45.321  10.119  23.698  0.00  0.00     0.002 A 
ATOM     11  C   UNL d   1     -45.628  10.857  23.489  0.00  0.00     0.025 A 
ENDBRANCH   4   5
ENDBRANCH   3   4
ENDBRANCH   2   3
ENDBRANCH   1   2
BRANCH   1  12
ATOM     12  S   UNL d   1     -47.604  14.005  22.909  0.00  0.00    -0.048 SA
BRANCH  12  13
ATOM     13  C   UNL d   1     -48.399  14.147  22.745  0.00  0.00     0.194 A 
ATOM     14  N   UNL d   1     -48.817  13.908  22.068  0.00  0.00    -0.220 NA
ATOM     15  C   UNL d   1     -49.600  14.174  22.142  0.00  0.00     0.101 A 
ATOM     16  C   UNL d   1     -50.253  14.096  21.642  0.00  0.00     0.021 A 
ATOM     17  C   UNL d   1     -49.676  14.581  22.865  0.00  0.00     0.101 A 
ATOM     18  C   UNL d   1     -50.978  14.421  21.857  0.00  0.00     0.002 A 
ATOM     19  C   UNL d   1     -51.054  14.824  22.573  0.00  0.00     0.002 A 
ATOM     20  C   UNL d   1     -50.404  14.902  23.072  0.00  0.00     0.021 A 
ATOM     21  N   UNL d   1     -48.929  14.565  23.241  0.00  0.00    -0.220 NA
ENDBRANCH  12  13
ENDBRANCH   1  12
TORSDOF 6
ENDMDL
MODEL 3
REMARK VINA RESULT:      -5.7      0.596      1.050
REMARK  6 active torsions:
REMARK  status: ('A' for Active; 'I' for Inactive)
REMARK    1  A    between atoms: S_6  and  C_1 
REMARK    2  A    between atoms: C_15  and  S_6 
REMARK    3  A    between atoms: C_8  and  O_11 
REMARK    4  A    between atoms: C_10  and  C_15 
REMARK    5  A    between atoms: C_16  and  C_10 
REMARK    6  A    between atoms: O_11  and  C_16 
ROOT
ATOM      1  C   UNL d   1     -46.665  13.032  23.227  0.00  0.00     0.040 C 
ENDROOT
BRANCH   1   2
ATOM      2  C   UNL d   1     -47.071  13.735  23.085  0.00  0.00     0.034 C 
BRANCH   2   3
ATOM      3  C   UNL d   1     -47.884  13.717  22.933  0.00  0.00     0.123 C 
BRANCH   3   4
ATOM      4  O   UNL d   1     -48.229  14.348  22.529  0.00  0.00    -0.305 OA
BRANCH   4   5
ATOM      5  C   UNL d   1     -49.028  14.324  22.333  0.00  0.00     0.100 A 
ATOM      6  C   UNL d   1     -49.566  14.803  22.735  0.00  0.00     0.025 A 
ATOM      7  C   UNL d   1     -50.375  14.774  22.531  0.00  0.00     0.002 A 
ATOM      8  C   UNL d   1     -50.913  15.252  22.932  0.00  0.00     0.000 C 
ATOM      9  C   UNL d   1     -50.632  14.270  21.930  0.00  0.00     0.000 A 
ATOM     10  C   UNL d   1     -50.081  13.791  21.530  0.00  0.00     0.002 A 
ATOM     11  C   UNL d   1     -49.280  13.816  21.728  0.00  0.00     0.025 A 
ENDBRANCH   4   5
ENDBRANCH   3   4
ENDBRANCH   2   3
ENDBRANCH   1   2
BRANCH   1  12
ATOM     12  S   UNL d   1     -45.984  12.860  22.794  0.00  0.00    -0.048 SA
BRANCH  12  13
ATOM     13  C   UNL d   1     -45.545  12.183  22.960  0.00  0.00     0.194 A 
ATOM     14  N   UNL d   1     -45.818  11.494  23.335  0.00  0.00    -0.220 NA
ATOM     15  C   UNL d   1     -45.183  10.960  23.384  0.00  0.00     0.101 A 
ATOM     16  C   UNL d   1     -45.134  10.198  23.698  0.00  0.00     0.021 A 
ATOM     17  C   UNL d   1     -44.511  11.312  23.040  0.00  0.00     0.101 A 
ATOM     18  C   UNL d   1     -44.421   9.786  23.671  0.00  0.00     0.002 A 
ATOM     19  C   UNL d   1     -43.756  10.135  23.331  0.00  0.00     0.002 A 
ATOM     20  C   UNL d   1     -43.803  10.895  23.017  0.00  0.00     0.021 A 
ATOM     21  N   UNL d   1     -44.735  12.074  22.776  0.00  0.00    -0.220 NA
ENDBRANCH  12  13
ENDBRANCH   1  12
TORSDOF 6
ENDMDL
MODEL 4
REMARK VINA RESULT:      -5.3      3.969      6.569
REMARK  6 active torsions:
REMARK  status: ('A' for Active; 'I' for Inactive)
REMARK    1  A    between atoms: S_6  and  C_1 
REMARK    2  A    between atoms: C_15  and  S_6 
REMARK    3  A    between atoms: C_8  and  O_11 
REMARK    4  A    between atoms: C_10  and  C_15 
REMARK    5  A    between atoms: C_16  and  C_10 
REMARK    6  A    between atoms: O_11  and  C_16 
ROOT
ATOM      1  C   UNL d   1     -43.561  13.124  21.365  0.00  0.00     0.040 C 
ENDROOT
BRANCH   1   2
ATOM      2  C   UNL d   1     -42.748  13.077  21.239  0.00  0.00     0.034 C 
BRANCH   2   3
ATOM      3  C   UNL d   1     -42.342  13.729  20.931  0.00  0.00     0.123 C 
BRANCH   3   4
ATOM      4  O   UNL d   1     -41.518  13.739  20.968  0.00  0.00    -0.305 OA
BRANCH   4   5
ATOM      5  C   UNL d   1     -41.097  14.351  20.615  0.00  0.00     0.100 A 
ATOM      6  C   UNL d   1     -40.718  14.230  19.892  0.00  0.00     0.025 A 
ATOM      7  C   UNL d   1     -40.293  14.855  19.540  0.00  0.00     0.002 A 
ATOM      8  C   UNL d   1     -39.914  14.733  18.818  0.00  0.00     0.000 C 
ATOM      9  C   UNL d   1     -40.253  15.590  19.913  0.00  0.00     0.000 A 
ATOM     10  C   UNL d   1     -40.639  15.704  20.643  0.00  0.00     0.002 A 
ATOM     11  C   UNL d   1     -41.061  15.087  20.995  0.00  0.00     0.025 A 
ENDBRANCH   4   5
ENDBRANCH   3   4
ENDBRANCH   2   3
ENDBRANCH   1   2
BRANCH   1  12
ATOM     12  S   UNL d   1     -43.923  12.598  21.888  0.00  0.00    -0.048 SA
BRANCH  12  13
ATOM     13  C   UNL d   1     -44.669  12.764  22.196  0.00  0.00     0.194 A 
ATOM     14  N   UNL d   1     -45.103  13.465  22.095  0.00  0.00    -0.220 NA
ATOM     15  C   UNL d   1     -45.822  13.383  22.503  0.00  0.00     0.101 A 
ATOM     16  C   UNL d   1     -46.460  13.899  22.594  0.00  0.00     0.021 A 
ATOM     17  C   UNL d   1     -45.842  12.631  22.861  0.00  0.00     0.101 A 
ATOM     18  C   UNL d   1     -47.116  13.671  23.037  0.00  0.00     0.002 A 
ATOM     19  C   UNL d   1     -47.135  12.926  23.391  0.00  0.00     0.002 A 
ATOM     20  C   UNL d   1     -46.500  12.410  23.301  0.00  0.00     0.021 A 
ATOM     21  N   UNL d   1     -45.124  12.244  22.669  0.00  0.00    -0.220 NA
ENDBRANCH  12  13
ENDBRANCH   1  12
TORSDOF 6
ENDMDL
MODEL 5
REMARK VINA RESULT:      -5.1      1.968      5.615
REMARK  6 active torsions:
REMARK  status: ('A' for Active; 'I' for Inactive)
REMARK    1  A    between atoms: S_6  and  C_1 
REMARK    2  A    between atoms: C_15  and  S_6 
REMARK    3  A    between atoms: C_8  and  O_11 
REMARK    4  A    between atoms: C_10  and  C_15 
REMARK    5  A    between atoms: C_16  and  C_10 
REMARK    6  A    between atoms: O_11  and  C_16 
ROOT
ATOM      1  C   UNL d   1     -47.102  13.587  22.771  0.00  0.00     0.040 C 
ENDROOT
BRANCH   1   2
ATOM      2  C   UNL d   1     -46.333  13.856  22.645  0.00  0.00     0.034 C 
BRANCH   2   3
ATOM      3  C   UNL d   1     -45.713  13.311  22.579  0.00  0.00     0.123 C 
BRANCH   3   4
ATOM      4  O   UNL d   1     -45.233  13.333  21.909  0.00  0.00    -0.305 OA
BRANCH   4   5
ATOM      5  C   UNL d   1     -44.517  12.928  21.902  0.00  0.00     0.100 A 
ATOM      6  C   UNL d   1     -43.888  13.209  21.448  0.00  0.00     0.025 A 
ATOM      7  C   UNL d   1     -43.164  12.794  21.445  0.00  0.00     0.002 A 
ATOM      8  C   UNL d   1     -42.536  13.074  20.992  0.00  0.00     0.000 C 
ATOM      9  C   UNL d   1     -43.081  12.106  21.894  0.00  0.00     0.000 A 
ATOM     10  C   UNL d   1     -43.721  11.830  22.349  0.00  0.00     0.002 A 
ATOM     11  C   UNL d   1     -44.439  12.238  22.355  0.00  0.00     0.025 A 
ENDBRANCH   4   5
ENDBRANCH   3   4
ENDBRANCH   2   3
ENDBRANCH   1   2
BRANCH   1  12
ATOM     12  S   UNL d   1     -47.719  14.132  22.827  0.00  0.00    -0.048 SA
BRANCH  12  13
ATOM     13  C   UNL d   1     -48.497  13.895  22.691  0.00  0.00     0.194 A 
ATOM     14  N   UNL d   1     -48.979  13.457  23.206  0.00  0.00    -0.220 NA
ATOM     15  C   UNL d   1     -49.716  13.349  22.838  0.00  0.00     0.101 A 
ATOM     16  C   UNL d   1     -50.400  12.961  23.089  0.00  0.00     0.021 A 
ATOM     17  C   UNL d   1     -49.698  13.719  22.091  0.00  0.00     0.101 A 
ATOM     18  C   UNL d   1     -51.064  12.939  22.602  0.00  0.00     0.002 A 
ATOM     19  C   UNL d   1     -51.047  13.305  21.863  0.00  0.00     0.002 A 
ATOM     20  C   UNL d   1     -50.365  13.693  21.611  0.00  0.00     0.021 A 
ATOM     21  N   UNL d   1     -48.939  14.059  21.999  0.00  0.00    -0.220 NA
ENDBRANCH  12  13
ENDBRANCH   1  12
TORSDOF 6
ENDMDL
MODEL 6
REMARK VINA RESULT:      -5.0      4.027      5.338
REMARK  6 active torsions:
REMARK  status: ('A' for Active; 'I' for Inactive)
REMARK    1  A    between atoms: S_6  and  C_1 
REMARK    2  A    between atoms: C_15  and  S_6 
REMARK    3  A    between atoms: C_8  and  O_11 
REMARK    4  A    between atoms: C_10  and  C_15 
REMARK    5  A    between atoms: C_16  and  C_10 
REMARK    6  A    between atoms: O_11  and  C_16 
ROOT
ATOM      1  C   UNL d   1     -43.004  13.416  21.146  0.00  0.00     0.040 C 
ENDROOT
BRANCH   1   2
ATOM      2  C   UNL d   1     -43.510  12.854  21.474  0.00  0.00     0.034 C 
BRANCH   2   3
ATOM      3  C   UNL d   1     -44.263  13.081  21.733  0.00  0.00     0.123 C 
BRANCH   3   4
ATOM      4  O   UNL d   1     -44.657  12.605  22.278  0.00  0.00    -0.305 OA
BRANCH   4   5
ATOM      5  C   UNL d   1     -45.401  12.823  22.555  0.00  0.00     0.100 A 
ATOM      6  C   UNL d   1     -45.854  12.287  22.988  0.00  0.00     0.025 A 
ATOM      7  C   UNL d   1     -46.607  12.514  23.265  0.00  0.00     0.002 A 
ATOM      8  C   UNL d   1     -47.060  11.979  23.698  0.00  0.00     0.000 C 
ATOM      9  C   UNL d   1     -46.895  13.271  23.106  0.00  0.00     0.000 A 
ATOM     10  C   UNL d   1     -46.431  13.806  22.667  0.00  0.00     0.002 A 
ATOM     11  C   UNL d   1     -45.684  13.585  22.391  0.00  0.00     0.025 A 
ENDBRANCH   4   5
ENDBRANCH   3   4
ENDBRANCH   2   3
ENDBRANCH   1   2
BRANCH   1  12
ATOM     12  S   UNL d   1     -42.194  13.260  21.106  0.00  0.00    -0.048 SA
BRANCH  12  13
ATOM     13  C   UNL d   1     -41.677  13.823  20.800  0.00  0.00     0.194 A 
ATOM     14  N   UNL d   1     -41.454  14.539  21.159  0.00  0.00    -0.220 NA
ATOM     15  C   UNL d   1     -40.924  14.926  20.650  0.00  0.00     0.101 A 
ATOM     16  C   UNL d   1     -40.529  15.649  20.720  0.00  0.00     0.021 A 
ATOM     17  C   UNL d   1     -40.812  14.456  19.972  0.00  0.00     0.101 A 
ATOM     18  C   UNL d   1     -40.025  15.903  20.120  0.00  0.00     0.002 A 
ATOM     19  C   UNL d   1     -39.915  15.438  19.448  0.00  0.00     0.002 A 
ATOM     20  C   UNL d   1     -40.308  14.717  19.377  0.00  0.00     0.021 A 
ATOM     21  N   UNL d   1     -41.281  13.769  20.065  0.00  0.00    -0.220 NA
ENDBRANCH  12  13
ENDBRANCH   1  12
TORSDOF 6
ENDMDL
MODEL 7
REMARK VINA RESULT:      -4.9      8.666     10.031
REMARK  6 active torsions:
REMARK  status: ('A' for Active; 'I' for Inactive)
REMARK    1  A    between atoms: S_6  and  C_1 
REMARK    2  A    between atoms: C_15  and  S_6 
REMARK    3  A    between atoms: C_8  and  O_11 
REMARK    4  A    between atoms: C_10  and  C_15 
REMARK    5  A    between atoms: C_16  and  C_10 
REMARK    6  A    between atoms: O_11  and  C_16 
ROOT
ATOM      1  C   UNL d   1     -39.636  15.097  18.925  0.00  0.00     0.040 C 
ENDROOT
BRANCH   1   2
ATOM      2  C   UNL d   1     -39.973  14.908  19.653  0.00  0.00     0.034 C 
BRANCH   2   3
ATOM      3  C   UNL d   1     -39.626  15.187  20.351  0.00  0.00     0.123 C 
BRANCH   3   4
ATOM      4  O   UNL d   1     -39.993  15.025  21.071  0.00  0.00    -0.305 OA
BRANCH   4   5
ATOM      5  C   UNL d   1     -39.565  15.072  21.772  0.00  0.00     0.100 A 
ATOM      6  C   UNL d   1     -39.263  14.387  22.118  0.00  0.00     0.025 A 
ATOM      7  C   UNL d   1     -38.830  14.440  22.828  0.00  0.00     0.002 A 
ATOM      8  C   UNL d   1     -38.528  13.756  23.174  0.00  0.00     0.000 C 
ATOM      9  C   UNL d   1     -38.704  15.176  23.181  0.00  0.00     0.000 A 
ATOM     10  C   UNL d   1     -39.012  15.863  22.825  0.00  0.00     0.002 A 
ATOM     11  C   UNL d   1     -39.442  15.814  22.121  0.00  0.00     0.025 A 
ENDBRANCH   4   5
ENDBRANCH   3   4
ENDBRANCH   2   3
ENDBRANCH   1   2
BRANCH   1  12
ATOM     12  S   UNL d   1     -39.945  14.765  18.235  0.00  0.00    -0.048 SA
BRANCH  12  13
ATOM     13  C   UNL d   1     -39.478  14.697  17.560  0.00  0.00     0.194 A 
ATOM     14  N   UNL d   1     -39.197  15.319  17.087  0.00  0.00    -0.220 NA
ATOM     15  C   UNL d   1     -38.750  14.989  16.469  0.00  0.00     0.101 A 
ATOM     16  C   UNL d   1     -38.344  15.340  15.841  0.00  0.00     0.021 A 
ATOM     17  C   UNL d   1     -38.750  14.160  16.552  0.00  0.00     0.101 A 
ATOM     18  C   UNL d   1     -37.940  14.871  15.298  0.00  0.00     0.002 A 
ATOM     19  C   UNL d   1     -37.940  14.050  15.381  0.00  0.00     0.002 A 
ATOM     20  C   UNL d   1     -38.344  13.699  16.006  0.00  0.00     0.021 A 
ATOM     21  N   UNL d   1     -39.203  13.978  17.232  0.00  0.00    -0.220 NA
ENDBRANCH  12  13
ENDBRANCH   1  12
TORSDOF 6
ENDMDL
MODEL 8
REMARK VINA RESULT:      -3.3      5.150      6.773
REMARK  6 active torsions:
REMARK  status: ('A' for Active; 'I' for Inactive)
REMARK    1  A    between atoms: S_6  and  C_1 
REMARK    2  A    between atoms: C_15  and  S_6 
REMARK    3  A    between atoms: C_8  and  O_11 
REMARK    4  A    between atoms: C_10  and  C_15 
REMARK    5  A    between atoms: C_16  and  C_10 
REMARK    6  A    between atoms: O_11  and  C_16 
ROOT
ATOM      1  C   UNL d   1     -41.799  13.828  20.401  0.00  0.00     0.040 C 
ENDROOT
BRANCH   1   2
ATOM      2  C   UNL d   1     -42.015  13.451  21.101  0.00  0.00     0.034 C 
BRANCH   2   3
ATOM      3  C   UNL d   1     -42.815  13.396  21.308  0.00  0.00     0.123 C 
BRANCH   3   4
ATOM      4  O   UNL d   1     -43.153  12.649  21.400  0.00  0.00    -0.305 OA
BRANCH   4   5
ATOM      5  C   UNL d   1     -43.848  12.562  21.830  0.00  0.00     0.100 A 
ATOM      6  C   UNL d   1     -44.460  13.108  21.742  0.00  0.00     0.025 A 
ATOM      7  C   UNL d   1     -45.163  13.015  22.181  0.00  0.00     0.002 A 
ATOM      8  C   UNL d   1     -45.774  13.560  22.093  0.00  0.00     0.000 C 
ATOM      9  C   UNL d   1     -45.244  12.378  22.700  0.00  0.00     0.000 A 
ATOM     10  C   UNL d   1     -44.621  11.831  22.784  0.00  0.00     0.002 A 
ATOM     11  C   UNL d   1     -43.923  11.921  22.351  0.00  0.00     0.025 A 
ENDBRANCH   4   5
ENDBRANCH   3   4
ENDBRANCH   2   3
ENDBRANCH   1   2
BRANCH   1  12
ATOM     12  S   UNL d   1     -41.030  14.114  20.314  0.00  0.00    -0.048 SA
BRANCH  12  13
ATOM     13  C   UNL d   1     -40.777  14.414  19.589  0.00  0.00     0.194 A 
ATOM     14  N   UNL d   1     -40.530  13.975  18.929  0.00  0.00    -0.220 NA
ATOM     15  C   UNL d   1     -40.326  14.509  18.326  0.00  0.00     0.101 A 
ATOM     16  C   UNL d   1     -40.048  14.386  17.558  0.00  0.00     0.021 A 
ATOM     17  C   UNL d   1     -40.445  15.285  18.606  0.00  0.00     0.101 A 
ATOM     18  C   UNL d   1     -39.888  15.029  17.070  0.00  0.00     0.002 A 
ATOM     19  C   UNL d   1     -40.005  15.797  17.347  0.00  0.00     0.002 A 
ATOM     20  C   UNL d   1     -40.282  15.922  18.112  0.00  0.00     0.021 A 
ATOM     21  N   UNL d   1     -40.725  15.227  19.393  0.00  0.00    -0.220 NA
ENDBRANCH  12  13
ENDBRANCH   1  12
TORSDOF 6
ENDMDL
