MODEL 1
REMARK VINA RESULT:      -2.4      0.000      0.000
REMARK  6 active torsions:
REMARK  status: ('A' for Active; 'I' for Inactive)
REMARK    1  A    between atoms: N_6  and  C_1 
REMARK    2  A    between atoms: C_7  and  C_2 
REMARK       I    between atoms: C_8  and  N_6 
REMARK    3  A    between atoms: O_14  and  C_7 
REMARK    4  A    between atoms: C_10  and  C_8 
REMARK    5  A    between atoms: N_9  and  C_10 
REMARK    6  A    between atoms: C_21  and  O_14 
ROOT
ATOM      1  C   UNL d   1      32.820  18.146 -23.527  0.00  0.00     0.119 A 
ATOM      2  C   UNL d   1      32.272  17.723 -23.976  0.00  0.00     0.088 A 
ATOM      3  S   UNL d   1      33.241  17.626 -23.067  0.00  0.00    -0.068 SA
ATOM      4  C   UNL d   1      32.360  16.933 -23.786  0.00  0.00     0.013 A 
ATOM      5  C   UNL d   1      32.964  16.872 -23.220  0.00  0.00     0.031 A 
ATOM      6  C   UNL d   1      31.982  16.242 -24.040  0.00  0.00     0.001 A 
ATOM      7  C   UNL d   1      33.183  16.121 -22.914  0.00  0.00     0.006 A 
ATOM      8  C   UNL d   1      32.185  15.513 -23.752  0.00  0.00     0.000 A 
ATOM      9  C   UNL d   1      32.789  15.453 -23.186  0.00  0.00     0.001 A 
ENDROOT
BRANCH   1  10
ATOM     10  N   UNL d   1      32.921  18.964 -23.547  0.00  0.00    -0.200 NA
ATOM     11  C   UNL d   1      33.103  19.389 -22.864  0.00  0.00     0.297 C 
ATOM     12  O   UNL d   1      33.182  18.965 -22.161  0.00  0.00    -0.264 OA
BRANCH  11  13
ATOM     13  C   UNL d   1      33.200  20.208 -22.904  0.00  0.00     0.144 C 
BRANCH  13  14
ATOM     14  N   UNL d   1      33.081  20.638 -22.207  0.00  0.00    -0.295 N 
ATOM     15  C   UNL d   1      32.822  21.424 -22.264  0.00  0.00     0.107 A 
ATOM     16  C   UNL d   1      32.701  21.858 -21.572  0.00  0.00     0.142 A 
ATOM     17  O   UNL d   1      32.831  21.529 -20.842  0.00  0.00    -0.300 OA
ATOM     18  C   UNL d   1      33.090  20.743 -20.785  0.00  0.00     0.142 A 
ATOM     19  C   UNL d   1      33.210  20.315 -21.461  0.00  0.00     0.107 A 
ENDBRANCH  13  14
ENDBRANCH  11  13
ENDBRANCH   1  10
BRANCH   2  20
ATOM     20  C   UNL d   1      31.722  18.030 -24.526  0.00  0.00     0.302 C 
ATOM     21  O   UNL d   1      31.989  18.577 -25.097  0.00  0.00    -0.259 OA
BRANCH  20  22
ATOM     22  O   UNL d   1      30.939  17.792 -24.497  0.00  0.00    -0.271 OA
BRANCH  22  23
ATOM     23  C   UNL d   1      30.358  18.232 -24.868  0.00  0.00     0.126 C 
ATOM     24  C   UNL d   1      29.567  18.099 -24.691  0.00  0.00     0.029 C 
ENDBRANCH  22  23
ENDBRANCH  20  22
ENDBRANCH   2  20
TORSDOF 6
ENDMDL
MODEL 2
REMARK VINA RESULT:      -1.8      2.869      4.883
REMARK  6 active torsions:
REMARK  status: ('A' for Active; 'I' for Inactive)
REMARK    1  A    between atoms: N_6  and  C_1 
REMARK    2  A    between atoms: C_7  and  C_2 
REMARK       I    between atoms: C_8  and  N_6 
REMARK    3  A    between atoms: O_14  and  C_7 
REMARK    4  A    between atoms: C_10  and  C_8 
REMARK    5  A    between atoms: N_9  and  C_10 
REMARK    6  A    between atoms: C_21  and  O_14 
ROOT
ATOM      1  C   UNL d   1      31.230  16.875 -24.615  0.00  0.00     0.119 A 
ATOM      2  C   UNL d   1      32.053  16.919 -24.576  0.00  0.00     0.088 A 
ATOM      3  S   UNL d   1      30.935  17.608 -24.798  0.00  0.00    -0.068 SA
ATOM      4  C   UNL d   1      32.263  17.692 -24.738  0.00  0.00     0.013 A 
ATOM      5  C   UNL d   1      31.566  18.122 -24.876  0.00  0.00     0.031 A 
ATOM      6  C   UNL d   1      32.989  18.087 -24.783  0.00  0.00     0.001 A 
ATOM      7  C   UNL d   1      31.604  18.941 -25.059  0.00  0.00     0.006 A 
ATOM      8  C   UNL d   1      33.037  18.875 -24.958  0.00  0.00     0.000 A 
ATOM      9  C   UNL d   1      32.340  19.305 -25.097  0.00  0.00     0.001 A 
ENDROOT
BRANCH   1  10
ATOM     10  N   UNL d   1      30.784  16.193 -24.487  0.00  0.00    -0.200 NA
ATOM     11  C   UNL d   1      29.960  16.218 -24.465  0.00  0.00     0.297 C 
ATOM     12  O   UNL d   1      29.599  16.952 -24.575  0.00  0.00    -0.264 OA
BRANCH  11  13
ATOM     13  C   UNL d   1      29.532  15.525 -24.337  0.00  0.00     0.144 C 
BRANCH  13  14
ATOM     14  N   UNL d   1      28.872  15.574 -23.839  0.00  0.00    -0.295 N 
ATOM     15  C   UNL d   1      28.993  15.575 -23.018  0.00  0.00     0.107 A 
ATOM     16  C   UNL d   1      28.339  15.624 -22.515  0.00  0.00     0.142 A 
ATOM     17  O   UNL d   1      27.585  15.671 -22.811  0.00  0.00    -0.300 OA
ATOM     18  C   UNL d   1      27.465  15.671 -23.632  0.00  0.00     0.142 A 
ATOM     19  C   UNL d   1      28.103  15.623 -24.127  0.00  0.00     0.107 A 
ENDBRANCH  13  14
ENDBRANCH  11  13
ENDBRANCH   1  10
BRANCH   2  20
ATOM     20  C   UNL d   1      32.587  16.299 -24.404  0.00  0.00     0.302 C 
ATOM     21  O   UNL d   1      32.683  15.687 -24.962  0.00  0.00    -0.259 OA
BRANCH  20  22
ATOM     22  O   UNL d   1      33.003  16.302 -23.699  0.00  0.00    -0.271 OA
BRANCH  22  23
ATOM     23  C   UNL d   1      33.241  15.599 -23.355  0.00  0.00     0.126 C 
ATOM     24  C   UNL d   1      33.074  15.453 -22.563  0.00  0.00     0.029 C 
ENDBRANCH  22  23
ENDBRANCH  20  22
ENDBRANCH   2  20
TORSDOF 6
ENDMDL
MODEL 3
REMARK VINA RESULT:       0.3      1.494      5.201
REMARK  6 active torsions:
REMARK  status: ('A' for Active; 'I' for Inactive)
REMARK    1  A    between atoms: N_6  and  C_1 
REMARK    2  A    between atoms: C_7  and  C_2 
REMARK       I    between atoms: C_8  and  N_6 
REMARK    3  A    between atoms: O_14  and  C_7 
REMARK    4  A    between atoms: C_10  and  C_8 
REMARK    5  A    between atoms: N_9  and  C_10 
REMARK    6  A    between atoms: C_21  and  O_14 
ROOT
ATOM      1  C   UNL d   1      33.054  20.997 -22.353  0.00  0.00     0.119 A 
ATOM      2  C   UNL d   1      32.991  21.537 -21.734  0.00  0.00     0.088 A 
ATOM      3  S   UNL d   1      33.044  21.400 -23.058  0.00  0.00    -0.068 SA
ATOM      4  C   UNL d   1      32.941  22.283 -22.066  0.00  0.00     0.013 A 
ATOM      5  C   UNL d   1      32.974  22.197 -22.891  0.00  0.00     0.031 A 
ATOM      6  C   UNL d   1      32.868  23.043 -21.749  0.00  0.00     0.001 A 
ATOM      7  C   UNL d   1      32.935  22.873 -23.388  0.00  0.00     0.006 A 
ATOM      8  C   UNL d   1      32.830  23.701 -22.218  0.00  0.00     0.000 A 
ATOM      9  C   UNL d   1      32.863  23.616 -23.043  0.00  0.00     0.001 A 
ENDROOT
BRANCH   1  10
ATOM     10  N   UNL d   1      33.118  20.179 -22.266  0.00  0.00    -0.200 NA
ATOM     11  C   UNL d   1      33.178  19.682 -22.921  0.00  0.00     0.297 C 
ATOM     12  O   UNL d   1      33.171  20.033 -23.667  0.00  0.00    -0.264 OA
BRANCH  11  13
ATOM     13  C   UNL d   1      33.241  18.866 -22.813  0.00  0.00     0.144 C 
BRANCH  13  14
ATOM     14  N   UNL d   1      32.898  18.380 -23.388  0.00  0.00    -0.295 N 
ATOM     15  C   UNL d   1      32.276  17.878 -23.167  0.00  0.00     0.107 A 
ATOM     16  C   UNL d   1      31.930  17.391 -23.736  0.00  0.00     0.142 A 
ATOM     17  O   UNL d   1      32.188  17.396 -24.506  0.00  0.00    -0.300 OA
ATOM     18  C   UNL d   1      32.810  17.898 -24.728  0.00  0.00     0.142 A 
ATOM     19  C   UNL d   1      33.151  18.377 -24.172  0.00  0.00     0.107 A 
ENDBRANCH  13  14
ENDBRANCH  11  13
ENDBRANCH   1  10
BRANCH   2  20
ATOM     20  C   UNL d   1      32.978  21.372 -20.914  0.00  0.00     0.302 C 
ATOM     21  O   UNL d   1      33.241  20.624 -20.653  0.00  0.00    -0.259 OA
BRANCH  20  22
ATOM     22  O   UNL d   1      32.711  21.938 -20.387  0.00  0.00    -0.271 OA
BRANCH  22  23
ATOM     23  C   UNL d   1      32.435  21.720 -19.649  0.00  0.00     0.126 C 
ATOM     24  C   UNL d   1      32.850  21.941 -18.974  0.00  0.00     0.029 C 
ENDBRANCH  22  23
ENDBRANCH  20  22
ENDBRANCH   2  20
TORSDOF 6
ENDMDL
MODEL 4
REMARK VINA RESULT:       0.3      1.765      2.864
REMARK  6 active torsions:
REMARK  status: ('A' for Active; 'I' for Inactive)
REMARK    1  A    between atoms: N_6  and  C_1 
REMARK    2  A    between atoms: C_7  and  C_2 
REMARK       I    between atoms: C_8  and  N_6 
REMARK    3  A    between atoms: O_14  and  C_7 
REMARK    4  A    between atoms: C_10  and  C_8 
REMARK    5  A    between atoms: N_9  and  C_10 
REMARK    6  A    between atoms: C_21  and  O_14 
ROOT
ATOM      1  C   UNL d   1      33.051  20.463 -22.902  0.00  0.00     0.119 A 
ATOM      2  C   UNL d   1      33.018  20.185 -23.677  0.00  0.00     0.088 A 
ATOM      3  S   UNL d   1      32.871  19.855 -22.395  0.00  0.00    -0.068 SA
ATOM      4  C   UNL d   1      32.815  19.394 -23.644  0.00  0.00     0.013 A 
ATOM      5  C   UNL d   1      32.723  19.188 -22.845  0.00  0.00     0.031 A 
ATOM      6  C   UNL d   1      32.695  18.812 -24.220  0.00  0.00     0.001 A 
ATOM      7  C   UNL d   1      32.512  18.403 -22.632  0.00  0.00     0.006 A 
ATOM      8  C   UNL d   1      32.492  18.053 -24.026  0.00  0.00     0.000 A 
ATOM      9  C   UNL d   1      32.400  17.847 -23.227  0.00  0.00     0.001 A 
ENDROOT
BRANCH   1  10
ATOM     10  N   UNL d   1      33.237  21.236 -22.681  0.00  0.00    -0.200 NA
ATOM     11  C   UNL d   1      33.046  21.525 -21.933  0.00  0.00     0.297 C 
ATOM     12  O   UNL d   1      32.662  21.013 -21.413  0.00  0.00    -0.264 OA
BRANCH  11  13
ATOM     13  C   UNL d   1      33.241  22.301 -21.731  0.00  0.00     0.144 C 
BRANCH  13  14
ATOM     14  N   UNL d   1      32.851  22.633 -21.081  0.00  0.00    -0.295 N 
ATOM     15  C   UNL d   1      33.238  22.644 -20.347  0.00  0.00     0.107 A 
ATOM     16  C   UNL d   1      32.854  22.973 -19.695  0.00  0.00     0.142 A 
ATOM     17  O   UNL d   1      32.107  23.284 -19.760  0.00  0.00    -0.300 OA
ATOM     18  C   UNL d   1      31.720  23.273 -20.494  0.00  0.00     0.142 A 
ATOM     19  C   UNL d   1      32.094  22.951 -21.135  0.00  0.00     0.107 A 
ENDBRANCH  13  14
ENDBRANCH  11  13
ENDBRANCH   1  10
BRANCH   2  20
ATOM     20  C   UNL d   1      33.163  20.617 -24.378  0.00  0.00     0.302 C 
ATOM     21  O   UNL d   1      33.241  20.200 -25.097  0.00  0.00    -0.259 OA
BRANCH  20  22
ATOM     22  O   UNL d   1      33.226  21.433 -24.350  0.00  0.00    -0.271 OA
BRANCH  22  23
ATOM     23  C   UNL d   1      33.190  21.875 -25.037  0.00  0.00     0.126 C 
ATOM     24  C   UNL d   1      32.702  22.536 -25.075  0.00  0.00     0.029 C 
ENDBRANCH  22  23
ENDBRANCH  20  22
ENDBRANCH   2  20
TORSDOF 6
ENDMDL
