MODEL 1
REMARK VINA RESULT:      -9.7      0.000      0.000
REMARK  3 active torsions:
REMARK  status: ('A' for Active; 'I' for Inactive)
REMARK    1  A    between atoms: C_9  and  C_1 
REMARK       I    between atoms: N_12  and  C_9 
REMARK    2  A    between atoms: C_16  and  N_12 
REMARK    3  A    between atoms: C_17  and  C_16 
ROOT
ATOM      1  C   UNL d   1      51.339  34.145  52.905  0.00  0.00     0.108 A 
ATOM      2  C   UNL d   1      52.261  33.503  53.609  0.00  0.00     0.044 A 
ATOM      3  C   UNL d   1      52.461  34.338  53.604  0.00  0.00     0.112 A 
ATOM      4  S   UNL d   1      51.881  34.735  53.163  0.00  0.00    -0.061 SA
ATOM      5  C   UNL d   1      51.564  33.407  53.170  0.00  0.00     0.116 A 
ATOM      6  N   UNL d   1      53.124  34.595  53.994  0.00  0.00    -0.239 NA
ATOM      7  C   UNL d   1      53.409  33.252  54.396  0.00  0.00     0.057 A 
ATOM      8  C   UNL d   1      52.737  32.979  54.003  0.00  0.00     0.008 A 
ATOM      9  C   UNL d   1      53.600  34.051  54.392  0.00  0.00     0.085 A 
ATOM     10  C   UNL d   1      53.891  32.708  54.797  0.00  0.00     0.197 A 
ATOM     11  N   UNL d   1      51.148  32.686  53.016  0.00  0.00    -0.147 N 
ATOM     12  O   UNL d   1      53.697  31.897  54.801  0.00  0.00    -0.286 OA
ATOM     13  C   UNL d   1      54.277  34.323  54.788  0.00  0.00     0.019 A 
ATOM     14  C   UNL d   1      54.559  32.963  55.190  0.00  0.00     0.042 A 
ATOM     15  C   UNL d   1      54.758  33.797  55.186  0.00  0.00     0.005 A 
ENDROOT
BRANCH   1  16
ATOM     16  C   UNL d   1      50.661  34.285  52.442  0.00  0.00     0.287 C 
ATOM     17  N   UNL d   1      50.029  34.679  52.791  0.00  0.00    -0.206 NA
ATOM     18  O   UNL d   1      50.610  34.045  51.660  0.00  0.00    -0.265 OA
BRANCH  17  19
ATOM     19  C   UNL d   1      49.343  34.827  52.343  0.00  0.00     0.102 C 
BRANCH  19  20
ATOM     20  C   UNL d   1      48.760  35.329  52.632  0.00  0.00     0.019 A 
ATOM     21  C   UNL d   1      48.154  35.587  52.136  0.00  0.00     0.002 A 
ATOM     22  C   UNL d   1      47.571  36.091  52.431  0.00  0.00     0.000 A 
ATOM     23  C   UNL d   1      47.589  36.336  53.209  0.00  0.00     0.000 A 
ATOM     24  C   UNL d   1      48.189  36.082  53.709  0.00  0.00     0.000 A 
ATOM     25  C   UNL d   1      48.778  35.578  53.421  0.00  0.00     0.002 A 
ENDBRANCH  19  20
ENDBRANCH  17  19
ENDBRANCH   1  16
TORSDOF 3
ENDMDL
MODEL 2
REMARK VINA RESULT:      -8.7      1.647      5.364
REMARK  3 active torsions:
REMARK  status: ('A' for Active; 'I' for Inactive)
REMARK    1  A    between atoms: C_9  and  C_1 
REMARK       I    between atoms: N_12  and  C_9 
REMARK    2  A    between atoms: C_16  and  N_12 
REMARK    3  A    between atoms: C_17  and  C_16 
ROOT
ATOM      1  C   UNL d   1      51.525  33.896  52.673  0.00  0.00     0.108 A 
ATOM      2  C   UNL d   1      50.403  34.584  52.839  0.00  0.00     0.044 A 
ATOM      3  C   UNL d   1      50.373  34.206  52.070  0.00  0.00     0.112 A 
ATOM      4  S   UNL d   1      51.077  33.777  51.970  0.00  0.00    -0.061 SA
ATOM      5  C   UNL d   1      51.124  34.379  53.194  0.00  0.00     0.116 A 
ATOM      6  N   UNL d   1      49.725  34.311  51.595  0.00  0.00    -0.239 NA
ATOM      7  C   UNL d   1      49.128  35.143  52.592  0.00  0.00     0.057 A 
ATOM      8  C   UNL d   1      49.782  35.043  53.084  0.00  0.00     0.008 A 
ATOM      9  C   UNL d   1      49.099  34.781  51.856  0.00  0.00     0.085 A 
ATOM     10  C   UNL d   1      48.497  35.615  52.853  0.00  0.00     0.197 A 
ATOM     11  N   UNL d   1      51.409  34.616  53.955  0.00  0.00    -0.147 N 
ATOM     12  O   UNL d   1      48.526  35.983  53.601  0.00  0.00    -0.286 OA
ATOM     13  C   UNL d   1      48.439  34.883  51.363  0.00  0.00     0.019 A 
ATOM     14  C   UNL d   1      47.842  35.724  52.377  0.00  0.00     0.042 A 
ATOM     15  C   UNL d   1      47.812  35.345  51.608  0.00  0.00     0.005 A 
ENDROOT
BRANCH   1  16
ATOM     16  C   UNL d   1      52.276  33.570  52.825  0.00  0.00     0.287 C 
ATOM     17  N   UNL d   1      52.334  32.754  52.904  0.00  0.00    -0.206 NA
ATOM     18  O   UNL d   1      52.947  34.036  52.897  0.00  0.00    -0.265 OA
BRANCH  17  19
ATOM     19  C   UNL d   1      53.078  32.411  53.056  0.00  0.00     0.102 C 
BRANCH  19  20
ATOM     20  C   UNL d   1      53.136  31.610  53.228  0.00  0.00     0.019 A 
ATOM     21  C   UNL d   1      53.558  31.359  53.890  0.00  0.00     0.002 A 
ATOM     22  C   UNL d   1      53.614  30.553  54.058  0.00  0.00     0.000 A 
ATOM     23  C   UNL d   1      53.256  30.002  53.574  0.00  0.00     0.000 A 
ATOM     24  C   UNL d   1      52.834  30.245  52.913  0.00  0.00     0.000 A 
ATOM     25  C   UNL d   1      52.773  31.050  52.737  0.00  0.00     0.002 A 
ENDBRANCH  19  20
ENDBRANCH  17  19
ENDBRANCH   1  16
TORSDOF 3
ENDMDL
MODEL 3
REMARK VINA RESULT:      -8.4      1.390      2.071
REMARK  3 active torsions:
REMARK  status: ('A' for Active; 'I' for Inactive)
REMARK    1  A    between atoms: C_9  and  C_1 
REMARK       I    between atoms: N_12  and  C_9 
REMARK    2  A    between atoms: C_16  and  N_12 
REMARK    3  A    between atoms: C_17  and  C_16 
ROOT
ATOM      1  C   UNL d   1      51.109  33.943  53.144  0.00  0.00     0.108 A 
ATOM      2  C   UNL d   1      52.277  33.320  53.221  0.00  0.00     0.044 A 
ATOM      3  C   UNL d   1      51.662  32.727  53.138  0.00  0.00     0.112 A 
ATOM      4  S   UNL d   1      50.934  33.122  53.090  0.00  0.00    -0.061 SA
ATOM      5  C   UNL d   1      51.912  34.065  53.223  0.00  0.00     0.116 A 
ATOM      6  N   UNL d   1      51.861  31.941  53.120  0.00  0.00    -0.239 NA
ATOM      7  C   UNL d   1      53.241  32.286  53.261  0.00  0.00     0.057 A 
ATOM      8  C   UNL d   1      53.051  33.088  53.281  0.00  0.00     0.008 A 
ATOM      9  C   UNL d   1      52.653  31.719  53.181  0.00  0.00     0.085 A 
ATOM     10  C   UNL d   1      54.037  32.059  53.323  0.00  0.00     0.197 A 
ATOM     11  N   UNL d   1      52.286  34.821  53.292  0.00  0.00    -0.147 N 
ATOM     12  O   UNL d   1      54.635  32.635  53.404  0.00  0.00    -0.286 OA
ATOM     13  C   UNL d   1      52.847  30.912  53.162  0.00  0.00     0.019 A 
ATOM     14  C   UNL d   1      54.241  31.269  53.305  0.00  0.00     0.042 A 
ATOM     15  C   UNL d   1      53.626  30.676  53.222  0.00  0.00     0.005 A 
ENDROOT
BRANCH   1  16
ATOM     16  C   UNL d   1      50.547  34.558  53.121  0.00  0.00     0.287 C 
ATOM     17  N   UNL d   1      49.946  34.510  52.563  0.00  0.00    -0.206 NA
ATOM     18  O   UNL d   1      50.579  35.197  53.633  0.00  0.00    -0.265 OA
BRANCH  17  19
ATOM     19  C   UNL d   1      49.375  35.115  52.526  0.00  0.00     0.102 C 
BRANCH  19  20
ATOM     20  C   UNL d   1      48.781  35.090  51.957  0.00  0.00     0.019 A 
ATOM     21  C   UNL d   1      48.912  34.706  51.240  0.00  0.00     0.002 A 
ATOM     22  C   UNL d   1      48.314  34.684  50.673  0.00  0.00     0.000 A 
ATOM     23  C   UNL d   1      47.593  35.039  50.816  0.00  0.00     0.000 A 
ATOM     24  C   UNL d   1      47.456  35.424  51.529  0.00  0.00     0.000 A 
ATOM     25  C   UNL d   1      48.050  35.451  52.102  0.00  0.00     0.002 A 
ENDBRANCH  19  20
ENDBRANCH  17  19
ENDBRANCH   1  16
TORSDOF 3
ENDMDL
MODEL 4
REMARK VINA RESULT:      -8.0      1.021      5.250
REMARK  3 active torsions:
REMARK  status: ('A' for Active; 'I' for Inactive)
REMARK    1  A    between atoms: C_9  and  C_1 
REMARK       I    between atoms: N_12  and  C_9 
REMARK    2  A    between atoms: C_16  and  N_12 
REMARK    3  A    between atoms: C_17  and  C_16 
ROOT
ATOM      1  C   UNL d   1      51.084  34.077  52.779  0.00  0.00     0.108 A 
ATOM      2  C   UNL d   1      49.943  34.623  52.382  0.00  0.00     0.044 A 
ATOM      3  C   UNL d   1      50.048  34.798  53.215  0.00  0.00     0.112 A 
ATOM      4  S   UNL d   1      50.763  34.454  53.459  0.00  0.00    -0.061 SA
ATOM      5  C   UNL d   1      50.596  34.176  52.133  0.00  0.00     0.116 A 
ATOM      6  N   UNL d   1      49.487  35.232  53.608  0.00  0.00    -0.239 NA
ATOM      7  C   UNL d   1      48.721  35.335  52.406  0.00  0.00     0.057 A 
ATOM      8  C   UNL d   1      49.284  34.894  51.995  0.00  0.00     0.008 A 
ATOM      9  C   UNL d   1      48.821  35.502  53.203  0.00  0.00     0.085 A 
ATOM     10  C   UNL d   1      48.050  35.607  52.001  0.00  0.00     0.197 A 
ATOM     11  N   UNL d   1      50.745  33.872  51.357  0.00  0.00    -0.147 N 
ATOM     12  O   UNL d   1      47.948  35.437  51.191  0.00  0.00    -0.286 OA
ATOM     13  C   UNL d   1      48.253  35.945  53.614  0.00  0.00     0.019 A 
ATOM     14  C   UNL d   1      47.483  36.045  52.393  0.00  0.00     0.042 A 
ATOM     15  C   UNL d   1      47.588  36.219  53.227  0.00  0.00     0.005 A 
ENDROOT
BRANCH   1  16
ATOM     16  C   UNL d   1      51.803  33.656  52.757  0.00  0.00     0.287 C 
ATOM     17  N   UNL d   1      52.307  33.720  53.403  0.00  0.00    -0.206 NA
ATOM     18  O   UNL d   1      52.016  33.190  52.117  0.00  0.00    -0.265 OA
BRANCH  17  19
ATOM     19  C   UNL d   1      53.030  33.306  53.399  0.00  0.00     0.102 C 
BRANCH  19  20
ATOM     20  C   UNL d   1      53.516  33.314  54.062  0.00  0.00     0.019 A 
ATOM     21  C   UNL d   1      53.630  32.624  54.498  0.00  0.00     0.002 A 
ATOM     22  C   UNL d   1      54.118  32.637  55.163  0.00  0.00     0.000 A 
ATOM     23  C   UNL d   1      54.490  33.327  55.392  0.00  0.00     0.000 A 
ATOM     24  C   UNL d   1      54.380  34.018  54.962  0.00  0.00     0.000 A 
ATOM     25  C   UNL d   1      53.892  34.014  54.295  0.00  0.00     0.002 A 
ENDBRANCH  19  20
ENDBRANCH  17  19
ENDBRANCH   1  16
TORSDOF 3
ENDMDL
MODEL 5
REMARK VINA RESULT:      -7.3      1.369      5.575
REMARK  3 active torsions:
REMARK  status: ('A' for Active; 'I' for Inactive)
REMARK    1  A    between atoms: C_9  and  C_1 
REMARK       I    between atoms: N_12  and  C_9 
REMARK    2  A    between atoms: C_16  and  N_12 
REMARK    3  A    between atoms: C_17  and  C_16 
ROOT
ATOM      1  C   UNL d   1      49.814  34.719  52.463  0.00  0.00     0.108 A 
ATOM      2  C   UNL d   1      48.606  35.202  52.204  0.00  0.00     0.044 A 
ATOM      3  C   UNL d   1      48.807  35.403  53.014  0.00  0.00     0.112 A 
ATOM      4  S   UNL d   1      49.562  35.098  53.171  0.00  0.00    -0.061 SA
ATOM      5  C   UNL d   1      49.244  34.779  51.883  0.00  0.00     0.116 A 
ATOM      6  N   UNL d   1      48.280  35.820  53.467  0.00  0.00    -0.239 NA
ATOM      7  C   UNL d   1      47.364  35.857  52.370  0.00  0.00     0.057 A 
ATOM      8  C   UNL d   1      47.892  35.432  51.899  0.00  0.00     0.008 A 
ATOM      9  C   UNL d   1      47.556  36.049  53.144  0.00  0.00     0.085 A 
ATOM     10  C   UNL d   1      46.634  36.088  52.048  0.00  0.00     0.197 A 
ATOM     11  N   UNL d   1      49.309  34.462  51.101  0.00  0.00    -0.147 N 
ATOM     12  O   UNL d   1      46.439  35.893  51.261  0.00  0.00    -0.286 OA
ATOM     13  C   UNL d   1      47.022  36.476  53.616  0.00  0.00     0.019 A 
ATOM     14  C   UNL d   1      46.101  36.509  52.501  0.00  0.00     0.042 A 
ATOM     15  C   UNL d   1      46.302  36.709  53.310  0.00  0.00     0.005 A 
ENDROOT
BRANCH   1  16
ATOM     16  C   UNL d   1      50.544  34.331  52.358  0.00  0.00     0.287 C 
ATOM     17  N   UNL d   1      51.122  34.436  52.933  0.00  0.00    -0.206 NA
ATOM     18  O   UNL d   1      50.696  33.857  51.708  0.00  0.00    -0.265 OA
BRANCH  17  19
ATOM     19  C   UNL d   1      51.858  34.056  52.845  0.00  0.00     0.102 C 
BRANCH  19  20
ATOM     20  C   UNL d   1      52.422  34.102  53.441  0.00  0.00     0.019 A 
ATOM     21  C   UNL d   1      52.694  33.415  53.805  0.00  0.00     0.002 A 
ATOM     22  C   UNL d   1      53.260  33.466  54.403  0.00  0.00     0.000 A 
ATOM     23  C   UNL d   1      53.553  34.191  54.637  0.00  0.00     0.000 A 
ATOM     24  C   UNL d   1      53.286  34.880  54.278  0.00  0.00     0.000 A 
ATOM     25  C   UNL d   1      52.719  34.838  53.678  0.00  0.00     0.002 A 
ENDBRANCH  19  20
ENDBRANCH  17  19
ENDBRANCH   1  16
TORSDOF 3
ENDMDL
