MODEL 1
REMARK VINA RESULT:      -7.2      0.000      0.000
REMARK  5 active torsions:
REMARK  status: ('A' for Active; 'I' for Inactive)
REMARK    1  A    between atoms: N_2  and  S_1 
REMARK    2  A    between atoms: C_3  and  S_1 
REMARK    3  A    between atoms: C_6  and  O_7 
REMARK    4  A    between atoms: O_7  and  C_11 
REMARK    5  A    between atoms: O_16  and  C_8 
ROOT
ATOM      1  C   UNL d   1     -47.694  13.977  22.770  0.00  0.00     0.104 A 
ATOM      2  C   UNL d   1     -47.079  14.113  23.290  0.00  0.00     0.015 A 
ATOM      3  C   UNL d   1     -47.622  13.389  22.184  0.00  0.00     0.015 A 
ATOM      4  C   UNL d   1     -46.320  13.085  22.651  0.00  0.00     0.100 A 
ATOM      5  C   UNL d   1     -46.935  12.947  22.129  0.00  0.00     0.025 A 
ATOM      6  C   UNL d   1     -46.393  13.673  23.237  0.00  0.00     0.025 A 
ENDROOT
BRANCH   4   7
ATOM      7  O   UNL d   1     -45.617  12.639  22.602  0.00  0.00    -0.305 OA
BRANCH   7   8
ATOM      8  C   UNL d   1     -45.553  11.898  22.969  0.00  0.00     0.122 A 
ATOM      9  C   UNL d   1     -44.834  11.498  22.968  0.00  0.00     0.117 A 
ATOM     10  C   UNL d   1     -44.775  10.759  23.336  0.00  0.00     0.026 A 
ATOM     11  C   UNL d   1     -45.436  10.430  23.698  0.00  0.00     0.002 A 
ATOM     12  C   UNL d   1     -46.156  10.831  23.698  0.00  0.00     0.002 A 
ATOM     13  C   UNL d   1     -46.213  11.569  23.331  0.00  0.00     0.027 A 
BRANCH   9  14
ATOM     14  O   UNL d   1     -44.179  11.836  22.603  0.00  0.00    -0.326 OA
ATOM     15  C   UNL d   1     -43.448  11.486  22.677  0.00  0.00     0.181 C 
ENDBRANCH   9  14
ENDBRANCH   7   8
ENDBRANCH   4   7
BRANCH   1  16
ATOM     16  S   UNL d   1     -48.386  14.426  22.829  0.00  0.00     0.271 S 
ATOM     17  O   UNL d   1     -48.441  15.164  22.448  0.00  0.00    -0.200 OA
ATOM     18  O   UNL d   1     -49.027  14.145  23.268  0.00  0.00    -0.200 OA
BRANCH  16  19
ATOM     19  N   UNL d   1     -49.140  14.711  23.007  0.00  0.00    -0.229 N 
ATOM     20  C   UNL d   1     -49.790  14.257  23.262  0.00  0.00     0.092 A 
ATOM     21  C   UNL d   1     -50.438  14.758  23.378  0.00  0.00     0.021 A 
ATOM     22  C   UNL d   1     -50.201  15.525  23.197  0.00  0.00     0.021 A 
ATOM     23  C   UNL d   1     -49.400  15.505  22.967  0.00  0.00     0.092 A 
ENDBRANCH  16  19
ENDBRANCH   1  16
TORSDOF 5
ENDMDL
MODEL 2
REMARK VINA RESULT:      -7.0      1.260      1.770
REMARK  5 active torsions:
REMARK  status: ('A' for Active; 'I' for Inactive)
REMARK    1  A    between atoms: N_2  and  S_1 
REMARK    2  A    between atoms: C_3  and  S_1 
REMARK    3  A    between atoms: C_6  and  O_7 
REMARK    4  A    between atoms: O_7  and  C_11 
REMARK    5  A    between atoms: O_16  and  C_8 
ROOT
ATOM      1  C   UNL d   1     -48.504  13.290  22.893  0.00  0.00     0.104 A 
ATOM      2  C   UNL d   1     -48.315  12.498  22.957  0.00  0.00     0.015 A 
ATOM      3  C   UNL d   1     -47.920  13.869  23.028  0.00  0.00     0.015 A 
ATOM      4  C   UNL d   1     -46.971  12.851  23.288  0.00  0.00     0.100 A 
ATOM      5  C   UNL d   1     -47.158  13.645  23.224  0.00  0.00     0.025 A 
ATOM      6  C   UNL d   1     -47.555  12.272  23.153  0.00  0.00     0.025 A 
ENDROOT
BRANCH   4   7
ATOM      7  O   UNL d   1     -46.196  12.614  23.487  0.00  0.00    -0.305 OA
BRANCH   7   8
ATOM      8  C   UNL d   1     -45.585  12.630  22.926  0.00  0.00     0.122 A 
ATOM      9  C   UNL d   1     -45.030  12.024  22.905  0.00  0.00     0.117 A 
ATOM     10  C   UNL d   1     -44.422  12.044  22.343  0.00  0.00     0.026 A 
ATOM     11  C   UNL d   1     -44.379  12.669  21.811  0.00  0.00     0.002 A 
ATOM     12  C   UNL d   1     -44.937  13.276  21.833  0.00  0.00     0.002 A 
ATOM     13  C   UNL d   1     -45.542  13.255  22.394  0.00  0.00     0.027 A 
BRANCH   9  14
ATOM     14  O   UNL d   1     -45.081  11.404  23.442  0.00  0.00    -0.326 OA
ATOM     15  C   UNL d   1     -44.561  10.779  23.391  0.00  0.00     0.181 C 
ENDBRANCH   9  14
ENDBRANCH   7   8
ENDBRANCH   4   7
BRANCH   1  16
ATOM     16  S   UNL d   1     -49.275  13.511  22.695  0.00  0.00     0.271 S 
ATOM     17  O   UNL d   1     -49.850  13.604  23.289  0.00  0.00    -0.200 OA
ATOM     18  O   UNL d   1     -49.480  13.641  21.905  0.00  0.00    -0.200 OA
BRANCH  16  19
ATOM     19  N   UNL d   1     -49.967  13.730  22.300  0.00  0.00    -0.229 N 
ATOM     20  C   UNL d   1     -50.350  13.297  21.702  0.00  0.00     0.092 A 
ATOM     21  C   UNL d   1     -51.022  13.712  21.457  0.00  0.00     0.021 A 
ATOM     22  C   UNL d   1     -51.064  14.406  21.898  0.00  0.00     0.021 A 
ATOM     23  C   UNL d   1     -50.417  14.425  22.422  0.00  0.00     0.092 A 
ENDBRANCH  16  19
ENDBRANCH   1  16
TORSDOF 5
ENDMDL
MODEL 3
REMARK VINA RESULT:      -6.8      1.720      4.912
REMARK  5 active torsions:
REMARK  status: ('A' for Active; 'I' for Inactive)
REMARK    1  A    between atoms: N_2  and  S_1 
REMARK    2  A    between atoms: C_3  and  S_1 
REMARK    3  A    between atoms: C_6  and  O_7 
REMARK    4  A    between atoms: O_7  and  C_11 
REMARK    5  A    between atoms: O_16  and  C_8 
ROOT
ATOM      1  C   UNL d   1     -46.242  13.126  22.531  0.00  0.00     0.104 A 
ATOM      2  C   UNL d   1     -46.439  13.327  23.298  0.00  0.00     0.015 A 
ATOM      3  C   UNL d   1     -46.841  12.942  21.982  0.00  0.00     0.015 A 
ATOM      4  C   UNL d   1     -47.822  13.166  22.979  0.00  0.00     0.100 A 
ATOM      5  C   UNL d   1     -47.628  12.964  22.210  0.00  0.00     0.025 A 
ATOM      6  C   UNL d   1     -47.223  13.349  23.528  0.00  0.00     0.025 A 
ENDROOT
BRANCH   4   7
ATOM      7  O   UNL d   1     -48.621  13.190  23.219  0.00  0.00    -0.305 OA
BRANCH   7   8
ATOM      8  C   UNL d   1     -49.088  13.863  23.086  0.00  0.00     0.122 A 
ATOM      9  C   UNL d   1     -49.906  13.818  23.162  0.00  0.00     0.117 A 
ATOM     10  C   UNL d   1     -50.368  14.492  23.029  0.00  0.00     0.026 A 
ATOM     11  C   UNL d   1     -50.005  15.200  22.821  0.00  0.00     0.002 A 
ATOM     12  C   UNL d   1     -49.185  15.244  22.745  0.00  0.00     0.002 A 
ATOM     13  C   UNL d   1     -48.726  14.571  22.878  0.00  0.00     0.027 A 
BRANCH   9  14
ATOM     14  O   UNL d   1     -50.258  13.105  23.371  0.00  0.00    -0.326 OA
ATOM     15  C   UNL d   1     -51.063  13.069  23.487  0.00  0.00     0.181 C 
ENDBRANCH   9  14
ENDBRANCH   7   8
ENDBRANCH   4   7
BRANCH   1  16
ATOM     16  S   UNL d   1     -45.447  13.105  22.306  0.00  0.00     0.271 S 
ATOM     17  O   UNL d   1     -45.029  13.814  22.180  0.00  0.00    -0.200 OA
ATOM     18  O   UNL d   1     -45.063  12.381  22.204  0.00  0.00    -0.200 OA
BRANCH  16  19
ATOM     19  N   UNL d   1     -44.684  12.876  22.092  0.00  0.00    -0.229 N 
ATOM     20  C   UNL d   1     -44.171  13.288  21.582  0.00  0.00     0.092 A 
ATOM     21  C   UNL d   1     -43.461  12.868  21.516  0.00  0.00     0.021 A 
ATOM     22  C   UNL d   1     -43.524  12.193  21.983  0.00  0.00     0.021 A 
ATOM     23  C   UNL d   1     -44.275  12.189  22.342  0.00  0.00     0.092 A 
ENDBRANCH  16  19
ENDBRANCH   1  16
TORSDOF 5
ENDMDL
MODEL 4
REMARK VINA RESULT:      -6.2      7.887      9.087
REMARK  5 active torsions:
REMARK  status: ('A' for Active; 'I' for Inactive)
REMARK    1  A    between atoms: N_2  and  S_1 
REMARK    2  A    between atoms: C_3  and  S_1 
REMARK    3  A    between atoms: C_6  and  O_7 
REMARK    4  A    between atoms: O_7  and  C_11 
REMARK    5  A    between atoms: O_16  and  C_8 
ROOT
ATOM      1  C   UNL d   1     -39.653  15.015  20.975  0.00  0.00     0.104 A 
ATOM      2  C   UNL d   1     -39.229  15.563  20.541  0.00  0.00     0.015 A 
ATOM      3  C   UNL d   1     -40.344  14.676  20.656  0.00  0.00     0.015 A 
ATOM      4  C   UNL d   1     -40.173  15.439  19.475  0.00  0.00     0.100 A 
ATOM      5  C   UNL d   1     -40.599  14.891  19.908  0.00  0.00     0.025 A 
ATOM      6  C   UNL d   1     -39.482  15.778  19.794  0.00  0.00     0.025 A 
ENDROOT
BRANCH   4   7
ATOM      7  O   UNL d   1     -40.426  15.663  18.713  0.00  0.00    -0.305 OA
BRANCH   7   8
ATOM      8  C   UNL d   1     -40.196  15.234  18.041  0.00  0.00     0.122 A 
ATOM      9  C   UNL d   1     -40.578  15.355  17.324  0.00  0.00     0.117 A 
ATOM     10  C   UNL d   1     -40.344  14.924  16.656  0.00  0.00     0.026 A 
ATOM     11  C   UNL d   1     -39.732  14.379  16.717  0.00  0.00     0.002 A 
ATOM     12  C   UNL d   1     -39.349  14.258  17.438  0.00  0.00     0.002 A 
ATOM     13  C   UNL d   1     -39.583  14.689  18.102  0.00  0.00     0.027 A 
BRANCH   9  14
ATOM     14  O   UNL d   1     -41.189  15.902  17.274  0.00  0.00    -0.326 OA
ATOM     15  C   UNL d   1     -41.663  15.922  16.611  0.00  0.00     0.181 C 
ENDBRANCH   9  14
ENDBRANCH   7   8
ENDBRANCH   4   7
BRANCH   1  16
ATOM     16  S   UNL d   1     -39.392  14.802  21.729  0.00  0.00     0.271 S 
ATOM     17  O   UNL d   1     -39.624  15.246  22.394  0.00  0.00    -0.200 OA
ATOM     18  O   UNL d   1     -38.898  14.148  21.828  0.00  0.00    -0.200 OA
BRANCH  16  19
ATOM     19  N   UNL d   1     -39.032  14.436  22.376  0.00  0.00    -0.229 N 
ATOM     20  C   UNL d   1     -39.015  13.618  22.530  0.00  0.00     0.092 A 
ATOM     21  C   UNL d   1     -38.599  13.486  23.234  0.00  0.00     0.021 A 
ATOM     22  C   UNL d   1     -38.354  14.216  23.523  0.00  0.00     0.021 A 
ATOM     23  C   UNL d   1     -38.617  14.808  23.000  0.00  0.00     0.092 A 
ENDBRANCH  16  19
ENDBRANCH   1  16
TORSDOF 5
ENDMDL
MODEL 5
REMARK VINA RESULT:      -6.1      7.671      8.487
REMARK  5 active torsions:
REMARK  status: ('A' for Active; 'I' for Inactive)
REMARK    1  A    between atoms: N_2  and  S_1 
REMARK    2  A    between atoms: C_3  and  S_1 
REMARK    3  A    between atoms: C_6  and  O_7 
REMARK    4  A    between atoms: O_7  and  C_11 
REMARK    5  A    between atoms: O_16  and  C_8 
ROOT
ATOM      1  C   UNL d   1     -40.124  14.818  19.677  0.00  0.00     0.104 A 
ATOM      2  C   UNL d   1     -40.679  14.707  20.266  0.00  0.00     0.015 A 
ATOM      3  C   UNL d   1     -39.323  14.639  19.821  0.00  0.00     0.015 A 
ATOM      4  C   UNL d   1     -39.650  14.242  21.141  0.00  0.00     0.100 A 
ATOM      5  C   UNL d   1     -39.091  14.352  20.552  0.00  0.00     0.025 A 
ATOM      6  C   UNL d   1     -40.450  14.421  20.997  0.00  0.00     0.025 A 
ENDROOT
BRANCH   4   7
ATOM      7  O   UNL d   1     -39.422  13.950  21.889  0.00  0.00    -0.305 OA
BRANCH   7   8
ATOM      8  C   UNL d   1     -39.095  14.452  22.463  0.00  0.00     0.122 A 
ATOM      9  C   UNL d   1     -38.614  14.143  23.054  0.00  0.00     0.117 A 
ATOM     10  C   UNL d   1     -38.290  14.648  23.625  0.00  0.00     0.026 A 
ATOM     11  C   UNL d   1     -38.452  15.453  23.597  0.00  0.00     0.002 A 
ATOM     12  C   UNL d   1     -38.935  15.762  23.003  0.00  0.00     0.002 A 
ATOM     13  C   UNL d   1     -39.257  15.257  22.435  0.00  0.00     0.027 A 
BRANCH   9  14
ATOM     14  O   UNL d   1     -38.458  13.336  23.073  0.00  0.00    -0.326 OA
ATOM     15  C   UNL d   1     -38.042  13.019  23.698  0.00  0.00     0.181 C 
ENDBRANCH   9  14
ENDBRANCH   7   8
ENDBRANCH   4   7
BRANCH   1  16
ATOM     16  S   UNL d   1     -40.363  15.108  18.941  0.00  0.00     0.271 S 
ATOM     17  O   UNL d   1     -40.578  15.907  18.855  0.00  0.00    -0.200 OA
ATOM     18  O   UNL d   1     -40.389  14.605  18.286  0.00  0.00    -0.200 OA
BRANCH  16  19
ATOM     19  N   UNL d   1     -40.566  15.197  18.146  0.00  0.00    -0.229 N 
ATOM     20  C   UNL d   1     -40.914  15.869  17.800  0.00  0.00     0.092 A 
ATOM     21  C   UNL d   1     -41.026  15.729  16.992  0.00  0.00     0.021 A 
ATOM     22  C   UNL d   1     -40.749  14.971  16.827  0.00  0.00     0.021 A 
ATOM     23  C   UNL d   1     -40.464  14.636  17.534  0.00  0.00     0.092 A 
ENDBRANCH  16  19
ENDBRANCH   1  16
TORSDOF 5
ENDMDL
