MODEL 1
REMARK VINA RESULT:      -2.9      0.000      0.000
REMARK  1 active torsions:
REMARK  status: ('A' for Active; 'I' for Inactive)
REMARK    1  A    between atoms: C_7  and  N_1 
ROOT
ATOM      1  N   UNL d   1      30.317  16.444 -23.935  0.00  0.00    -0.226 N 
ATOM      2  C   UNL d   1      30.052  15.910 -23.365  0.00  0.00     0.359 A 
ATOM      3  C   UNL d   1      29.774  16.899 -24.360  0.00  0.00     0.273 A 
ATOM      4  N   UNL d   1      29.244  15.832 -23.220  0.00  0.00    -0.153 NA
ATOM      5  C   UNL d   1      28.701  16.287 -23.645  0.00  0.00     0.288 A 
ATOM      6  C   UNL d   1      28.965  16.821 -24.216  0.00  0.00     0.124 A 
ATOM      7  O   UNL d   1      30.593  15.453 -22.937  0.00  0.00    -0.244 OA
ATOM      8  O   UNL d   1      30.039  17.434 -24.931  0.00  0.00    -0.266 OA
ATOM      9  O   UNL d   1      27.892  16.208 -23.501  0.00  0.00    -0.265 OA
ENDROOT
BRANCH   1  10
ATOM     10  C   UNL d   1      31.126  16.523 -24.080  0.00  0.00     0.071 A 
ATOM     11  C   UNL d   1      31.491  16.038 -24.655  0.00  0.00     0.016 A 
ATOM     12  C   UNL d   1      31.040  15.485 -25.073  0.00  0.00     0.002 C 
ATOM     13  C   UNL d   1      32.297  16.113 -24.802  0.00  0.00     0.001 A 
ATOM     14  C   UNL d   1      32.746  16.667 -24.382  0.00  0.00     0.000 A 
ATOM     15  C   UNL d   1      32.382  17.143 -23.816  0.00  0.00     0.002 A 
ATOM     16  C   UNL d   1      31.566  17.072 -23.663  0.00  0.00     0.018 A 
ENDBRANCH   1  10
TORSDOF 1
ENDMDL
MODEL 2
REMARK VINA RESULT:      -2.9      0.435      1.251
REMARK  1 active torsions:
REMARK  status: ('A' for Active; 'I' for Inactive)
REMARK    1  A    between atoms: C_7  and  N_1 
ROOT
ATOM      1  N   UNL d   1      30.165  16.437 -23.907  0.00  0.00    -0.226 N 
ATOM      2  C   UNL d   1      29.621  16.876 -24.346  0.00  0.00     0.359 A 
ATOM      3  C   UNL d   1      29.901  15.892 -23.345  0.00  0.00     0.273 A 
ATOM      4  N   UNL d   1      28.812  16.769 -24.220  0.00  0.00    -0.153 NA
ATOM      5  C   UNL d   1      28.548  16.225 -23.658  0.00  0.00     0.288 A 
ATOM      6  C   UNL d   1      29.092  15.785 -23.220  0.00  0.00     0.124 A 
ATOM      7  O   UNL d   1      29.882  17.422 -24.909  0.00  0.00    -0.244 OA
ATOM      8  O   UNL d   1      30.445  15.453 -22.907  0.00  0.00    -0.266 OA
ATOM      9  O   UNL d   1      27.739  16.118 -23.533  0.00  0.00    -0.265 OA
ENDROOT
BRANCH   1  10
ATOM     10  C   UNL d   1      30.974  16.543 -24.033  0.00  0.00     0.071 A 
ATOM     11  C   UNL d   1      31.369  16.076 -24.603  0.00  0.00     0.016 A 
ATOM     12  C   UNL d   1      30.946  15.512 -25.035  0.00  0.00     0.002 C 
ATOM     13  C   UNL d   1      32.175  16.179 -24.731  0.00  0.00     0.001 A 
ATOM     14  C   UNL d   1      32.595  16.744 -24.296  0.00  0.00     0.000 A 
ATOM     15  C   UNL d   1      32.202  17.203 -23.735  0.00  0.00     0.002 A 
ATOM     16  C   UNL d   1      31.386  17.103 -23.601  0.00  0.00     0.018 A 
ENDBRANCH   1  10
TORSDOF 1
ENDMDL
MODEL 3
REMARK VINA RESULT:      -2.7      1.129      2.740
REMARK  1 active torsions:
REMARK  status: ('A' for Active; 'I' for Inactive)
REMARK    1  A    between atoms: C_7  and  N_1 
ROOT
ATOM      1  N   UNL d   1      30.472  16.682 -24.040  0.00  0.00    -0.226 N 
ATOM      2  C   UNL d   1      31.072  16.330 -23.597  0.00  0.00     0.359 A 
ATOM      3  C   UNL d   1      30.637  17.337 -24.516  0.00  0.00     0.273 A 
ATOM      4  N   UNL d   1      31.839  16.635 -23.631  0.00  0.00    -0.153 NA
ATOM      5  C   UNL d   1      32.004  17.289 -24.106  0.00  0.00     0.288 A 
ATOM      6  C   UNL d   1      31.403  17.641 -24.549  0.00  0.00     0.124 A 
ATOM      7  O   UNL d   1      30.911  15.674 -23.120  0.00  0.00    -0.244 OA
ATOM      8  O   UNL d   1      30.036  17.689 -24.959  0.00  0.00    -0.266 OA
ATOM      9  O   UNL d   1      32.770  17.594 -24.140  0.00  0.00    -0.265 OA
ENDROOT
BRANCH   1  10
ATOM     10  C   UNL d   1      29.705  16.377 -24.007  0.00  0.00     0.071 A 
ATOM     11  C   UNL d   1      29.484  15.759 -24.524  0.00  0.00     0.016 A 
ATOM     12  C   UNL d   1      30.034  15.458 -25.064  0.00  0.00     0.002 C 
ATOM     13  C   UNL d   1      28.721  15.453 -24.494  0.00  0.00     0.001 A 
ATOM     14  C   UNL d   1      28.173  15.756 -23.953  0.00  0.00     0.000 A 
ATOM     15  C   UNL d   1      28.395  16.366 -23.444  0.00  0.00     0.002 A 
ATOM     16  C   UNL d   1      29.167  16.680 -23.470  0.00  0.00     0.018 A 
ENDBRANCH   1  10
TORSDOF 1
ENDMDL
MODEL 4
REMARK VINA RESULT:      -2.2      1.994      3.308
REMARK  1 active torsions:
REMARK  status: ('A' for Active; 'I' for Inactive)
REMARK    1  A    between atoms: C_7  and  N_1 
ROOT
ATOM      1  N   UNL d   1      32.201  17.636 -23.961  0.00  0.00    -0.226 N 
ATOM      2  C   UNL d   1      32.136  18.348 -24.374  0.00  0.00     0.359 A 
ATOM      3  C   UNL d   1      32.606  17.611 -23.242  0.00  0.00     0.273 A 
ATOM      4  N   UNL d   1      32.477  19.033 -24.067  0.00  0.00    -0.153 NA
ATOM      5  C   UNL d   1      32.882  19.008 -23.348  0.00  0.00     0.288 A 
ATOM      6  C   UNL d   1      32.947  18.297 -22.934  0.00  0.00     0.124 A 
ATOM      7  O   UNL d   1      31.731  18.377 -25.095  0.00  0.00    -0.244 OA
ATOM      8  O   UNL d   1      32.671  16.900 -22.828  0.00  0.00    -0.266 OA
ATOM      9  O   UNL d   1      33.223  19.694 -23.041  0.00  0.00    -0.265 OA
ENDROOT
BRANCH   1  10
ATOM     10  C   UNL d   1      31.860  16.950 -24.268  0.00  0.00     0.071 A 
ATOM     11  C   UNL d   1      32.303  16.465 -24.785  0.00  0.00     0.016 A 
ATOM     12  C   UNL d   1      33.078  16.676 -24.983  0.00  0.00     0.002 C 
ATOM     13  C   UNL d   1      31.967  15.780 -25.094  0.00  0.00     0.001 A 
ATOM     14  C   UNL d   1      31.192  15.572 -24.893  0.00  0.00     0.000 A 
ATOM     15  C   UNL d   1      30.758  16.054 -24.383  0.00  0.00     0.002 A 
ATOM     16  C   UNL d   1      31.093  16.748 -24.067  0.00  0.00     0.018 A 
ENDBRANCH   1  10
TORSDOF 1
ENDMDL
