MODEL 1
REMARK VINA RESULT:      62.2      0.000      0.000
REMARK  5 active torsions:
REMARK  status: ('A' for Active; 'I' for Inactive)
REMARK    1  A    between atoms: C_16  and  N_2 
REMARK    2  A    between atoms: S_9  and  C_4 
REMARK    3  A    between atoms: C_17  and  S_9 
REMARK    4  A    between atoms: C_10  and  C_17 
REMARK       I    between atoms: N_12  and  C_10 
REMARK    5  A    between atoms: C_14  and  N_12 
ROOT
ATOM      1  C   UNL d   1     -51.656  25.016  33.331  0.00  0.00     0.104 A 
ATOM      2  N   UNL d   1     -50.253  25.274  33.320  0.00  0.00    -0.252 N 
ATOM      3  C   UNL d   1     -50.891  24.738  33.321  0.00  0.00     0.274 A 
ATOM      4  C   UNL d   1     -50.402  26.085  33.330  0.00  0.00     0.182 A 
ATOM      5  C   UNL d   1     -51.805  25.828  33.340  0.00  0.00     0.095 A 
ATOM      6  N   UNL d   1     -51.189  26.361  33.340  0.00  0.00    -0.222 NA
ATOM      7  S   UNL d   1     -52.380  24.627  33.334  0.00  0.00    -0.081 SA
ATOM      8  C   UNL d   1     -52.621  25.939  33.349  0.00  0.00     0.026 A 
ATOM      9  O   UNL d   1     -50.742  23.926  33.311  0.00  0.00    -0.266 OA
ATOM     10  C   UNL d   1     -52.976  25.203  33.345  0.00  0.00     0.031 A 
ATOM     11  C   UNL d   1     -53.790  25.067  33.351  0.00  0.00     0.007 C 
ENDROOT
BRANCH   4  12
ATOM     12  S   UNL d   1     -49.771  26.630  33.330  0.00  0.00    -0.044 SA
BRANCH  12  13
ATOM     13  C   UNL d   1     -49.749  27.228  33.899  0.00  0.00     0.101 C 
BRANCH  13  14
ATOM     14  C   UNL d   1     -50.133  27.945  33.759  0.00  0.00     0.286 C 
ATOM     15  N   UNL d   1     -49.825  28.646  34.068  0.00  0.00    -0.208 NA
ATOM     16  O   UNL d   1     -50.826  27.962  33.310  0.00  0.00    -0.265 OA
BRANCH  15  17
ATOM     17  C   UNL d   1     -49.133  28.628  34.517  0.00  0.00     0.085 A 
ATOM     18  C   UNL d   1     -48.656  29.291  34.553  0.00  0.00     0.019 A 
ATOM     19  C   UNL d   1     -47.964  29.274  35.001  0.00  0.00     0.002 A 
ATOM     20  C   UNL d   1     -47.474  29.953  35.038  0.00  0.00     0.000 C 
ATOM     21  C   UNL d   1     -47.757  28.592  35.409  0.00  0.00     0.000 A 
ATOM     22  C   UNL d   1     -48.241  27.926  35.371  0.00  0.00     0.002 A 
ATOM     23  C   UNL d   1     -48.926  27.947  34.925  0.00  0.00     0.019 A 
ENDBRANCH  15  17
ENDBRANCH  13  14
ENDBRANCH  12  13
ENDBRANCH   4  12
BRANCH   2  24
ATOM     24  C   UNL d   1     -49.471  24.994  33.310  0.00  0.00     0.085 C 
ATOM     25  C   UNL d   1     -49.062  24.889  34.020  0.00  0.00     0.021 C 
ENDBRANCH   2  24
TORSDOF 5
ENDMDL
MODEL 2
REMARK VINA RESULT:      63.7      2.989      4.580
REMARK  5 active torsions:
REMARK  status: ('A' for Active; 'I' for Inactive)
REMARK    1  A    between atoms: C_16  and  N_2 
REMARK    2  A    between atoms: S_9  and  C_4 
REMARK    3  A    between atoms: C_17  and  S_9 
REMARK    4  A    between atoms: C_10  and  C_17 
REMARK       I    between atoms: N_12  and  C_10 
REMARK    5  A    between atoms: C_14  and  N_12 
ROOT
ATOM      1  C   UNL d   1     -51.725  26.145  37.675  0.00  0.00     0.104 A 
ATOM      2  N   UNL d   1     -50.846  26.767  36.741  0.00  0.00    -0.252 N 
ATOM      3  C   UNL d   1     -51.071  26.606  37.527  0.00  0.00     0.274 A 
ATOM      4  C   UNL d   1     -51.288  26.457  36.118  0.00  0.00     0.182 A 
ATOM      5  C   UNL d   1     -52.168  25.835  37.052  0.00  0.00     0.095 A 
ATOM      6  N   UNL d   1     -51.957  25.986  36.280  0.00  0.00    -0.222 NA
ATOM      7  S   UNL d   1     -52.073  25.898  38.379  0.00  0.00    -0.081 SA
ATOM      8  C   UNL d   1     -52.789  25.397  37.371  0.00  0.00     0.026 A 
ATOM      9  O   UNL d   1     -50.628  26.916  38.150  0.00  0.00    -0.266 OA
ATOM     10  C   UNL d   1     -52.732  25.435  38.186  0.00  0.00     0.031 A 
ATOM     11  C   UNL d   1     -53.248  25.070  38.716  0.00  0.00     0.007 C 
ENDROOT
BRANCH   4  12
ATOM     12  S   UNL d   1     -51.071  26.611  35.328  0.00  0.00    -0.044 SA
BRANCH  12  13
ATOM     13  C   UNL d   1     -51.422  26.181  34.717  0.00  0.00     0.101 C 
BRANCH  13  14
ATOM     14  C   UNL d   1     -51.612  26.553  34.005  0.00  0.00     0.286 C 
ATOM     15  N   UNL d   1     -51.642  26.117  33.306  0.00  0.00    -0.208 NA
ATOM     16  O   UNL d   1     -51.771  27.364  33.993  0.00  0.00    -0.265 OA
BRANCH  15  17
ATOM     17  C   UNL d   1     -51.482  25.307  33.318  0.00  0.00     0.085 A 
ATOM     18  C   UNL d   1     -52.100  24.772  33.332  0.00  0.00     0.019 A 
ATOM     19  C   UNL d   1     -51.940  23.963  33.344  0.00  0.00     0.002 A 
ATOM     20  C   UNL d   1     -52.572  23.413  33.358  0.00  0.00     0.000 C 
ATOM     21  C   UNL d   1     -51.163  23.699  33.343  0.00  0.00     0.000 A 
ATOM     22  C   UNL d   1     -50.542  24.242  33.329  0.00  0.00     0.002 A 
ATOM     23  C   UNL d   1     -50.705  25.043  33.317  0.00  0.00     0.019 A 
ENDBRANCH  15  17
ENDBRANCH  13  14
ENDBRANCH  12  13
ENDBRANCH   4  12
BRANCH   2  24
ATOM     24  C   UNL d   1     -50.178  27.237  36.585  0.00  0.00     0.085 C 
ATOM     25  C   UNL d   1     -49.831  27.673  37.194  0.00  0.00     0.021 C 
ENDBRANCH   2  24
TORSDOF 5
ENDMDL
