MODEL 1
REMARK VINA RESULT:      10.2      0.000      0.000
REMARK  7 active torsions:
REMARK  status: ('A' for Active; 'I' for Inactive)
REMARK    1  A    between atoms: C_5  and  C_1 
REMARK    2  A    between atoms: N_6  and  C_2 
REMARK       I    between atoms: N_10  and  C_5 
REMARK    3  A    between atoms: C_20  and  N_6 
REMARK    4  A    between atoms: C_9  and  C_12 
REMARK    5  A    between atoms: C_22  and  N_10 
REMARK    6  A    between atoms: C_11  and  C_22 
REMARK    7  A    between atoms: O_30  and  C_25 
ROOT
ATOM      1  C   UNL d   1     -41.465-121.940 -51.552  0.00  0.00     0.099 A 
ATOM      2  C   UNL d   1     -41.446-121.923 -52.376  0.00  0.00     0.187 A 
ATOM      3  C   UNL d   1     -41.405-121.221 -51.129  0.00  0.00     0.010 A 
ATOM      4  O   UNL d   1     -41.369-121.212 -52.781  0.00  0.00    -0.289 OA
ATOM      5  C   UNL d   1     -41.328-120.502 -51.533  0.00  0.00     0.025 A 
ATOM      6  C   UNL d   1     -41.309-120.493 -52.349  0.00  0.00     0.102 A 
ATOM      7  C   UNL d   1     -41.268-119.792 -51.118  0.00  0.00     0.026 A 
ATOM      8  C   UNL d   1     -41.231-119.774 -52.765  0.00  0.00     0.027 A 
ATOM      9  C   UNL d   1     -41.191-119.081 -51.518  0.00  0.00     0.094 A 
ATOM     10  C   UNL d   1     -41.172-119.064 -52.341  0.00  0.00     0.026 A 
ENDROOT
BRANCH   2  11
ATOM     11  N   UNL d   1     -41.506-122.646 -52.796  0.00  0.00    -0.222 NA
BRANCH  11  12
ATOM     12  C   UNL d   1     -41.760-122.637 -53.580  0.00  0.00     0.084 A 
ATOM     13  C   UNL d   1     -42.485-122.291 -53.767  0.00  0.00     0.019 A 
ATOM     14  C   UNL d   1     -42.734-122.284 -54.545  0.00  0.00     0.008 A 
ATOM     15  C   UNL d   1     -42.270-122.618 -55.148  0.00  0.00     0.065 A 
ATOM     16  C   UNL d   1     -41.543-122.964 -54.956  0.00  0.00     0.008 A 
ATOM     17  C   UNL d   1     -41.296-122.969 -54.170  0.00  0.00     0.019 A 
BRANCH  15  18
ATOM     18  C   UNL d   1     -42.525-122.609 -55.931  0.00  0.00     0.211 C 
ATOM     19  O   UNL d   1     -42.944-123.255 -56.242  0.00  0.00    -0.644 OA
ATOM     20  O   UNL d   1     -42.370-121.959 -56.422  0.00  0.00    -0.644 OA
ENDBRANCH  15  18
ENDBRANCH  11  12
ENDBRANCH   2  11
BRANCH   1  21
ATOM     21  C   UNL d   1     -41.542-122.650 -51.144  0.00  0.00     0.283 C 
ATOM     22  N   UNL d   1     -41.477-122.663 -50.307  0.00  0.00    -0.204 NA
ATOM     23  O   UNL d   1     -41.686-123.370 -51.547  0.00  0.00    -0.265 OA
BRANCH  22  24
ATOM     24  C   UNL d   1     -41.554-123.379 -49.893  0.00  0.00     0.127 C 
BRANCH  24  25
ATOM     25  C   UNL d   1     -41.591-123.382 -49.070  0.00  0.00     0.119 A 
ATOM     26  O   UNL d   1     -41.134-123.024 -48.483  0.00  0.00    -0.304 OA
ATOM     27  C   UNL d   1     -41.434-123.227 -47.751  0.00  0.00     0.123 A 
ATOM     28  C   UNL d   1     -42.076-123.711 -47.864  0.00  0.00     0.029 A 
ATOM     29  C   UNL d   1     -42.178-123.811 -48.678  0.00  0.00     0.028 A 
ENDBRANCH  24  25
ENDBRANCH  22  24
ENDBRANCH   1  21
BRANCH   9  30
ATOM     30  O   UNL d   1     -41.132-118.371 -51.090  0.00  0.00    -0.328 OA
ATOM     31  C   UNL d   1     -41.141-117.638 -51.492  0.00  0.00     0.181 C 
ENDBRANCH   9  30
TORSDOF 7
ENDMDL
