MODEL 1
REMARK VINA RESULT:      -5.0      0.000      0.000
REMARK  6 active torsions:
REMARK  status: ('A' for Active; 'I' for Inactive)
REMARK    1  A    between atoms: N_3  and  S_1 
REMARK    2  A    between atoms: C_7  and  S_1 
REMARK    3  A    between atoms: C_2  and  N_3 
REMARK    4  A    between atoms: N_8  and  C_5 
REMARK    5  A    between atoms: C_20  and  N_8 
REMARK    6  A    between atoms: C_13  and  C_20 
ROOT
ATOM      1  C   UNL d   1     -40.202  14.944  20.611  0.00  0.00     0.211 A 
ATOM      2  N   UNL d   1     -39.501  15.387  20.694  0.00  0.00    -0.222 NA
ATOM      3  C   UNL d   1     -40.472  14.479  21.248  0.00  0.00     0.200 A 
ATOM      4  N   UNL d   1     -40.044  14.466  21.942  0.00  0.00    -0.223 NA
ATOM      5  C   UNL d   1     -39.071  15.369  21.400  0.00  0.00     0.101 A 
ATOM      6  C   UNL d   1     -39.354  14.899  22.028  0.00  0.00     0.101 A 
ATOM      7  C   UNL d   1     -38.915  14.876  22.759  0.00  0.00     0.021 A 
ATOM      8  C   UNL d   1     -38.358  15.816  21.492  0.00  0.00     0.021 A 
ATOM      9  C   UNL d   1     -38.211  15.328  22.826  0.00  0.00     0.002 A 
ATOM     10  C   UNL d   1     -37.941  15.793  22.188  0.00  0.00     0.002 A 
ENDROOT
BRANCH   1  11
ATOM     11  N   UNL d   1     -40.628  14.937  19.970  0.00  0.00    -0.136 NA
BRANCH  11  12
ATOM     12  S   UNL d   1     -40.455  15.330  19.286  0.00  0.00     0.287 S 
ATOM     13  O   UNL d   1     -40.342  15.911  18.657  0.00  0.00    -0.198 OA
ATOM     14  O   UNL d   1     -40.756  15.881  19.789  0.00  0.00    -0.198 OA
BRANCH  12  15
ATOM     15  C   UNL d   1     -40.140  15.049  18.594  0.00  0.00     0.105 A 
ATOM     16  C   UNL d   1     -39.396  15.285  18.353  0.00  0.00     0.013 A 
ATOM     17  C   UNL d   1     -39.046  15.007  17.638  0.00  0.00     0.001 A 
ATOM     18  C   UNL d   1     -39.486  14.466  17.161  0.00  0.00     0.000 A 
ATOM     19  C   UNL d   1     -40.232  14.223  17.394  0.00  0.00     0.001 A 
ATOM     20  C   UNL d   1     -39.194  14.166  16.459  0.00  0.00     0.000 C 
ATOM     21  C   UNL d   1     -40.566  14.514  18.117  0.00  0.00     0.013 A 
ENDBRANCH  12  15
ENDBRANCH  11  12
ENDBRANCH   1  11
BRANCH   3  22
ATOM     22  N   UNL d   1     -41.141  14.074  21.131  0.00  0.00    -0.221 NA
BRANCH  22  23
ATOM     23  C   UNL d   1     -41.453  13.465  21.521  0.00  0.00     0.125 C 
BRANCH  23  24
ATOM     24  C   UNL d   1     -42.224  13.316  21.451  0.00  0.00     0.119 A 
ATOM     25  O   UNL d   1     -42.815  13.780  21.684  0.00  0.00    -0.304 OA
ATOM     26  C   UNL d   1     -43.483  13.430  21.513  0.00  0.00     0.123 A 
ATOM     27  C   UNL d   1     -43.319  12.740  21.171  0.00  0.00     0.029 A 
ATOM     28  C   UNL d   1     -42.539  12.668  21.131  0.00  0.00     0.028 A 
ENDBRANCH  23  24
ENDBRANCH  22  23
ENDBRANCH   3  22
TORSDOF 6
ENDMDL
MODEL 2
REMARK VINA RESULT:      -4.8      1.883      4.799
REMARK  6 active torsions:
REMARK  status: ('A' for Active; 'I' for Inactive)
REMARK    1  A    between atoms: N_3  and  S_1 
REMARK    2  A    between atoms: C_7  and  S_1 
REMARK    3  A    between atoms: C_2  and  N_3 
REMARK    4  A    between atoms: N_8  and  C_5 
REMARK    5  A    between atoms: C_20  and  N_8 
REMARK    6  A    between atoms: C_13  and  C_20 
ROOT
ATOM      1  C   UNL d   1     -40.238  14.583  18.314  0.00  0.00     0.211 A 
ATOM      2  N   UNL d   1     -40.927  15.025  18.159  0.00  0.00    -0.222 NA
ATOM      3  C   UNL d   1     -39.737  14.369  17.682  0.00  0.00     0.200 A 
ATOM      4  N   UNL d   1     -39.933  14.596  16.924  0.00  0.00    -0.223 NA
ATOM      5  C   UNL d   1     -41.120  15.252  17.388  0.00  0.00     0.101 A 
ATOM      6  C   UNL d   1     -40.610  15.030  16.767  0.00  0.00     0.101 A 
ATOM      7  C   UNL d   1     -40.803  15.261  15.969  0.00  0.00     0.021 A 
ATOM      8  C   UNL d   1     -41.819  15.701  17.223  0.00  0.00     0.021 A 
ATOM      9  C   UNL d   1     -41.501  15.706  15.831  0.00  0.00     0.002 A 
ATOM     10  C   UNL d   1     -42.001  15.921  16.463  0.00  0.00     0.002 A 
ENDROOT
BRANCH   1  11
ATOM     11  N   UNL d   1     -40.027  14.355  19.017  0.00  0.00    -0.136 NA
BRANCH  11  12
ATOM     12  S   UNL d   1     -40.408  14.538  19.705  0.00  0.00     0.287 S 
ATOM     13  O   UNL d   1     -40.981  14.723  20.324  0.00  0.00    -0.198 OA
ATOM     14  O   UNL d   1     -40.982  14.464  19.147  0.00  0.00    -0.198 OA
BRANCH  12  15
ATOM     15  C   UNL d   1     -40.103  14.675  20.444  0.00  0.00     0.105 A 
ATOM     16  C   UNL d   1     -39.755  14.067  20.866  0.00  0.00     0.013 A 
ATOM     17  C   UNL d   1     -39.431  14.184  21.635  0.00  0.00     0.001 A 
ATOM     18  C   UNL d   1     -39.470  14.957  21.974  0.00  0.00     0.000 A 
ATOM     19  C   UNL d   1     -39.816  15.572  21.560  0.00  0.00     0.001 A 
ATOM     20  C   UNL d   1     -39.171  15.124  22.716  0.00  0.00     0.000 C 
ATOM     21  C   UNL d   1     -40.137  15.434  20.787  0.00  0.00     0.013 A 
ENDBRANCH  12  15
ENDBRANCH  11  12
ENDBRANCH   1  11
BRANCH   3  22
ATOM     22  N   UNL d   1     -39.093  13.950  17.868  0.00  0.00    -0.221 NA
BRANCH  22  23
ATOM     23  C   UNL d   1     -38.571  13.573  17.415  0.00  0.00     0.125 C 
BRANCH  23  24
ATOM     24  C   UNL d   1     -38.340  12.846  17.614  0.00  0.00     0.119 A 
ATOM     25  O   UNL d   1     -38.125  12.602  18.331  0.00  0.00    -0.304 OA
ATOM     26  C   UNL d   1     -37.940  11.853  18.288  0.00  0.00     0.123 A 
ATOM     27  C   UNL d   1     -38.036  11.617  17.543  0.00  0.00     0.029 A 
ATOM     28  C   UNL d   1     -38.284  12.232  17.124  0.00  0.00     0.028 A 
ENDBRANCH  23  24
ENDBRANCH  22  23
ENDBRANCH   3  22
TORSDOF 6
ENDMDL
MODEL 3
REMARK VINA RESULT:      -4.7      1.262      3.559
REMARK  6 active torsions:
REMARK  status: ('A' for Active; 'I' for Inactive)
REMARK    1  A    between atoms: N_3  and  S_1 
REMARK    2  A    between atoms: C_7  and  S_1 
REMARK    3  A    between atoms: C_2  and  N_3 
REMARK    4  A    between atoms: N_8  and  C_5 
REMARK    5  A    between atoms: C_20  and  N_8 
REMARK    6  A    between atoms: C_13  and  C_20 
ROOT
ATOM      1  C   UNL d   1     -40.133  14.697  20.113  0.00  0.00     0.211 A 
ATOM      2  N   UNL d   1     -39.535  15.013  19.625  0.00  0.00    -0.222 NA
ATOM      3  C   UNL d   1     -40.770  14.285  19.766  0.00  0.00     0.200 A 
ATOM      4  N   UNL d   1     -40.796  14.200  18.956  0.00  0.00    -0.223 NA
ATOM      5  C   UNL d   1     -39.567  14.923  18.805  0.00  0.00     0.101 A 
ATOM      6  C   UNL d   1     -40.211  14.509  18.473  0.00  0.00     0.101 A 
ATOM      7  C   UNL d   1     -40.249  14.412  17.626  0.00  0.00     0.021 A 
ATOM      8  C   UNL d   1     -38.964  15.241  18.304  0.00  0.00     0.021 A 
ATOM      9  C   UNL d   1     -39.639  14.737  17.151  0.00  0.00     0.002 A 
ATOM     10  C   UNL d   1     -39.002  15.149  17.498  0.00  0.00     0.002 A 
ENDROOT
BRANCH   1  11
ATOM     11  N   UNL d   1     -40.136  14.761  20.880  0.00  0.00    -0.136 NA
BRANCH  11  12
ATOM     12  S   UNL d   1     -39.490  14.900  21.343  0.00  0.00     0.287 S 
ATOM     13  O   UNL d   1     -38.809  15.233  21.755  0.00  0.00    -0.198 OA
ATOM     14  O   UNL d   1     -39.634  15.587  20.951  0.00  0.00    -0.198 OA
BRANCH  12  15
ATOM     15  C   UNL d   1     -39.104  14.402  21.853  0.00  0.00     0.105 A 
ATOM     16  C   UNL d   1     -38.373  14.094  21.656  0.00  0.00     0.013 A 
ATOM     17  C   UNL d   1     -37.952  13.574  22.169  0.00  0.00     0.001 A 
ATOM     18  C   UNL d   1     -38.304  13.370  22.910  0.00  0.00     0.000 A 
ATOM     19  C   UNL d   1     -39.036  13.673  23.116  0.00  0.00     0.001 A 
ATOM     20  C   UNL d   1     -37.940  12.870  23.444  0.00  0.00     0.000 C 
ATOM     21  C   UNL d   1     -39.444  14.194  22.586  0.00  0.00     0.013 A 
ENDBRANCH  12  15
ENDBRANCH  11  12
ENDBRANCH   1  11
BRANCH   3  22
ATOM     22  N   UNL d   1     -41.317  14.000  20.260  0.00  0.00    -0.221 NA
BRANCH  22  23
ATOM     23  C   UNL d   1     -42.013  13.658  20.122  0.00  0.00     0.125 C 
BRANCH  23  24
ATOM     24  C   UNL d   1     -42.409  13.332  20.721  0.00  0.00     0.119 A 
ATOM     25  O   UNL d   1     -42.337  12.595  20.985  0.00  0.00    -0.304 OA
ATOM     26  C   UNL d   1     -42.824  12.499  21.578  0.00  0.00     0.123 A 
ATOM     27  C   UNL d   1     -43.207  13.177  21.694  0.00  0.00     0.029 A 
ATOM     28  C   UNL d   1     -42.951  13.695  21.164  0.00  0.00     0.028 A 
ENDBRANCH  23  24
ENDBRANCH  22  23
ENDBRANCH   3  22
TORSDOF 6
ENDMDL
MODEL 4
REMARK VINA RESULT:      -4.2      3.495      6.741
REMARK  6 active torsions:
REMARK  status: ('A' for Active; 'I' for Inactive)
REMARK    1  A    between atoms: N_3  and  S_1 
REMARK    2  A    between atoms: C_7  and  S_1 
REMARK    3  A    between atoms: C_2  and  N_3 
REMARK    4  A    between atoms: N_8  and  C_5 
REMARK    5  A    between atoms: C_20  and  N_8 
REMARK    6  A    between atoms: C_13  and  C_20 
ROOT
ATOM      1  C   UNL d   1     -44.889  12.522  22.487  0.00  0.00     0.211 A 
ATOM      2  N   UNL d   1     -45.229  11.901  22.928  0.00  0.00    -0.222 NA
ATOM      3  C   UNL d   1     -44.105  12.447  22.211  0.00  0.00     0.200 A 
ATOM      4  N   UNL d   1     -43.687  11.767  22.377  0.00  0.00    -0.223 NA
ATOM      5  C   UNL d   1     -44.800  11.215  23.093  0.00  0.00     0.101 A 
ATOM      6  C   UNL d   1     -44.017  11.155  22.810  0.00  0.00     0.101 A 
ATOM      7  C   UNL d   1     -43.569  10.449  22.977  0.00  0.00     0.021 A 
ATOM      8  C   UNL d   1     -45.139  10.580  23.540  0.00  0.00     0.021 A 
ATOM      9  C   UNL d   1     -43.928   9.834  23.422  0.00  0.00     0.002 A 
ATOM     10  C   UNL d   1     -44.711   9.909  23.698  0.00  0.00     0.002 A 
ENDROOT
BRANCH   1  11
ATOM     11  N   UNL d   1     -45.258  13.174  22.315  0.00  0.00    -0.136 NA
BRANCH  11  12
ATOM     12  S   UNL d   1     -45.872  13.492  22.732  0.00  0.00     0.287 S 
ATOM     13  O   UNL d   1     -46.390  13.841  23.327  0.00  0.00    -0.198 OA
ATOM     14  O   UNL d   1     -45.245  13.478  23.236  0.00  0.00    -0.198 OA
BRANCH  12  15
ATOM     15  C   UNL d   1     -46.635  13.635  22.499  0.00  0.00     0.105 A 
ATOM     16  C   UNL d   1     -47.054  14.259  22.819  0.00  0.00     0.013 A 
ATOM     17  C   UNL d   1     -47.848  14.429  22.593  0.00  0.00     0.001 A 
ATOM     18  C   UNL d   1     -48.216  13.933  22.015  0.00  0.00     0.000 A 
ATOM     19  C   UNL d   1     -47.804  13.306  21.688  0.00  0.00     0.001 A 
ATOM     20  C   UNL d   1     -48.982  14.053  21.760  0.00  0.00     0.000 C 
ATOM     21  C   UNL d   1     -47.005  13.151  21.929  0.00  0.00     0.013 A 
ENDBRANCH  12  15
ENDBRANCH  11  12
ENDBRANCH   1  11
BRANCH   3  22
ATOM     22  N   UNL d   1     -43.817  13.055  21.797  0.00  0.00    -0.221 NA
BRANCH  22  23
ATOM     23  C   UNL d   1     -43.362  13.077  21.155  0.00  0.00     0.125 C 
BRANCH  23  24
ATOM     24  C   UNL d   1     -42.743  13.566  21.136  0.00  0.00     0.119 A 
ATOM     25  O   UNL d   1     -42.767  14.352  21.138  0.00  0.00    -0.304 OA
ATOM     26  C   UNL d   1     -42.041  14.617  21.115  0.00  0.00     0.123 A 
ATOM     27  C   UNL d   1     -41.553  14.000  21.098  0.00  0.00     0.029 A 
ATOM     28  C   UNL d   1     -41.987  13.347  21.111  0.00  0.00     0.028 A 
ENDBRANCH  23  24
ENDBRANCH  22  23
ENDBRANCH   3  22
TORSDOF 6
ENDMDL
MODEL 5
REMARK VINA RESULT:      -3.7      5.666      8.579
REMARK  6 active torsions:
REMARK  status: ('A' for Active; 'I' for Inactive)
REMARK    1  A    between atoms: N_3  and  S_1 
REMARK    2  A    between atoms: C_7  and  S_1 
REMARK    3  A    between atoms: C_2  and  N_3 
REMARK    4  A    between atoms: N_8  and  C_5 
REMARK    5  A    between atoms: C_20  and  N_8 
REMARK    6  A    between atoms: C_13  and  C_20 
ROOT
ATOM      1  C   UNL d   1     -47.799  13.075  22.879  0.00  0.00     0.211 A 
ATOM      2  N   UNL d   1     -47.771  12.283  23.140  0.00  0.00    -0.222 NA
ATOM      3  C   UNL d   1     -48.539  13.442  22.764  0.00  0.00     0.200 A 
ATOM      4  N   UNL d   1     -49.221  13.020  22.909  0.00  0.00    -0.223 NA
ATOM      5  C   UNL d   1     -48.466  11.861  23.285  0.00  0.00     0.101 A 
ATOM      6  C   UNL d   1     -49.198  12.242  23.165  0.00  0.00     0.101 A 
ATOM      7  C   UNL d   1     -49.919  11.812  23.314  0.00  0.00     0.021 A 
ATOM      8  C   UNL d   1     -48.445  11.057  23.550  0.00  0.00     0.021 A 
ATOM      9  C   UNL d   1     -49.872  11.016  23.576  0.00  0.00     0.002 A 
ATOM     10  C   UNL d   1     -49.132  10.648  23.691  0.00  0.00     0.002 A 
ENDROOT
BRANCH   1  11
ATOM     11  N   UNL d   1     -47.174  13.498  22.734  0.00  0.00    -0.136 NA
BRANCH  11  12
ATOM     12  S   UNL d   1     -46.436  13.366  23.033  0.00  0.00     0.287 S 
ATOM     13  O   UNL d   1     -45.740  13.253  23.532  0.00  0.00    -0.198 OA
ATOM     14  O   UNL d   1     -46.912  13.499  23.667  0.00  0.00    -0.198 OA
BRANCH  12  15
ATOM     15  C   UNL d   1     -45.743  13.203  22.645  0.00  0.00     0.105 A 
ATOM     16  C   UNL d   1     -45.434  13.736  22.109  0.00  0.00     0.013 A 
ATOM     17  C   UNL d   1     -44.716  13.590  21.693  0.00  0.00     0.001 A 
ATOM     18  C   UNL d   1     -44.307  12.865  21.842  0.00  0.00     0.000 A 
ATOM     19  C   UNL d   1     -44.608  12.324  22.377  0.00  0.00     0.001 A 
ATOM     20  C   UNL d   1     -43.607  12.673  21.467  0.00  0.00     0.000 C 
ATOM     21  C   UNL d   1     -45.333  12.490  22.786  0.00  0.00     0.013 A 
ENDBRANCH  12  15
ENDBRANCH  11  12
ENDBRANCH   1  11
BRANCH   3  22
ATOM     22  N   UNL d   1     -48.525  14.193  22.516  0.00  0.00    -0.221 NA
BRANCH  22  23
ATOM     23  C   UNL d   1     -49.073  14.630  22.156  0.00  0.00     0.125 C 
BRANCH  23  24
ATOM     24  C   UNL d   1     -49.531  15.106  22.587  0.00  0.00     0.119 A 
ATOM     25  O   UNL d   1     -49.312  15.528  23.213  0.00  0.00    -0.304 OA
ATOM     26  C   UNL d   1     -49.927  15.918  23.472  0.00  0.00     0.123 A 
ATOM     27  C   UNL d   1     -50.541  15.745  23.011  0.00  0.00     0.029 A 
ATOM     28  C   UNL d   1     -50.297  15.242  22.461  0.00  0.00     0.028 A 
ENDBRANCH  23  24
ENDBRANCH  22  23
ENDBRANCH   3  22
TORSDOF 6
ENDMDL
MODEL 6
REMARK VINA RESULT:      -3.5      6.561      8.483
REMARK  6 active torsions:
REMARK  status: ('A' for Active; 'I' for Inactive)
REMARK    1  A    between atoms: N_3  and  S_1 
REMARK    2  A    between atoms: C_7  and  S_1 
REMARK    3  A    between atoms: C_2  and  N_3 
REMARK    4  A    between atoms: N_8  and  C_5 
REMARK    5  A    between atoms: C_20  and  N_8 
REMARK    6  A    between atoms: C_13  and  C_20 
ROOT
ATOM      1  C   UNL d   1     -46.911  12.319  22.911  0.00  0.00     0.211 A 
ATOM      2  N   UNL d   1     -47.345  13.017  22.768  0.00  0.00    -0.222 NA
ATOM      3  C   UNL d   1     -46.079  12.356  22.954  0.00  0.00     0.200 A 
ATOM      4  N   UNL d   1     -45.706  13.073  22.857  0.00  0.00    -0.223 NA
ATOM      5  C   UNL d   1     -46.961  13.741  22.670  0.00  0.00     0.101 A 
ATOM      6  C   UNL d   1     -46.128  13.762  22.717  0.00  0.00     0.101 A 
ATOM      7  C   UNL d   1     -45.725  14.507  22.616  0.00  0.00     0.021 A 
ATOM      8  C   UNL d   1     -47.395  14.454  22.525  0.00  0.00     0.021 A 
ATOM      9  C   UNL d   1     -46.178  15.198  22.473  0.00  0.00     0.002 A 
ATOM     10  C   UNL d   1     -47.010  15.162  22.430  0.00  0.00     0.002 A 
ENDROOT
BRANCH   1  11
ATOM     11  N   UNL d   1     -47.235  11.628  23.007  0.00  0.00    -0.136 NA
BRANCH  11  12
ATOM     12  S   UNL d   1     -47.909  11.369  22.645  0.00  0.00     0.287 S 
ATOM     13  O   UNL d   1     -48.498  10.984  22.145  0.00  0.00    -0.198 OA
ATOM     14  O   UNL d   1     -47.300  10.996  22.275  0.00  0.00    -0.198 OA
BRANCH  12  15
ATOM     15  C   UNL d   1     -48.682  11.564  22.792  0.00  0.00     0.105 A 
ATOM     16  C   UNL d   1     -49.017  11.400  23.520  0.00  0.00     0.013 A 
ATOM     17  C   UNL d   1     -49.818  11.593  23.697  0.00  0.00     0.001 A 
ATOM     18  C   UNL d   1     -50.283  11.966  23.099  0.00  0.00     0.000 A 
ATOM     19  C   UNL d   1     -49.957  12.134  22.367  0.00  0.00     0.001 A 
ATOM     20  C   UNL d   1     -51.064  12.174  23.219  0.00  0.00     0.000 C 
ATOM     21  C   UNL d   1     -49.149  11.933  22.208  0.00  0.00     0.013 A 
ENDBRANCH  12  15
ENDBRANCH  11  12
ENDBRANCH   1  11
BRANCH   3  22
ATOM     22  N   UNL d   1     -45.703  11.674  23.091  0.00  0.00    -0.221 NA
BRANCH  22  23
ATOM     23  C   UNL d   1     -45.259  11.439  23.698  0.00  0.00     0.125 C 
BRANCH  23  24
ATOM     24  C   UNL d   1     -44.707  10.889  23.582  0.00  0.00     0.119 A 
ATOM     25  O   UNL d   1     -43.967  11.009  23.344  0.00  0.00    -0.304 OA
ATOM     26  C   UNL d   1     -43.610  10.325  23.301  0.00  0.00     0.123 A 
ATOM     27  C   UNL d   1     -44.122   9.766  23.512  0.00  0.00     0.029 A 
ATOM     28  C   UNL d   1     -44.803  10.114  23.686  0.00  0.00     0.028 A 
ENDBRANCH  23  24
ENDBRANCH  22  23
ENDBRANCH   3  22
TORSDOF 6
ENDMDL
MODEL 7
REMARK VINA RESULT:      -3.2      5.059      7.742
REMARK  6 active torsions:
REMARK  status: ('A' for Active; 'I' for Inactive)
REMARK    1  A    between atoms: N_3  and  S_1 
REMARK    2  A    between atoms: C_7  and  S_1 
REMARK    3  A    between atoms: C_2  and  N_3 
REMARK    4  A    between atoms: N_8  and  C_5 
REMARK    5  A    between atoms: C_20  and  N_8 
REMARK    6  A    between atoms: C_13  and  C_20 
ROOT
ATOM      1  C   UNL d   1     -45.730  12.889  22.874  0.00  0.00     0.211 A 
ATOM      2  N   UNL d   1     -45.121  12.329  22.772  0.00  0.00    -0.222 NA
ATOM      3  C   UNL d   1     -45.686  13.621  22.477  0.00  0.00     0.200 A 
ATOM      4  N   UNL d   1     -45.046  13.775  21.996  0.00  0.00    -0.223 NA
ATOM      5  C   UNL d   1     -44.476  12.492  22.282  0.00  0.00     0.101 A 
ATOM      6  C   UNL d   1     -44.445  13.228  21.892  0.00  0.00     0.101 A 
ATOM      7  C   UNL d   1     -43.781  13.402  21.385  0.00  0.00     0.021 A 
ATOM      8  C   UNL d   1     -43.853  11.928  22.173  0.00  0.00     0.021 A 
ATOM      9  C   UNL d   1     -43.177  12.827  21.294  0.00  0.00     0.002 A 
ATOM     10  C   UNL d   1     -43.222  12.095  21.691  0.00  0.00     0.002 A 
ENDROOT
BRANCH   1  11
ATOM     11  N   UNL d   1     -46.345  12.772  23.321  0.00  0.00    -0.136 NA
BRANCH  11  12
ATOM     12  S   UNL d   1     -46.681  12.055  23.482  0.00  0.00     0.287 S 
ATOM     13  O   UNL d   1     -46.847  11.234  23.690  0.00  0.00    -0.198 OA
ATOM     14  O   UNL d   1     -45.890  11.960  23.593  0.00  0.00    -0.198 OA
BRANCH  12  15
ATOM     15  C   UNL d   1     -47.460  11.834  23.460  0.00  0.00     0.105 A 
ATOM     16  C   UNL d   1     -47.665  11.063  23.281  0.00  0.00     0.013 A 
ATOM     17  C   UNL d   1     -48.468  10.808  23.251  0.00  0.00     0.001 A 
ATOM     18  C   UNL d   1     -49.075  11.374  23.413  0.00  0.00     0.000 A 
ATOM     19  C   UNL d   1     -48.880  12.148  23.593  0.00  0.00     0.001 A 
ATOM     20  C   UNL d   1     -49.868  11.179  23.398  0.00  0.00     0.000 C 
ATOM     21  C   UNL d   1     -48.066  12.384  23.618  0.00  0.00     0.013 A 
ENDBRANCH  12  15
ENDBRANCH  11  12
ENDBRANCH   1  11
BRANCH   3  22
ATOM     22  N   UNL d   1     -46.282  14.125  22.600  0.00  0.00    -0.221 NA
BRANCH  22  23
ATOM     23  C   UNL d   1     -46.447  14.821  22.271  0.00  0.00     0.125 C 
BRANCH  23  24
ATOM     24  C   UNL d   1     -47.197  15.065  22.239  0.00  0.00     0.119 A 
ATOM     25  O   UNL d   1     -47.638  15.305  22.845  0.00  0.00    -0.304 OA
ATOM     26  C   UNL d   1     -48.338  15.495  22.576  0.00  0.00     0.123 A 
ATOM     27  C   UNL d   1     -48.344  15.377  21.797  0.00  0.00     0.029 A 
ATOM     28  C   UNL d   1     -47.637  15.110  21.587  0.00  0.00     0.028 A 
ENDBRANCH  23  24
ENDBRANCH  22  23
ENDBRANCH   3  22
TORSDOF 6
ENDMDL
MODEL 8
REMARK VINA RESULT:      -2.9      6.483      8.873
REMARK  6 active torsions:
REMARK  status: ('A' for Active; 'I' for Inactive)
REMARK    1  A    between atoms: N_3  and  S_1 
REMARK    2  A    between atoms: C_7  and  S_1 
REMARK    3  A    between atoms: C_2  and  N_3 
REMARK    4  A    between atoms: N_8  and  C_5 
REMARK    5  A    between atoms: C_20  and  N_8 
REMARK    6  A    between atoms: C_13  and  C_20 
ROOT
ATOM      1  C   UNL d   1     -47.665  12.967  22.997  0.00  0.00     0.211 A 
ATOM      2  N   UNL d   1     -47.016  12.445  22.964  0.00  0.00    -0.222 NA
ATOM      3  C   UNL d   1     -47.550  13.776  22.827  0.00  0.00     0.200 A 
ATOM      4  N   UNL d   1     -46.804  14.040  22.632  0.00  0.00    -0.223 NA
ATOM      5  C   UNL d   1     -46.263  12.719  22.766  0.00  0.00     0.101 A 
ATOM      6  C   UNL d   1     -46.163  13.530  22.599  0.00  0.00     0.101 A 
ATOM      7  C   UNL d   1     -45.387  13.818  22.394  0.00  0.00     0.021 A 
ATOM      8  C   UNL d   1     -45.599  12.193  22.731  0.00  0.00     0.021 A 
ATOM      9  C   UNL d   1     -44.746  13.278  22.366  0.00  0.00     0.002 A 
ATOM     10  C   UNL d   1     -44.861  12.470  22.536  0.00  0.00     0.002 A 
ENDROOT
BRANCH   1  11
ATOM     11  N   UNL d   1     -48.380  12.748  23.177  0.00  0.00    -0.136 NA
BRANCH  11  12
ATOM     12  S   UNL d   1     -48.790  12.146  22.828  0.00  0.00     0.287 S 
ATOM     13  O   UNL d   1     -49.123  11.388  22.586  0.00  0.00    -0.198 OA
ATOM     14  O   UNL d   1     -48.319  11.803  23.382  0.00  0.00    -0.198 OA
BRANCH  12  15
ATOM     15  C   UNL d   1     -49.342  12.173  22.236  0.00  0.00     0.105 A 
ATOM     16  C   UNL d   1     -49.138  11.968  21.471  0.00  0.00     0.013 A 
ATOM     17  C   UNL d   1     -49.694  11.987  20.838  0.00  0.00     0.001 A 
ATOM     18  C   UNL d   1     -50.486  12.229  21.006  0.00  0.00     0.000 A 
ATOM     19  C   UNL d   1     -50.700  12.437  21.769  0.00  0.00     0.001 A 
ATOM     20  C   UNL d   1     -51.063  12.266  20.430  0.00  0.00     0.000 C 
ATOM     21  C   UNL d   1     -50.126  12.410  22.392  0.00  0.00     0.013 A 
ENDBRANCH  12  15
ENDBRANCH  11  12
ENDBRANCH   1  11
BRANCH   3  22
ATOM     22  N   UNL d   1     -48.188  14.240  22.868  0.00  0.00    -0.221 NA
BRANCH  22  23
ATOM     23  C   UNL d   1     -48.258  15.018  22.968  0.00  0.00     0.125 C 
BRANCH  23  24
ATOM     24  C   UNL d   1     -48.977  15.336  23.032  0.00  0.00     0.119 A 
ATOM     25  O   UNL d   1     -49.391  15.679  22.458  0.00  0.00    -0.304 OA
ATOM     26  C   UNL d   1     -50.065  15.917  22.752  0.00  0.00     0.123 A 
ATOM     27  C   UNL d   1     -50.083  15.725  23.516  0.00  0.00     0.029 A 
ATOM     28  C   UNL d   1     -49.408  15.365  23.691  0.00  0.00     0.028 A 
ENDBRANCH  23  24
ENDBRANCH  22  23
ENDBRANCH   3  22
TORSDOF 6
ENDMDL
MODEL 9
REMARK VINA RESULT:      -2.6      1.269      3.746
REMARK  6 active torsions:
REMARK  status: ('A' for Active; 'I' for Inactive)
REMARK    1  A    between atoms: N_3  and  S_1 
REMARK    2  A    between atoms: C_7  and  S_1 
REMARK    3  A    between atoms: C_2  and  N_3 
REMARK    4  A    between atoms: N_8  and  C_5 
REMARK    5  A    between atoms: C_20  and  N_8 
REMARK    6  A    between atoms: C_13  and  C_20 
ROOT
ATOM      1  C   UNL d   1     -40.058  14.117  20.858  0.00  0.00     0.211 A 
ATOM      2  N   UNL d   1     -40.044  14.055  21.690  0.00  0.00    -0.222 NA
ATOM      3  C   UNL d   1     -39.361  13.968  20.424  0.00  0.00     0.200 A 
ATOM      4  N   UNL d   1     -38.679  13.764  20.822  0.00  0.00    -0.223 NA
ATOM      5  C   UNL d   1     -39.350  13.848  22.087  0.00  0.00     0.101 A 
ATOM      6  C   UNL d   1     -38.661  13.702  21.639  0.00  0.00     0.101 A 
ATOM      7  C   UNL d   1     -37.941  13.487  22.043  0.00  0.00     0.021 A 
ATOM      8  C   UNL d   1     -39.329  13.783  22.931  0.00  0.00     0.021 A 
ATOM      9  C   UNL d   1     -37.946  13.429  22.880  0.00  0.00     0.002 A 
ATOM     10  C   UNL d   1     -38.642  13.579  23.314  0.00  0.00     0.002 A 
ENDROOT
BRANCH   1  11
ATOM     11  N   UNL d   1     -40.685  14.308  20.456  0.00  0.00    -0.136 NA
BRANCH  11  12
ATOM     12  S   UNL d   1     -41.398  14.520  20.768  0.00  0.00     0.287 S 
ATOM     13  O   UNL d   1     -42.079  14.932  21.103  0.00  0.00    -0.198 OA
ATOM     14  O   UNL d   1     -40.967  15.197  20.720  0.00  0.00    -0.198 OA
BRANCH  12  15
ATOM     15  C   UNL d   1     -42.045  14.061  20.937  0.00  0.00     0.105 A 
ATOM     16  C   UNL d   1     -42.633  14.342  21.429  0.00  0.00     0.013 A 
ATOM     17  C   UNL d   1     -43.315  13.884  21.620  0.00  0.00     0.001 A 
ATOM     18  C   UNL d   1     -43.385  13.110  21.287  0.00  0.00     0.000 A 
ATOM     19  C   UNL d   1     -42.801  12.820  20.792  0.00  0.00     0.001 A 
ATOM     20  C   UNL d   1     -44.024  12.625  21.439  0.00  0.00     0.000 C 
ATOM     21  C   UNL d   1     -42.122  13.296  20.613  0.00  0.00     0.013 A 
ENDBRANCH  12  15
ENDBRANCH  11  12
ENDBRANCH   1  11
BRANCH   3  22
ATOM     22  N   UNL d   1     -39.413  14.037  19.639  0.00  0.00    -0.221 NA
BRANCH  22  23
ATOM     23  C   UNL d   1     -38.909  13.841  19.067  0.00  0.00     0.125 C 
BRANCH  23  24
ATOM     24  C   UNL d   1     -39.071  14.045  18.322  0.00  0.00     0.119 A 
ATOM     25  O   UNL d   1     -39.012  14.764  18.009  0.00  0.00    -0.304 OA
ATOM     26  C   UNL d   1     -39.223  14.725  17.266  0.00  0.00     0.123 A 
ATOM     27  C   UNL d   1     -39.418  13.979  17.104  0.00  0.00     0.029 A 
ATOM     28  C   UNL d   1     -39.324  13.557  17.758  0.00  0.00     0.028 A 
ENDBRANCH  23  24
ENDBRANCH  22  23
ENDBRANCH   3  22
TORSDOF 6
ENDMDL
