MODEL 1
REMARK VINA RESULT:      -8.7      0.000      0.000
REMARK  4 active torsions:
REMARK  status: ('A' for Active; 'I' for Inactive)
REMARK    1  A    between atoms: C_2  and  S_1 
REMARK    2  A    between atoms: N_5  and  S_1 
REMARK    3  A    between atoms: C_11  and  C_4 
REMARK    4  A    between atoms: C_9  and  N_5 
ROOT
ATOM      1  S   UNL d   1     -48.611  13.370  22.666  0.00  0.00     0.287 S 
ATOM      2  O   UNL d   1     -48.828  13.311  23.466  0.00  0.00    -0.198 OA
ATOM      3  O   UNL d   1     -48.380  13.427  21.861  0.00  0.00    -0.198 OA
ENDROOT
BRANCH   1   4
ATOM      4  C   UNL d   1     -49.392  13.534  22.439  0.00  0.00     0.125 A 
ATOM      5  C   UNL d   1     -49.715  14.276  22.608  0.00  0.00     0.121 A 
ATOM      6  N   UNL d   1     -49.414  14.945  22.980  0.00  0.00    -0.190 NA
ATOM      7  C   UNL d   1     -50.498  14.441  22.382  0.00  0.00     0.110 A 
ATOM      8  S   UNL d   1     -49.994  15.520  22.988  0.00  0.00     0.117 SA
ATOM      9  N   UNL d   1     -50.663  15.208  22.619  0.00  0.00    -0.190 NA
ATOM     10  C   UNL d   1     -50.944  13.874  21.996  0.00  0.00     0.021 A 
ATOM     11  C   UNL d   1     -50.614  13.130  21.829  0.00  0.00     0.002 A 
ATOM     12  C   UNL d   1     -49.837  12.966  22.053  0.00  0.00     0.015 A 
ENDBRANCH   1   4
BRANCH   1  13
ATOM     13  N   UNL d   1     -47.832  13.207  22.895  0.00  0.00    -0.158 NA
BRANCH  13  14
ATOM     14  C   UNL d   1     -47.477  12.770  23.045  0.00  0.00     0.100 A 
ATOM     15  C   UNL d   1     -46.610  12.849  23.119  0.00  0.00     0.083 A 
ATOM     16  C   UNL d   1     -46.240  12.152  23.336  0.00  0.00     0.014 A 
ATOM     17  C   UNL d   1     -46.636  11.426  23.478  0.00  0.00     0.035 A 
ATOM     18  C   UNL d   1     -47.455  11.394  23.397  0.00  0.00     0.008 A 
ATOM     19 BR   UNL d   1     -46.199  10.745  23.698  0.00  0.00    -0.049 Br
ATOM     20  C   UNL d   1     -47.881  12.101  23.171  0.00  0.00     0.021 A 
BRANCH  15  21
ATOM     21  C   UNL d   1     -46.215  13.552  22.983  0.00  0.00     0.212 C 
ATOM     22  O   UNL d   1     -45.893  13.720  22.216  0.00  0.00    -0.644 OA
ATOM     23  O   UNL d   1     -46.132  14.098  23.594  0.00  0.00    -0.644 OA
ENDBRANCH  15  21
ENDBRANCH  13  14
ENDBRANCH   1  13
TORSDOF 4
ENDMDL
MODEL 2
REMARK VINA RESULT:      -8.3      1.933      4.142
REMARK  4 active torsions:
REMARK  status: ('A' for Active; 'I' for Inactive)
REMARK    1  A    between atoms: C_2  and  S_1 
REMARK    2  A    between atoms: N_5  and  S_1 
REMARK    3  A    between atoms: C_11  and  C_4 
REMARK    4  A    between atoms: C_9  and  N_5 
ROOT
ATOM      1  S   UNL d   1     -48.182  13.295  22.846  0.00  0.00     0.287 S 
ATOM      2  O   UNL d   1     -48.220  13.421  23.667  0.00  0.00    -0.198 OA
ATOM      3  O   UNL d   1     -48.156  13.168  22.017  0.00  0.00    -0.198 OA
ENDROOT
BRANCH   1   4
ATOM      4  C   UNL d   1     -47.356  13.218  22.870  0.00  0.00     0.125 A 
ATOM      5  C   UNL d   1     -47.024  12.524  23.174  0.00  0.00     0.121 A 
ATOM      6  N   UNL d   1     -47.351  11.836  23.483  0.00  0.00    -0.190 NA
ATOM      7  C   UNL d   1     -46.196  12.446  23.199  0.00  0.00     0.110 A 
ATOM      8  S   UNL d   1     -46.744  11.334  23.698  0.00  0.00     0.117 SA
ATOM      9  N   UNL d   1     -46.031  11.711  23.522  0.00  0.00    -0.190 NA
ATOM     10  C   UNL d   1     -45.716  13.050  22.925  0.00  0.00     0.021 A 
ATOM     11  C   UNL d   1     -46.056  13.744  22.622  0.00  0.00     0.002 A 
ATOM     12  C   UNL d   1     -46.877  13.822  22.597  0.00  0.00     0.015 A 
ENDBRANCH   1   4
BRANCH   1  13
ATOM     13  N   UNL d   1     -49.006  13.372  22.825  0.00  0.00    -0.158 NA
BRANCH  13  14
ATOM     14  C   UNL d   1     -49.437  13.753  22.918  0.00  0.00     0.100 A 
ATOM     15  C   UNL d   1     -50.285  13.543  22.916  0.00  0.00     0.083 A 
ATOM     16  C   UNL d   1     -50.776  14.181  23.061  0.00  0.00     0.014 A 
ATOM     17  C   UNL d   1     -50.510  14.966  23.200  0.00  0.00     0.035 A 
ATOM     18  C   UNL d   1     -49.702  15.122  23.194  0.00  0.00     0.008 A 
ATOM     19 BR   UNL d   1     -51.064  15.578  23.343  0.00  0.00    -0.049 Br
ATOM     20  C   UNL d   1     -49.153  14.482  23.046  0.00  0.00     0.021 A 
BRANCH  15  21
ATOM     21  C   UNL d   1     -50.552  12.783  22.782  0.00  0.00     0.212 C 
ATOM     22  O   UNL d   1     -50.692  12.257  23.434  0.00  0.00    -0.644 OA
ATOM     23  O   UNL d   1     -50.687  12.528  22.011  0.00  0.00    -0.644 OA
ENDBRANCH  15  21
ENDBRANCH  13  14
ENDBRANCH   1  13
TORSDOF 4
ENDMDL
MODEL 3
REMARK VINA RESULT:      -7.7      1.852      3.827
REMARK  4 active torsions:
REMARK  status: ('A' for Active; 'I' for Inactive)
REMARK    1  A    between atoms: C_2  and  S_1 
REMARK    2  A    between atoms: N_5  and  S_1 
REMARK    3  A    between atoms: C_11  and  C_4 
REMARK    4  A    between atoms: C_9  and  N_5 
ROOT
ATOM      1  S   UNL d   1     -47.750  13.038  22.867  0.00  0.00     0.287 S 
ATOM      2  O   UNL d   1     -47.907  13.236  23.658  0.00  0.00    -0.198 OA
ATOM      3  O   UNL d   1     -47.600  12.846  22.064  0.00  0.00    -0.198 OA
ENDROOT
BRANCH   1   4
ATOM      4  C   UNL d   1     -47.199  12.460  23.093  0.00  0.00     0.125 A 
ATOM      5  C   UNL d   1     -46.397  12.582  22.934  0.00  0.00     0.121 A 
ATOM      6  N   UNL d   1     -45.986  13.196  22.572  0.00  0.00    -0.190 NA
ATOM      7  C   UNL d   1     -45.844  12.004  23.160  0.00  0.00     0.110 A 
ATOM      8  S   UNL d   1     -45.191  13.010  22.570  0.00  0.00     0.117 SA
ATOM      9  N   UNL d   1     -45.104  12.273  22.933  0.00  0.00    -0.190 NA
ATOM     10  C   UNL d   1     -46.092  11.322  23.537  0.00  0.00     0.021 A 
ATOM     11  C   UNL d   1     -46.898  11.205  23.695  0.00  0.00     0.002 A 
ATOM     12  C   UNL d   1     -47.447  11.778  23.470  0.00  0.00     0.015 A 
ENDBRANCH   1   4
BRANCH   1  13
ATOM     13  N   UNL d   1     -48.300  13.615  22.643  0.00  0.00    -0.158 NA
BRANCH  13  14
ATOM     14  C   UNL d   1     -48.824  13.683  22.396  0.00  0.00     0.100 A 
ATOM     15  C   UNL d   1     -49.231  14.452  22.319  0.00  0.00     0.083 A 
ATOM     16  C   UNL d   1     -49.960  14.395  21.950  0.00  0.00     0.014 A 
ATOM     17  C   UNL d   1     -50.298  13.679  21.669  0.00  0.00     0.035 A 
ATOM     18  C   UNL d   1     -49.881  12.976  21.762  0.00  0.00     0.008 A 
ATOM     19 BR   UNL d   1     -51.050  13.687  21.299  0.00  0.00    -0.049 Br
ATOM     20  C   UNL d   1     -49.114  12.991  22.142  0.00  0.00     0.021 A 
BRANCH  15  21
ATOM     21  C   UNL d   1     -48.910  15.153  22.590  0.00  0.00     0.212 C 
ATOM     22  O   UNL d   1     -48.370  15.591  22.103  0.00  0.00    -0.644 OA
ATOM     23  O   UNL d   1     -49.113  15.433  23.337  0.00  0.00    -0.644 OA
ENDBRANCH  15  21
ENDBRANCH  13  14
ENDBRANCH   1  13
TORSDOF 4
ENDMDL
MODEL 4
REMARK VINA RESULT:      -7.6      1.187      2.015
REMARK  4 active torsions:
REMARK  status: ('A' for Active; 'I' for Inactive)
REMARK    1  A    between atoms: C_2  and  S_1 
REMARK    2  A    between atoms: N_5  and  S_1 
REMARK    3  A    between atoms: C_11  and  C_4 
REMARK    4  A    between atoms: C_9  and  N_5 
ROOT
ATOM      1  S   UNL d   1     -48.664  13.577  22.847  0.00  0.00     0.287 S 
ATOM      2  O   UNL d   1     -48.602  13.503  22.022  0.00  0.00    -0.198 OA
ATOM      3  O   UNL d   1     -48.722  13.641  23.682  0.00  0.00    -0.198 OA
ENDROOT
BRANCH   1   4
ATOM      4  C   UNL d   1     -48.934  14.359  22.783  0.00  0.00     0.125 A 
ATOM      5  C   UNL d   1     -49.743  14.500  22.684  0.00  0.00     0.121 A 
ATOM      6  N   UNL d   1     -50.395  14.001  22.631  0.00  0.00    -0.190 NA
ATOM      7  C   UNL d   1     -50.016  15.283  22.619  0.00  0.00     0.110 A 
ATOM      8  S   UNL d   1     -51.064  14.459  22.534  0.00  0.00     0.117 SA
ATOM      9  N   UNL d   1     -50.830  15.250  22.527  0.00  0.00    -0.190 NA
ATOM     10  C   UNL d   1     -49.488  15.907  22.653  0.00  0.00     0.021 A 
ATOM     11  C   UNL d   1     -48.677  15.760  22.752  0.00  0.00     0.002 A 
ATOM     12  C   UNL d   1     -48.406  14.983  22.816  0.00  0.00     0.015 A 
ENDBRANCH   1   4
BRANCH   1  13
ATOM     13  N   UNL d   1     -48.393  12.797  22.908  0.00  0.00    -0.158 NA
BRANCH  13  14
ATOM     14  C   UNL d   1     -47.928  12.480  23.057  0.00  0.00     0.100 A 
ATOM     15  C   UNL d   1     -47.939  11.612  23.157  0.00  0.00     0.083 A 
ATOM     16  C   UNL d   1     -47.212  11.302  23.368  0.00  0.00     0.014 A 
ATOM     17  C   UNL d   1     -46.514  11.756  23.482  0.00  0.00     0.035 A 
ATOM     18  C   UNL d   1     -46.546  12.572  23.378  0.00  0.00     0.008 A 
ATOM     19 BR   UNL d   1     -45.798  11.378  23.698  0.00  0.00    -0.049 Br
ATOM     20  C   UNL d   1     -47.288  12.937  23.157  0.00  0.00     0.021 A 
BRANCH  15  21
ATOM     21  C   UNL d   1     -48.613  11.162  23.048  0.00  0.00     0.212 C 
ATOM     22  O   UNL d   1     -48.807  10.864  22.277  0.00  0.00    -0.644 OA
ATOM     23  O   UNL d   1     -49.102  10.999  23.689  0.00  0.00    -0.644 OA
ENDBRANCH  15  21
ENDBRANCH  13  14
ENDBRANCH   1  13
TORSDOF 4
ENDMDL
MODEL 5
REMARK VINA RESULT:      -6.7      8.238      9.520
REMARK  4 active torsions:
REMARK  status: ('A' for Active; 'I' for Inactive)
REMARK    1  A    between atoms: C_2  and  S_1 
REMARK    2  A    between atoms: N_5  and  S_1 
REMARK    3  A    between atoms: C_11  and  C_4 
REMARK    4  A    between atoms: C_9  and  N_5 
ROOT
ATOM      1  S   UNL d   1     -39.959  14.657  18.897  0.00  0.00     0.287 S 
ATOM      2  O   UNL d   1     -39.511  15.344  19.025  0.00  0.00    -0.198 OA
ATOM      3  O   UNL d   1     -40.415  13.962  18.781  0.00  0.00    -0.198 OA
ENDROOT
BRANCH   1   4
ATOM      4  C   UNL d   1     -39.781  14.659  18.087  0.00  0.00     0.125 A 
ATOM      5  C   UNL d   1     -40.240  15.117  17.574  0.00  0.00     0.121 A 
ATOM      6  N   UNL d   1     -40.887  15.611  17.692  0.00  0.00    -0.190 NA
ATOM      7  C   UNL d   1     -40.063  15.120  16.761  0.00  0.00     0.110 A 
ATOM      8  S   UNL d   1     -41.113  15.920  16.971  0.00  0.00     0.117 SA
ATOM      9  N   UNL d   1     -40.604  15.616  16.396  0.00  0.00    -0.190 NA
ATOM     10  C   UNL d   1     -39.440  14.675  16.474  0.00  0.00     0.021 A 
ATOM     11  C   UNL d   1     -38.982  14.218  16.994  0.00  0.00     0.002 A 
ATOM     12  C   UNL d   1     -39.158  14.214  17.800  0.00  0.00     0.015 A 
ENDBRANCH   1   4
BRANCH   1  13
ATOM     13  N   UNL d   1     -40.135  14.657  19.706  0.00  0.00    -0.158 NA
BRANCH  13  14
ATOM     14  C   UNL d   1     -39.924  14.496  20.225  0.00  0.00     0.100 A 
ATOM     15  C   UNL d   1     -40.333  14.637  20.984  0.00  0.00     0.083 A 
ATOM     16  C   UNL d   1     -39.918  14.356  21.631  0.00  0.00     0.014 A 
ATOM     17  C   UNL d   1     -39.173  13.968  21.589  0.00  0.00     0.035 A 
ATOM     18  C   UNL d   1     -38.822  13.855  20.853  0.00  0.00     0.008 A 
ATOM     19 BR   UNL d   1     -38.798  13.703  22.290  0.00  0.00    -0.049 Br
ATOM     20  C   UNL d   1     -39.223  14.134  20.151  0.00  0.00     0.021 A 
BRANCH  15  21
ATOM     21  C   UNL d   1     -41.057  15.013  21.035  0.00  0.00     0.212 C 
ATOM     22  O   UNL d   1     -41.776  14.565  20.975  0.00  0.00    -0.644 OA
ATOM     23  O   UNL d   1     -41.086  15.828  21.144  0.00  0.00    -0.644 OA
ENDBRANCH  15  21
ENDBRANCH  13  14
ENDBRANCH   1  13
TORSDOF 4
ENDMDL
MODEL 6
REMARK VINA RESULT:      -6.6      9.238     10.007
REMARK  4 active torsions:
REMARK  status: ('A' for Active; 'I' for Inactive)
REMARK    1  A    between atoms: C_2  and  S_1 
REMARK    2  A    between atoms: N_5  and  S_1 
REMARK    3  A    between atoms: C_11  and  C_4 
REMARK    4  A    between atoms: C_9  and  N_5 
ROOT
ATOM      1  S   UNL d   1     -39.723  14.946  19.778  0.00  0.00     0.287 S 
ATOM      2  O   UNL d   1     -40.363  14.437  19.929  0.00  0.00    -0.198 OA
ATOM      3  O   UNL d   1     -39.078  15.457  19.614  0.00  0.00    -0.198 OA
ENDROOT
BRANCH   1   4
ATOM      4  C   UNL d   1     -39.636  15.118  20.585  0.00  0.00     0.125 A 
ATOM      5  C   UNL d   1     -39.146  14.641  21.050  0.00  0.00     0.121 A 
ATOM      6  N   UNL d   1     -38.685  13.981  20.881  0.00  0.00    -0.190 NA
ATOM      7  C   UNL d   1     -39.058  14.813  21.859  0.00  0.00     0.110 A 
ATOM      8  S   UNL d   1     -38.315  13.740  21.568  0.00  0.00     0.117 SA
ATOM      9  N   UNL d   1     -38.546  14.254  22.171  0.00  0.00    -0.190 NA
ATOM     10  C   UNL d   1     -39.454  15.447  22.191  0.00  0.00     0.021 A 
ATOM     11  C   UNL d   1     -39.945  15.922  21.720  0.00  0.00     0.002 A 
ATOM     12  C   UNL d   1     -40.032  15.752  20.917  0.00  0.00     0.015 A 
ENDBRANCH   1   4
BRANCH   1  13
ATOM     13  N   UNL d   1     -39.812  14.772  18.974  0.00  0.00    -0.158 NA
BRANCH  13  14
ATOM     14  C   UNL d   1     -40.081  14.953  18.489  0.00  0.00     0.100 A 
ATOM     15  C   UNL d   1     -39.968  14.589  17.703  0.00  0.00     0.083 A 
ATOM     16  C   UNL d   1     -40.411  14.947  17.115  0.00  0.00     0.014 A 
ATOM     17  C   UNL d   1     -40.926  15.599  17.236  0.00  0.00     0.035 A 
ATOM     18  C   UNL d   1     -41.004  15.913  17.993  0.00  0.00     0.008 A 
ATOM     19 BR   UNL d   1     -41.353  15.922  16.591  0.00  0.00    -0.049 Br
ATOM     20  C   UNL d   1     -40.559  15.568  18.637  0.00  0.00     0.021 A 
BRANCH  15  21
ATOM     21  C   UNL d   1     -39.469  13.954  17.576  0.00  0.00     0.212 C 
ATOM     22  O   UNL d   1     -38.663  14.085  17.343  0.00  0.00    -0.644 OA
ATOM     23  O   UNL d   1     -39.751  13.187  17.675  0.00  0.00    -0.644 OA
ENDBRANCH  15  21
ENDBRANCH  13  14
ENDBRANCH   1  13
TORSDOF 4
ENDMDL
MODEL 7
REMARK VINA RESULT:      -6.4      1.472      1.975
REMARK  4 active torsions:
REMARK  status: ('A' for Active; 'I' for Inactive)
REMARK    1  A    between atoms: C_2  and  S_1 
REMARK    2  A    between atoms: N_5  and  S_1 
REMARK    3  A    between atoms: C_11  and  C_4 
REMARK    4  A    between atoms: C_9  and  N_5 
ROOT
ATOM      1  S   UNL d   1     -47.961  13.674  22.887  0.00  0.00     0.287 S 
ATOM      2  O   UNL d   1     -47.733  13.850  23.667  0.00  0.00    -0.198 OA
ATOM      3  O   UNL d   1     -48.182  13.487  22.100  0.00  0.00    -0.198 OA
ENDROOT
BRANCH   1   4
ATOM      4  C   UNL d   1     -48.539  14.269  22.894  0.00  0.00     0.125 A 
ATOM      5  C   UNL d   1     -49.293  14.096  23.187  0.00  0.00     0.121 A 
ATOM      6  N   UNL d   1     -49.629  13.413  23.498  0.00  0.00    -0.190 NA
ATOM      7  C   UNL d   1     -49.874  14.692  23.194  0.00  0.00     0.110 A 
ATOM      8  S   UNL d   1     -50.404  13.573  23.698  0.00  0.00     0.117 SA
ATOM      9  N   UNL d   1     -50.555  14.363  23.510  0.00  0.00    -0.190 NA
ATOM     10  C   UNL d   1     -49.699  15.440  22.915  0.00  0.00     0.021 A 
ATOM     11  C   UNL d   1     -48.941  15.608  22.622  0.00  0.00     0.002 A 
ATOM     12  C   UNL d   1     -48.364  15.018  22.615  0.00  0.00     0.015 A 
ENDBRANCH   1   4
BRANCH   1  13
ATOM     13  N   UNL d   1     -47.383  13.081  22.884  0.00  0.00    -0.158 NA
BRANCH  13  14
ATOM     14  C   UNL d   1     -46.829  12.977  22.736  0.00  0.00     0.100 A 
ATOM     15  C   UNL d   1     -46.458  12.186  22.754  0.00  0.00     0.083 A 
ATOM     16  C   UNL d   1     -45.674  12.191  22.520  0.00  0.00     0.014 A 
ATOM     17  C   UNL d   1     -45.252  12.877  22.282  0.00  0.00     0.035 A 
ATOM     18  C   UNL d   1     -45.638  13.604  22.279  0.00  0.00     0.008 A 
ATOM     19 BR   UNL d   1     -44.448  12.817  22.053  0.00  0.00    -0.049 Br
ATOM     20  C   UNL d   1     -46.459  13.643  22.517  0.00  0.00     0.021 A 
BRANCH  15  21
ATOM     21  C   UNL d   1     -46.861  11.513  22.984  0.00  0.00     0.212 C 
ATOM     22  O   UNL d   1     -47.472  11.191  22.489  0.00  0.00    -0.644 OA
ATOM     23  O   UNL d   1     -46.673  11.148  23.697  0.00  0.00    -0.644 OA
ENDBRANCH  15  21
ENDBRANCH  13  14
ENDBRANCH   1  13
TORSDOF 4
ENDMDL
