MODEL 1
REMARK VINA RESULT:       4.1      0.000      0.000
REMARK  5 active torsions:
REMARK  status: ('A' for Active; 'I' for Inactive)
REMARK    1  A    between atoms: C_9  and  C_1 
REMARK    2  A    between atoms: S_2  and  N_8 
REMARK    3  A    between atoms: C_10  and  S_2 
REMARK    4  A    between atoms: C_14  and  C_3 
REMARK    5  A    between atoms: N_8  and  C_9 
ROOT
ATOM      1  C   UNL d   1      32.832  19.207 -22.514  0.00  0.00     0.078 A 
ATOM      2  C   UNL d   1      32.769  20.017 -22.694  0.00  0.00     0.008 A 
ATOM      3  C   UNL d   1      32.979  18.966 -21.743  0.00  0.00     0.281 A 
ATOM      4  C   UNL d   1      32.856  20.570 -22.093  0.00  0.00     0.019 A 
ATOM      5  N   UNL d   1      33.065  19.531 -21.137  0.00  0.00    -0.208 NA
ATOM      6  C   UNL d   1      33.002  20.329 -21.322  0.00  0.00     0.085 A 
ATOM      7  C   UNL d   1      32.792  21.372 -22.275  0.00  0.00     0.013 A 
ATOM      8  O   UNL d   1      33.042  18.145 -21.565  0.00  0.00    -0.265 OA
ATOM      9  C   UNL d   1      33.088  20.885 -20.718  0.00  0.00     0.020 A 
ATOM     10  C   UNL d   1      32.879  21.938 -21.670  0.00  0.00     0.058 A 
ATOM     11  C   UNL d   1      33.025  21.697 -20.899  0.00  0.00     0.013 A 
ATOM     12 CL   UNL d   1      32.816  22.758 -21.847  0.00  0.00    -0.082 Cl
ENDROOT
BRANCH   1  13
ATOM     13  C   UNL d   1      32.746  18.641 -23.120  0.00  0.00     0.117 C 
BRANCH  13  14
ATOM     14  N   UNL d   1      32.966  17.854 -22.979  0.00  0.00    -0.157 NA
BRANCH  14  15
ATOM     15  S   UNL d   1      32.429  17.376 -23.406  0.00  0.00     0.285 S 
ATOM     16  O   UNL d   1      32.388  17.952 -24.002  0.00  0.00    -0.198 OA
ATOM     17  O   UNL d   1      32.475  16.802 -22.803  0.00  0.00    -0.198 OA
BRANCH  15  18
ATOM     18  C   UNL d   1      31.895  16.901 -23.829  0.00  0.00     0.105 A 
ATOM     19  C   UNL d   1      31.403  16.368 -23.432  0.00  0.00     0.013 A 
ATOM     20  C   UNL d   1      30.874  15.896 -23.840  0.00  0.00     0.001 A 
ATOM     21  C   UNL d   1      30.829  15.953 -24.675  0.00  0.00     0.000 A 
ATOM     22  C   UNL d   1      31.321  16.486 -25.074  0.00  0.00     0.001 A 
ATOM     23  C   UNL d   1      30.301  15.483 -25.095  0.00  0.00     0.000 C 
ATOM     24  C   UNL d   1      31.855  16.960 -24.651  0.00  0.00     0.013 A 
ENDBRANCH  15  18
ENDBRANCH  14  15
ENDBRANCH  13  14
ENDBRANCH   1  13
BRANCH   2  25
ATOM     25  C   UNL d   1      32.623  20.258 -23.466  0.00  0.00     0.000 A 
ATOM     26  C   UNL d   1      33.241  20.370 -23.994  0.00  0.00     0.000 A 
ATOM     27  C   UNL d   1      33.094  20.611 -24.766  0.00  0.00     0.000 A 
ATOM     28  C   UNL d   1      32.327  20.745 -25.023  0.00  0.00     0.000 A 
ATOM     29  C   UNL d   1      31.689  20.633 -24.492  0.00  0.00     0.000 A 
ATOM     30  C   UNL d   1      31.841  20.392 -23.721  0.00  0.00     0.000 A 
ENDBRANCH   2  25
TORSDOF 5
ENDMDL
MODEL 2
REMARK VINA RESULT:       4.8      3.436      5.937
REMARK  5 active torsions:
REMARK  status: ('A' for Active; 'I' for Inactive)
REMARK    1  A    between atoms: C_9  and  C_1 
REMARK    2  A    between atoms: S_2  and  N_8 
REMARK    3  A    between atoms: C_10  and  S_2 
REMARK    4  A    between atoms: C_14  and  C_3 
REMARK    5  A    between atoms: N_8  and  C_9 
ROOT
ATOM      1  C   UNL d   1      32.631  22.188 -21.820  0.00  0.00     0.078 A 
ATOM      2  C   UNL d   1      32.737  21.375 -21.964  0.00  0.00     0.008 A 
ATOM      3  C   UNL d   1      32.670  22.725 -22.440  0.00  0.00     0.281 A 
ATOM      4  C   UNL d   1      32.879  21.118 -22.731  0.00  0.00     0.019 A 
ATOM      5  N   UNL d   1      32.814  22.459 -23.216  0.00  0.00    -0.208 NA
ATOM      6  C   UNL d   1      32.917  21.655 -23.351  0.00  0.00     0.085 A 
ATOM      7  C   UNL d   1      32.982  20.312 -22.869  0.00  0.00     0.013 A 
ATOM      8  O   UNL d   1      32.563  23.547 -22.289  0.00  0.00    -0.265 OA
ATOM      9  C   UNL d   1      33.060  21.396 -24.121  0.00  0.00     0.020 A 
ATOM     10  C   UNL d   1      33.127  20.044 -23.645  0.00  0.00     0.058 A 
ATOM     11  C   UNL d   1      33.165  20.581 -24.265  0.00  0.00     0.013 A 
ATOM     12 CL   UNL d   1      33.234  19.224 -23.796  0.00  0.00    -0.082 Cl
ENDROOT
BRANCH   1  13
ATOM     13  C   UNL d   1      32.487  22.455 -21.044  0.00  0.00     0.117 C 
BRANCH  13  14
ATOM     14  N   UNL d   1      32.633  23.248 -20.849  0.00  0.00    -0.157 NA
BRANCH  14  15
ATOM     15  S   UNL d   1      32.450  23.332 -20.038  0.00  0.00     0.285 S 
ATOM     16  O   UNL d   1      31.669  23.534 -20.234  0.00  0.00    -0.198 OA
ATOM     17  O   UNL d   1      33.237  23.129 -19.850  0.00  0.00    -0.198 OA
BRANCH  15  18
ATOM     18  C   UNL d   1      32.269  23.416 -19.232  0.00  0.00     0.105 A 
ATOM     19  C   UNL d   1      31.494  23.310 -18.964  0.00  0.00     0.013 A 
ATOM     20  C   UNL d   1      31.306  23.390 -18.171  0.00  0.00     0.001 A 
ATOM     21  C   UNL d   1      31.909  23.583 -17.621  0.00  0.00     0.000 A 
ATOM     22  C   UNL d   1      32.685  23.689 -17.889  0.00  0.00     0.001 A 
ATOM     23  C   UNL d   1      31.730  23.665 -16.823  0.00  0.00     0.000 C 
ATOM     24  C   UNL d   1      32.865  23.605 -18.694  0.00  0.00     0.013 A 
ENDBRANCH  15  18
ENDBRANCH  14  15
ENDBRANCH  13  14
ENDBRANCH   1  13
BRANCH   2  25
ATOM     25  C   UNL d   1      32.698  20.837 -21.343  0.00  0.00     0.000 A 
ATOM     26  C   UNL d   1      33.241  20.869 -20.728  0.00  0.00     0.000 A 
ATOM     27  C   UNL d   1      33.202  20.332 -20.107  0.00  0.00     0.000 A 
ATOM     28  C   UNL d   1      32.621  19.753 -20.091  0.00  0.00     0.000 A 
ATOM     29  C   UNL d   1      32.062  19.713 -20.714  0.00  0.00     0.000 A 
ATOM     30  C   UNL d   1      32.105  20.252 -21.333  0.00  0.00     0.000 A 
ENDBRANCH   2  25
TORSDOF 5
ENDMDL
MODEL 3
REMARK VINA RESULT:       6.7      1.222      1.536
REMARK  5 active torsions:
REMARK  status: ('A' for Active; 'I' for Inactive)
REMARK    1  A    between atoms: C_9  and  C_1 
REMARK    2  A    between atoms: S_2  and  N_8 
REMARK    3  A    between atoms: C_10  and  S_2 
REMARK    4  A    between atoms: C_14  and  C_3 
REMARK    5  A    between atoms: N_8  and  C_9 
ROOT
ATOM      1  C   UNL d   1      33.011  20.185 -22.316  0.00  0.00     0.078 A 
ATOM      2  C   UNL d   1      32.945  21.005 -22.441  0.00  0.00     0.008 A 
ATOM      3  C   UNL d   1      33.139  19.892 -21.560  0.00  0.00     0.281 A 
ATOM      4  C   UNL d   1      33.009  21.515 -21.801  0.00  0.00     0.019 A 
ATOM      5  N   UNL d   1      33.203  20.414 -20.914  0.00  0.00    -0.208 NA
ATOM      6  C   UNL d   1      33.137  21.223 -21.045  0.00  0.00     0.085 A 
ATOM      7  C   UNL d   1      32.942  22.327 -21.929  0.00  0.00     0.013 A 
ATOM      8  O   UNL d   1      33.206  19.061 -21.438  0.00  0.00    -0.265 OA
ATOM      9  C   UNL d   1      33.201  21.736 -20.402  0.00  0.00     0.020 A 
ATOM     10  C   UNL d   1      33.006  22.851 -21.284  0.00  0.00     0.058 A 
ATOM     11  C   UNL d   1      33.134  22.558 -20.527  0.00  0.00     0.013 A 
ATOM     12 CL   UNL d   1      32.939  23.680 -21.405  0.00  0.00    -0.082 Cl
ENDROOT
BRANCH   1  13
ATOM     13  C   UNL d   1      32.947  19.661 -22.962  0.00  0.00     0.117 C 
BRANCH  13  14
ATOM     14  N   UNL d   1      32.222  19.293 -23.120  0.00  0.00    -0.157 NA
BRANCH  14  15
ATOM     15  S   UNL d   1      32.400  18.566 -23.493  0.00  0.00     0.285 S 
ATOM     16  O   UNL d   1      31.943  18.164 -22.929  0.00  0.00    -0.198 OA
ATOM     17  O   UNL d   1      32.857  18.978 -24.056  0.00  0.00    -0.198 OA
BRANCH  15  18
ATOM     18  C   UNL d   1      32.577  17.845 -23.864  0.00  0.00     0.105 A 
ATOM     19  C   UNL d   1      32.359  17.714 -24.651  0.00  0.00     0.013 A 
ATOM     20  C   UNL d   1      32.529  17.006 -25.025  0.00  0.00     0.001 A 
ATOM     21  C   UNL d   1      32.932  16.403 -24.604  0.00  0.00     0.000 A 
ATOM     22  C   UNL d   1      33.151  16.533 -23.817  0.00  0.00     0.001 A 
ATOM     23  C   UNL d   1      33.108  15.689 -24.971  0.00  0.00     0.000 C 
ATOM     24  C   UNL d   1      32.974  17.254 -23.446  0.00  0.00     0.013 A 
ENDBRANCH  15  18
ENDBRANCH  14  15
ENDBRANCH  13  14
ENDBRANCH   1  13
BRANCH   2  25
ATOM     25  C   UNL d   1      32.817  21.298 -23.198  0.00  0.00     0.000 A 
ATOM     26  C   UNL d   1      32.274  21.900 -23.328  0.00  0.00     0.000 A 
ATOM     27  C   UNL d   1      32.146  22.193 -24.085  0.00  0.00     0.000 A 
ATOM     28  C   UNL d   1      32.558  21.889 -24.726  0.00  0.00     0.000 A 
ATOM     29  C   UNL d   1      33.115  21.275 -24.604  0.00  0.00     0.000 A 
ATOM     30  C   UNL d   1      33.239  20.985 -23.845  0.00  0.00     0.000 A 
ENDBRANCH   2  25
TORSDOF 5
ENDMDL
