MODEL 1
REMARK VINA RESULT:      55.6      0.000      0.000
REMARK  4 active torsions:
REMARK  status: ('A' for Active; 'I' for Inactive)
REMARK    1  A    between atoms: C_3  and  S_1 
REMARK    2  A    between atoms: N_5  and  S_1 
REMARK    3  A    between atoms: C_11  and  N_5 
REMARK    4  A    between atoms: C_21  and  N_5 
ROOT
ATOM      1  N   UNL d   1      14.577  16.247  -3.628  0.00  0.00    -0.273 N 
ATOM      2  C   UNL d   1      14.146  13.928  -2.912  0.00  0.00     0.104 A 
ATOM      3  C   UNL d   1      14.433  15.477  -3.392  0.00  0.00     0.067 A 
ATOM      4  C   UNL d   1      14.582  15.257  -2.615  0.00  0.00     0.017 A 
ATOM      5  C   UNL d   1      14.142  14.924  -3.931  0.00  0.00     0.017 A 
ATOM      6  C   UNL d   1      14.869  16.800  -3.089  0.00  0.00     0.265 A 
ATOM      7  C   UNL d   1      14.438  14.481  -2.373  0.00  0.00     0.014 A 
ATOM      8  C   UNL d   1      13.998  14.152  -3.692  0.00  0.00     0.014 A 
ATOM      9  C   UNL d   1      14.874  15.810  -2.076  0.00  0.00     0.006 A 
ATOM     10  C   UNL d   1      15.017  16.582  -2.315  0.00  0.00     0.061 A 
ATOM     11  O   UNL d   1      15.016  17.587  -3.332  0.00  0.00    -0.267 OA
ATOM     12  C   UNL d   1      14.429  16.470  -4.409  0.00  0.00     0.083 A 
ATOM     13  C   UNL d   1      13.994  15.142  -4.705  0.00  0.00     0.003 A 
ATOM     14  C   UNL d   1      14.137  15.917  -4.947  0.00  0.00     0.019 A 
ENDROOT
BRANCH   2  15
ATOM     15  S   UNL d   1      14.003  13.149  -2.666  0.00  0.00     0.271 S 
ATOM     16  O   UNL d   1      14.793  13.068  -2.427  0.00  0.00    -0.200 OA
ATOM     17  O   UNL d   1      13.209  13.225  -2.904  0.00  0.00    -0.200 OA
BRANCH  15  18
ATOM     18  N   UNL d   1      13.855  12.364  -2.419  0.00  0.00    -0.231 N 
BRANCH  18  19
ATOM     19  C   UNL d   1      13.864  12.169  -1.621  0.00  0.00     0.075 A 
ATOM     20  C   UNL d   1      14.583  12.144  -1.217  0.00  0.00     0.018 A 
ATOM     21  C   UNL d   1      14.603  11.951  -0.423  0.00  0.00     0.002 A 
ATOM     22  C   UNL d   1      15.331  11.926  -0.015  0.00  0.00     0.000 C 
ATOM     23  C   UNL d   1      13.901  11.781  -0.025  0.00  0.00     0.000 A 
ATOM     24  C   UNL d   1      13.182  11.806  -0.429  0.00  0.00     0.002 A 
ATOM     25  C   UNL d   1      13.173  12.001  -1.226  0.00  0.00     0.018 A 
ENDBRANCH  18  19
BRANCH  18  26
ATOM     26  C   UNL d   1      13.699  11.779  -2.978  0.00  0.00     0.092 C 
ATOM     27  C   UNL d   1      13.220  11.947  -3.628  0.00  0.00     0.021 C 
ENDBRANCH  18  26
ENDBRANCH  15  18
ENDBRANCH   2  15
TORSDOF 4
ENDMDL
MODEL 2
REMARK VINA RESULT:      57.3      0.503      1.377
REMARK  4 active torsions:
REMARK  status: ('A' for Active; 'I' for Inactive)
REMARK    1  A    between atoms: C_3  and  S_1 
REMARK    2  A    between atoms: N_5  and  S_1 
REMARK    3  A    between atoms: C_11  and  N_5 
REMARK    4  A    between atoms: C_21  and  N_5 
ROOT
ATOM      1  N   UNL d   1      14.627  16.179  -4.004  0.00  0.00    -0.273 N 
ATOM      2  C   UNL d   1      14.085  13.901  -3.238  0.00  0.00     0.104 A 
ATOM      3  C   UNL d   1      14.448  15.424  -3.747  0.00  0.00     0.067 A 
ATOM      4  C   UNL d   1      14.233  14.851  -4.296  0.00  0.00     0.017 A 
ATOM      5  C   UNL d   1      14.482  15.238  -2.945  0.00  0.00     0.017 A 
ATOM      6  C   UNL d   1      14.593  16.366  -4.807  0.00  0.00     0.265 A 
ATOM      7  C   UNL d   1      14.051  14.087  -4.041  0.00  0.00     0.014 A 
ATOM      8  C   UNL d   1      14.301  14.479  -2.690  0.00  0.00     0.014 A 
ATOM      9  C   UNL d   1      14.199  15.037  -5.099  0.00  0.00     0.006 A 
ATOM     10  C   UNL d   1      14.379  15.796  -5.353  0.00  0.00     0.061 A 
ATOM     11  O   UNL d   1      14.777  17.140  -5.068  0.00  0.00    -0.267 OA
ATOM     12  C   UNL d   1      14.843  16.757  -3.455  0.00  0.00     0.083 A 
ATOM     13  C   UNL d   1      14.696  15.807  -2.398  0.00  0.00     0.003 A 
ATOM     14  C   UNL d   1      14.878  16.571  -2.652  0.00  0.00     0.019 A 
ENDROOT
BRANCH   2  15
ATOM     15  S   UNL d   1      13.902  13.132  -2.985  0.00  0.00     0.271 S 
ATOM     16  O   UNL d   1      14.702  12.984  -2.822  0.00  0.00    -0.200 OA
ATOM     17  O   UNL d   1      13.098  13.276  -3.146  0.00  0.00    -0.200 OA
BRANCH  15  18
ATOM     18  N   UNL d   1      13.714  12.358  -2.731  0.00  0.00    -0.231 N 
BRANCH  18  19
ATOM     19  C   UNL d   1      13.729  12.166  -1.932  0.00  0.00     0.075 A 
ATOM     20  C   UNL d   1      14.453  12.124  -1.539  0.00  0.00     0.018 A 
ATOM     21  C   UNL d   1      14.480  11.933  -0.745  0.00  0.00     0.002 A 
ATOM     22  C   UNL d   1      15.213  11.890  -0.347  0.00  0.00     0.000 C 
ATOM     23  C   UNL d   1      13.780  11.783  -0.335  0.00  0.00     0.000 A 
ATOM     24  C   UNL d   1      13.056  11.825  -0.728  0.00  0.00     0.002 A 
ATOM     25  C   UNL d   1      13.040  12.018  -1.527  0.00  0.00     0.018 A 
ENDBRANCH  18  19
BRANCH  18  26
ATOM     26  C   UNL d   1      13.511  11.781  -3.283  0.00  0.00     0.092 C 
ATOM     27  C   UNL d   1      12.795  11.834  -3.691  0.00  0.00     0.021 C 
ENDBRANCH  18  26
ENDBRANCH  15  18
ENDBRANCH   2  15
TORSDOF 4
ENDMDL
MODEL 3
REMARK VINA RESULT:      58.3      1.974      4.262
REMARK  4 active torsions:
REMARK  status: ('A' for Active; 'I' for Inactive)
REMARK    1  A    between atoms: C_3  and  S_1 
REMARK    2  A    between atoms: N_5  and  S_1 
REMARK    3  A    between atoms: C_11  and  N_5 
REMARK    4  A    between atoms: C_21  and  N_5 
ROOT
ATOM      1  N   UNL d   1      14.638  12.342  -0.968  0.00  0.00    -0.273 N 
ATOM      2  C   UNL d   1      13.727  12.533  -3.250  0.00  0.00     0.104 A 
ATOM      3  C   UNL d   1      14.334  12.405  -1.725  0.00  0.00     0.067 A 
ATOM      4  C   UNL d   1      14.808  12.695  -2.329  0.00  0.00     0.017 A 
ATOM      5  C   UNL d   1      13.556  12.179  -1.880  0.00  0.00     0.017 A 
ATOM      6  C   UNL d   1      15.416  12.569  -0.812  0.00  0.00     0.265 A 
ATOM      7  C   UNL d   1      14.505  12.760  -3.094  0.00  0.00     0.014 A 
ATOM      8  C   UNL d   1      13.253  12.242  -2.641  0.00  0.00     0.014 A 
ATOM      9  C   UNL d   1      15.586  12.921  -2.173  0.00  0.00     0.006 A 
ATOM     10  C   UNL d   1      15.890  12.858  -1.413  0.00  0.00     0.061 A 
ATOM     11  O   UNL d   1      15.726  12.504  -0.037  0.00  0.00    -0.267 OA
ATOM     12  C   UNL d   1      14.163  12.051  -0.359  0.00  0.00     0.083 A 
ATOM     13  C   UNL d   1      13.083  11.890  -1.280  0.00  0.00     0.003 A 
ATOM     14  C   UNL d   1      13.385  11.825  -0.515  0.00  0.00     0.019 A 
ENDROOT
BRANCH   2  15
ATOM     15  S   UNL d   1      13.425  12.600  -4.020  0.00  0.00     0.271 S 
ATOM     16  O   UNL d   1      13.129  11.825  -3.981  0.00  0.00    -0.200 OA
ATOM     17  O   UNL d   1      13.719  13.377  -4.063  0.00  0.00    -0.200 OA
BRANCH  15  18
ATOM     18  N   UNL d   1      13.122  12.670  -4.796  0.00  0.00    -0.231 N 
BRANCH  18  19
ATOM     19  C   UNL d   1      13.105  13.399  -5.173  0.00  0.00     0.075 A 
ATOM     20  C   UNL d   1      12.990  14.084  -4.728  0.00  0.00     0.018 A 
ATOM     21  C   UNL d   1      12.972  14.814  -5.094  0.00  0.00     0.002 A 
ATOM     22  C   UNL d   1      12.855  15.508  -4.643  0.00  0.00     0.000 C 
ATOM     23  C   UNL d   1      13.070  14.866  -5.911  0.00  0.00     0.000 A 
ATOM     24  C   UNL d   1      13.185  14.181  -6.357  0.00  0.00     0.002 A 
ATOM     25  C   UNL d   1      13.201  13.452  -5.979  0.00  0.00     0.018 A 
ENDBRANCH  18  19
BRANCH  18  26
ATOM     26  C   UNL d   1      12.836  12.003  -5.188  0.00  0.00     0.092 C 
ATOM     27  C   UNL d   1      12.972  11.911  -5.997  0.00  0.00     0.021 C 
ENDBRANCH  18  26
ENDBRANCH  15  18
ENDBRANCH   2  15
TORSDOF 4
ENDMDL
