MODEL 1
REMARK VINA RESULT:      -7.2      0.000      0.000
REMARK  8 active torsions:
REMARK  status: ('A' for Active; 'I' for Inactive)
REMARK    1  A    between atoms: C_5  and  C_1 
REMARK    2  A    between atoms: N_6  and  C_2 
REMARK    3  A    between atoms: C_7  and  C_5 
REMARK    4  A    between atoms: C_8  and  C_5 
REMARK    5  A    between atoms: O_13  and  C_7 
REMARK    6  A    between atoms: C_21  and  N_12 
REMARK    7  A    between atoms: C_19  and  O_13 
REMARK    8  A    between atoms: C_20  and  C_19 
ROOT
ATOM      1  C   UNL d   1      52.591  32.882  53.688  0.00  0.00     0.122 A 
ATOM      2  C   UNL d   1      52.409  33.679  53.600  0.00  0.00     0.166 A 
ATOM      3  N   UNL d   1      52.867  34.237  53.991  0.00  0.00    -0.225 NA
ATOM      4  N   UNL d   1      53.224  32.645  54.161  0.00  0.00    -0.241 NA
ATOM      5  C   UNL d   1      53.494  34.012  54.461  0.00  0.00     0.101 A 
ATOM      6  C   UNL d   1      53.674  33.209  54.546  0.00  0.00     0.099 A 
ATOM      7  C   UNL d   1      54.302  32.979  55.016  0.00  0.00     0.021 A 
ATOM      8  C   UNL d   1      53.950  34.577  54.851  0.00  0.00     0.021 A 
ATOM      9  C   UNL d   1      54.583  34.340  55.324  0.00  0.00     0.002 A 
ATOM     10  C   UNL d   1      54.758  33.544  55.406  0.00  0.00     0.002 A 
ENDROOT
BRANCH   1  11
ATOM     11  C   UNL d   1      52.137  32.304  53.299  0.00  0.00     0.105 C 
BRANCH  11  12
ATOM     12  C   UNL d   1      52.497  31.736  52.818  0.00  0.00     0.303 C 
ATOM     13  O   UNL d   1      52.736  31.943  52.062  0.00  0.00    -0.259 OA
BRANCH  12  14
ATOM     14  O   UNL d   1      52.608  30.981  53.103  0.00  0.00    -0.271 OA
BRANCH  14  15
ATOM     15  C   UNL d   1      52.752  30.190  52.952  0.00  0.00     0.126 C 
BRANCH  15  16
ATOM     16  C   UNL d   1      53.078  29.712  53.532  0.00  0.00     0.025 A 
ATOM     17  C   UNL d   1      52.581  29.292  54.034  0.00  0.00     0.002 A 
ATOM     18  C   UNL d   1      52.906  28.809  54.620  0.00  0.00     0.000 A 
ATOM     19  C   UNL d   1      53.723  28.751  54.696  0.00  0.00     0.000 A 
ATOM     20  C   UNL d   1      54.215  29.178  54.185  0.00  0.00     0.000 A 
ATOM     21  C   UNL d   1      53.891  29.654  53.608  0.00  0.00     0.002 A 
ENDBRANCH  15  16
ENDBRANCH  14  15
ENDBRANCH  12  14
ENDBRANCH  11  12
BRANCH  11  22
ATOM     22  C   UNL d   1      51.311  32.299  53.397  0.00  0.00     0.129 C 
ATOM     23  N   UNL d   1      50.825  31.508  53.607  0.00  0.00    -0.146 N 
ENDBRANCH  11  22
ENDBRANCH   1  11
BRANCH   2  24
ATOM     24  N   UNL d   1      51.778  33.908  53.128  0.00  0.00    -0.285 N 
ATOM     25  C   UNL d   1      51.895  34.057  52.332  0.00  0.00     0.101 A 
ATOM     26  C   UNL d   1      51.256  34.287  51.863  0.00  0.00     0.100 A 
ATOM     27  N   UNL d   1      50.504  34.366  52.197  0.00  0.00    -0.300 N 
ATOM     28  C   UNL d   1      50.391  34.215  53.000  0.00  0.00     0.100 A 
ATOM     29  C   UNL d   1      51.026  33.987  53.462  0.00  0.00     0.101 A 
BRANCH  27  30
ATOM     30  C   UNL d   1      49.863  34.598  51.720  0.00  0.00     0.080 C 
ATOM     31  C   UNL d   1      49.176  34.886  52.080  0.00  0.00     0.021 C 
ENDBRANCH  27  30
ENDBRANCH   2  24
TORSDOF 8
ENDMDL
MODEL 2
REMARK VINA RESULT:      -6.7      1.389      4.521
REMARK  8 active torsions:
REMARK  status: ('A' for Active; 'I' for Inactive)
REMARK    1  A    between atoms: C_5  and  C_1 
REMARK    2  A    between atoms: N_6  and  C_2 
REMARK    3  A    between atoms: C_7  and  C_5 
REMARK    4  A    between atoms: C_8  and  C_5 
REMARK    5  A    between atoms: O_13  and  C_7 
REMARK    6  A    between atoms: C_21  and  N_12 
REMARK    7  A    between atoms: C_19  and  O_13 
REMARK    8  A    between atoms: C_20  and  C_19 
ROOT
ATOM      1  C   UNL d   1      52.212  32.951  53.066  0.00  0.00     0.122 A 
ATOM      2  C   UNL d   1      52.835  33.112  53.578  0.00  0.00     0.166 A 
ATOM      3  N   UNL d   1      53.341  32.503  53.793  0.00  0.00    -0.225 NA
ATOM      4  N   UNL d   1      52.096  32.189  52.772  0.00  0.00    -0.241 NA
ATOM      5  C   UNL d   1      53.233  31.747  53.508  0.00  0.00     0.101 A 
ATOM      6  C   UNL d   1      52.606  31.589  52.993  0.00  0.00     0.099 A 
ATOM      7  C   UNL d   1      52.495  30.832  52.704  0.00  0.00     0.021 A 
ATOM      8  C   UNL d   1      53.746  31.139  53.728  0.00  0.00     0.021 A 
ATOM      9  C   UNL d   1      53.630  30.377  53.434  0.00  0.00     0.002 A 
ATOM     10  C   UNL d   1      53.007  30.224  52.925  0.00  0.00     0.002 A 
ENDROOT
BRANCH   1  11
ATOM     11  C   UNL d   1      51.690  33.557  52.838  0.00  0.00     0.105 C 
BRANCH  11  12
ATOM     12  C   UNL d   1      50.908  33.565  53.105  0.00  0.00     0.303 C 
ATOM     13  O   UNL d   1      50.650  32.974  53.610  0.00  0.00    -0.259 OA
BRANCH  12  14
ATOM     14  O   UNL d   1      50.407  34.160  52.862  0.00  0.00    -0.271 OA
BRANCH  14  15
ATOM     15  C   UNL d   1      49.756  34.392  52.425  0.00  0.00     0.126 C 
BRANCH  15  16
ATOM     16  C   UNL d   1      49.236  34.951  52.722  0.00  0.00     0.025 A 
ATOM     17  C   UNL d   1      48.604  35.199  52.260  0.00  0.00     0.002 A 
ATOM     18  C   UNL d   1      48.078  35.763  52.557  0.00  0.00     0.000 A 
ATOM     19  C   UNL d   1      48.191  36.071  53.311  0.00  0.00     0.000 A 
ATOM     20  C   UNL d   1      48.831  35.814  53.769  0.00  0.00     0.000 A 
ATOM     21  C   UNL d   1      49.348  35.258  53.473  0.00  0.00     0.002 A 
ENDBRANCH  15  16
ENDBRANCH  14  15
ENDBRANCH  12  14
ENDBRANCH  11  12
BRANCH  11  22
ATOM     22  C   UNL d   1      51.961  34.161  52.334  0.00  0.00     0.129 C 
ATOM     23  N   UNL d   1      51.809  34.151  51.394  0.00  0.00    -0.146 N 
ENDBRANCH  11  22
ENDBRANCH   1  11
BRANCH   2  24
ATOM     24  N   UNL d   1      52.945  33.873  53.867  0.00  0.00    -0.285 N 
ATOM     25  C   UNL d   1      53.312  34.439  53.404  0.00  0.00     0.101 A 
ATOM     26  C   UNL d   1      53.419  35.201  53.700  0.00  0.00     0.100 A 
ATOM     27  N   UNL d   1      53.156  35.390  54.461  0.00  0.00    -0.300 N 
ATOM     28  C   UNL d   1      52.787  34.817  54.925  0.00  0.00     0.100 A 
ATOM     29  C   UNL d   1      52.682  34.062  54.628  0.00  0.00     0.101 A 
BRANCH  27  30
ATOM     30  C   UNL d   1      53.266  36.160  54.756  0.00  0.00     0.080 C 
ATOM     31  C   UNL d   1      52.604  36.623  54.934  0.00  0.00     0.021 C 
ENDBRANCH  27  30
ENDBRANCH   2  24
TORSDOF 8
ENDMDL
MODEL 3
REMARK VINA RESULT:      -6.0      1.338      4.079
REMARK  8 active torsions:
REMARK  status: ('A' for Active; 'I' for Inactive)
REMARK    1  A    between atoms: C_5  and  C_1 
REMARK    2  A    between atoms: N_6  and  C_2 
REMARK    3  A    between atoms: C_7  and  C_5 
REMARK    4  A    between atoms: C_8  and  C_5 
REMARK    5  A    between atoms: O_13  and  C_7 
REMARK    6  A    between atoms: C_21  and  N_12 
REMARK    7  A    between atoms: C_19  and  O_13 
REMARK    8  A    between atoms: C_20  and  C_19 
ROOT
ATOM      1  C   UNL d   1      53.400  31.610  53.721  0.00  0.00     0.122 A 
ATOM      2  C   UNL d   1      52.671  31.551  53.347  0.00  0.00     0.166 A 
ATOM      3  N   UNL d   1      52.335  30.809  53.246  0.00  0.00    -0.225 NA
ATOM      4  N   UNL d   1      53.790  30.936  53.991  0.00  0.00    -0.241 NA
ATOM      5  C   UNL d   1      52.713  30.137  53.510  0.00  0.00     0.101 A 
ATOM      6  C   UNL d   1      53.446  30.201  53.886  0.00  0.00     0.099 A 
ATOM      7  C   UNL d   1      53.829  29.529  54.152  0.00  0.00     0.021 A 
ATOM      8  C   UNL d   1      52.370  29.394  53.405  0.00  0.00     0.021 A 
ATOM      9  C   UNL d   1      52.759  28.719  53.676  0.00  0.00     0.002 A 
ATOM     10  C   UNL d   1      53.486  28.786  54.048  0.00  0.00     0.002 A 
ENDROOT
BRANCH   1  11
ATOM     11  C   UNL d   1      53.755  32.354  53.831  0.00  0.00     0.105 C 
BRANCH  11  12
ATOM     12  C   UNL d   1      53.781  32.704  54.580  0.00  0.00     0.303 C 
ATOM     13  O   UNL d   1      53.735  32.230  55.246  0.00  0.00    -0.259 OA
BRANCH  12  14
ATOM     14  O   UNL d   1      53.851  33.513  54.642  0.00  0.00    -0.271 OA
BRANCH  14  15
ATOM     15  C   UNL d   1      54.072  34.165  55.085  0.00  0.00     0.126 C 
BRANCH  15  16
ATOM     16  C   UNL d   1      53.692  34.883  54.980  0.00  0.00     0.025 A 
ATOM     17  C   UNL d   1      53.969  35.404  54.408  0.00  0.00     0.002 A 
ATOM     18  C   UNL d   1      53.589  36.130  54.299  0.00  0.00     0.000 A 
ATOM     19  C   UNL d   1      52.938  36.324  54.763  0.00  0.00     0.000 A 
ATOM     20  C   UNL d   1      52.667  35.792  55.336  0.00  0.00     0.000 A 
ATOM     21  C   UNL d   1      53.044  35.077  55.441  0.00  0.00     0.002 A 
ENDBRANCH  15  16
ENDBRANCH  14  15
ENDBRANCH  12  14
ENDBRANCH  11  12
BRANCH  11  22
ATOM     22  C   UNL d   1      54.087  32.749  53.179  0.00  0.00     0.129 C 
ATOM     23  N   UNL d   1      55.022  32.745  53.000  0.00  0.00    -0.146 N 
ENDBRANCH  11  22
ENDBRANCH   1  11
BRANCH   2  24
ATOM     24  N   UNL d   1      52.288  32.226  53.080  0.00  0.00    -0.285 N 
ATOM     25  C   UNL d   1      52.554  32.610  52.408  0.00  0.00     0.101 A 
ATOM     26  C   UNL d   1      52.165  33.288  52.145  0.00  0.00     0.100 A 
ATOM     27  N   UNL d   1      51.510  33.577  52.560  0.00  0.00    -0.300 N 
ATOM     28  C   UNL d   1      51.245  33.187  53.237  0.00  0.00     0.100 A 
ATOM     29  C   UNL d   1      51.633  32.515  53.494  0.00  0.00     0.101 A 
BRANCH  27  30
ATOM     30  C   UNL d   1      51.121  34.261  52.292  0.00  0.00     0.080 C 
ATOM     31  C   UNL d   1      50.325  34.375  52.486  0.00  0.00     0.021 C 
ENDBRANCH  27  30
ENDBRANCH   2  24
TORSDOF 8
ENDMDL
MODEL 4
REMARK VINA RESULT:      -5.8      1.285      4.670
REMARK  8 active torsions:
REMARK  status: ('A' for Active; 'I' for Inactive)
REMARK    1  A    between atoms: C_5  and  C_1 
REMARK    2  A    between atoms: N_6  and  C_2 
REMARK    3  A    between atoms: C_7  and  C_5 
REMARK    4  A    between atoms: C_8  and  C_5 
REMARK    5  A    between atoms: O_13  and  C_7 
REMARK    6  A    between atoms: C_21  and  N_12 
REMARK    7  A    between atoms: C_19  and  O_13 
REMARK    8  A    between atoms: C_20  and  C_19 
ROOT
ATOM      1  C   UNL d   1      53.022  32.243  53.441  0.00  0.00     0.122 A 
ATOM      2  C   UNL d   1      53.649  31.980  53.901  0.00  0.00     0.166 A 
ATOM      3  N   UNL d   1      53.779  31.172  53.974  0.00  0.00    -0.225 NA
ATOM      4  N   UNL d   1      52.528  31.705  53.057  0.00  0.00    -0.241 NA
ATOM      5  C   UNL d   1      53.296  30.634  53.598  0.00  0.00     0.101 A 
ATOM      6  C   UNL d   1      52.665  30.903  53.135  0.00  0.00     0.099 A 
ATOM      7  C   UNL d   1      52.179  30.366  52.756  0.00  0.00     0.021 A 
ATOM      8  C   UNL d   1      53.431  29.824  53.675  0.00  0.00     0.021 A 
ATOM      9  C   UNL d   1      52.938  29.286  53.291  0.00  0.00     0.002 A 
ATOM     10  C   UNL d   1      52.314  29.556  52.833  0.00  0.00     0.002 A 
ENDROOT
BRANCH   1  11
ATOM     11  C   UNL d   1      52.876  33.057  53.356  0.00  0.00     0.105 C 
BRANCH  11  12
ATOM     12  C   UNL d   1      52.209  33.406  53.698  0.00  0.00     0.303 C 
ATOM     13  O   UNL d   1      52.261  33.718  54.453  0.00  0.00    -0.259 OA
BRANCH  12  14
ATOM     14  O   UNL d   1      51.511  33.434  53.278  0.00  0.00    -0.271 OA
BRANCH  14  15
ATOM     15  C   UNL d   1      50.696  33.371  53.270  0.00  0.00     0.126 C 
BRANCH  15  16
ATOM     16  C   UNL d   1      50.245  33.909  52.848  0.00  0.00     0.025 A 
ATOM     17  C   UNL d   1      49.907  34.546  53.241  0.00  0.00     0.002 A 
ATOM     18  C   UNL d   1      49.450  35.091  52.819  0.00  0.00     0.000 A 
ATOM     19  C   UNL d   1      49.339  34.991  52.010  0.00  0.00     0.000 A 
ATOM     20  C   UNL d   1      49.684  34.345  51.623  0.00  0.00     0.000 A 
ATOM     21  C   UNL d   1      50.133  33.810  52.043  0.00  0.00     0.002 A 
ENDBRANCH  15  16
ENDBRANCH  14  15
ENDBRANCH  12  14
ENDBRANCH  11  12
BRANCH  11  22
ATOM     22  C   UNL d   1      53.411  33.525  52.923  0.00  0.00     0.129 C 
ATOM     23  N   UNL d   1      53.129  34.126  52.241  0.00  0.00    -0.146 N 
ENDBRANCH  11  22
ENDBRANCH   1  11
BRANCH   2  24
ATOM     24  N   UNL d   1      54.137  32.520  54.281  0.00  0.00    -0.285 N 
ATOM     25  C   UNL d   1      54.774  32.847  53.885  0.00  0.00     0.101 A 
ATOM     26  C   UNL d   1      55.260  33.389  54.273  0.00  0.00     0.100 A 
ATOM     27  N   UNL d   1      55.102  33.600  55.057  0.00  0.00    -0.300 N 
ATOM     28  C   UNL d   1      54.459  33.269  55.452  0.00  0.00     0.100 A 
ATOM     29  C   UNL d   1      53.979  32.731  55.065  0.00  0.00     0.101 A 
BRANCH  27  30
ATOM     30  C   UNL d   1      55.595  34.148  55.444  0.00  0.00     0.080 C 
ATOM     31  C   UNL d   1      55.939  34.760  55.008  0.00  0.00     0.021 C 
ENDBRANCH  27  30
ENDBRANCH   2  24
TORSDOF 8
ENDMDL
MODEL 5
REMARK VINA RESULT:      -5.2      1.065      3.454
REMARK  8 active torsions:
REMARK  status: ('A' for Active; 'I' for Inactive)
REMARK    1  A    between atoms: C_5  and  C_1 
REMARK    2  A    between atoms: N_6  and  C_2 
REMARK    3  A    between atoms: C_7  and  C_5 
REMARK    4  A    between atoms: C_8  and  C_5 
REMARK    5  A    between atoms: O_13  and  C_7 
REMARK    6  A    between atoms: C_21  and  N_12 
REMARK    7  A    between atoms: C_19  and  O_13 
REMARK    8  A    between atoms: C_20  and  C_19 
ROOT
ATOM      1  C   UNL d   1      51.071  34.105  52.893  0.00  0.00     0.122 A 
ATOM      2  C   UNL d   1      51.213  34.626  53.513  0.00  0.00     0.166 A 
ATOM      3  N   UNL d   1      50.620  35.148  53.737  0.00  0.00    -0.225 NA
ATOM      4  N   UNL d   1      50.345  34.105  52.501  0.00  0.00    -0.241 NA
ATOM      5  C   UNL d   1      49.900  35.155  53.355  0.00  0.00     0.101 A 
ATOM      6  C   UNL d   1      49.762  34.629  52.732  0.00  0.00     0.099 A 
ATOM      7  C   UNL d   1      49.041  34.634  52.347  0.00  0.00     0.021 A 
ATOM      8  C   UNL d   1      49.309  35.682  53.585  0.00  0.00     0.021 A 
ATOM      9  C   UNL d   1      48.583  35.683  53.194  0.00  0.00     0.002 A 
ATOM     10  C   UNL d   1      48.450  35.161  52.577  0.00  0.00     0.002 A 
ENDROOT
BRANCH   1  11
ATOM     11  C   UNL d   1      51.660  33.569  52.653  0.00  0.00     0.105 C 
BRANCH  11  12
ATOM     12  C   UNL d   1      51.597  32.763  52.827  0.00  0.00     0.303 C 
ATOM     13  O   UNL d   1      50.882  32.466  53.093  0.00  0.00    -0.259 OA
BRANCH  12  14
ATOM     14  O   UNL d   1      52.245  32.280  52.731  0.00  0.00    -0.271 OA
BRANCH  14  15
ATOM     15  C   UNL d   1      52.571  31.602  52.410  0.00  0.00     0.126 C 
BRANCH  15  16
ATOM     16  C   UNL d   1      52.894  31.028  52.899  0.00  0.00     0.025 A 
ATOM     17  C   UNL d   1      52.498  30.315  52.997  0.00  0.00     0.002 A 
ATOM     18  C   UNL d   1      52.821  29.734  53.489  0.00  0.00     0.000 A 
ATOM     19  C   UNL d   1      53.534  29.875  53.875  0.00  0.00     0.000 A 
ATOM     20  C   UNL d   1      53.925  30.597  53.768  0.00  0.00     0.000 A 
ATOM     21  C   UNL d   1      53.604  31.167  53.282  0.00  0.00     0.002 A 
ENDBRANCH  15  16
ENDBRANCH  14  15
ENDBRANCH  12  14
ENDBRANCH  11  12
BRANCH  11  22
ATOM     22  C   UNL d   1      52.321  33.850  52.232  0.00  0.00     0.129 C 
ATOM     23  N   UNL d   1      52.281  34.077  51.309  0.00  0.00    -0.146 N 
ENDBRANCH  11  22
ENDBRANCH   1  11
BRANCH   2  24
ATOM     24  N   UNL d   1      51.937  34.620  53.898  0.00  0.00    -0.285 N 
ATOM     25  C   UNL d   1      52.556  35.074  53.616  0.00  0.00     0.101 A 
ATOM     26  C   UNL d   1      53.281  35.064  54.008  0.00  0.00     0.100 A 
ATOM     27  N   UNL d   1      53.381  34.596  54.683  0.00  0.00    -0.300 N 
ATOM     28  C   UNL d   1      52.754  34.140  54.965  0.00  0.00     0.100 A 
ATOM     29  C   UNL d   1      52.036  34.152  54.573  0.00  0.00     0.101 A 
BRANCH  27  30
ATOM     30  C   UNL d   1      54.114  34.589  55.076  0.00  0.00     0.080 C 
ATOM     31  C   UNL d   1      54.568  33.898  55.069  0.00  0.00     0.021 C 
ENDBRANCH  27  30
ENDBRANCH   2  24
TORSDOF 8
ENDMDL
MODEL 6
REMARK VINA RESULT:      -5.1      1.338      4.579
REMARK  8 active torsions:
REMARK  status: ('A' for Active; 'I' for Inactive)
REMARK    1  A    between atoms: C_5  and  C_1 
REMARK    2  A    between atoms: N_6  and  C_2 
REMARK    3  A    between atoms: C_7  and  C_5 
REMARK    4  A    between atoms: C_8  and  C_5 
REMARK    5  A    between atoms: O_13  and  C_7 
REMARK    6  A    between atoms: C_21  and  N_12 
REMARK    7  A    between atoms: C_19  and  O_13 
REMARK    8  A    between atoms: C_20  and  C_19 
ROOT
ATOM      1  C   UNL d   1      52.087  34.036  53.410  0.00  0.00     0.122 A 
ATOM      2  C   UNL d   1      52.636  33.500  53.706  0.00  0.00     0.166 A 
ATOM      3  N   UNL d   1      53.188  33.759  54.256  0.00  0.00    -0.225 NA
ATOM      4  N   UNL d   1      52.088  34.821  53.662  0.00  0.00    -0.241 NA
ATOM      5  C   UNL d   1      53.196  34.533  54.510  0.00  0.00     0.101 A 
ATOM      6  C   UNL d   1      52.642  35.069  54.211  0.00  0.00     0.099 A 
ATOM      7  C   UNL d   1      52.648  35.846  54.463  0.00  0.00     0.021 A 
ATOM      8  C   UNL d   1      53.753  34.786  55.064  0.00  0.00     0.021 A 
ATOM      9  C   UNL d   1      53.755  35.572  55.316  0.00  0.00     0.002 A 
ATOM     10  C   UNL d   1      53.204  36.099  55.017  0.00  0.00     0.002 A 
ENDROOT
BRANCH   1  11
ATOM     11  C   UNL d   1      51.521  33.791  52.852  0.00  0.00     0.105 C 
BRANCH  11  12
ATOM     12  C   UNL d   1      50.721  33.737  53.055  0.00  0.00     0.303 C 
ATOM     13  O   UNL d   1      50.485  33.184  53.611  0.00  0.00    -0.259 OA
BRANCH  12  14
ATOM     14  O   UNL d   1      50.183  34.233  52.699  0.00  0.00    -0.271 OA
BRANCH  14  15
ATOM     15  C   UNL d   1      49.503  34.325  52.254  0.00  0.00     0.126 C 
BRANCH  15  16
ATOM     16  C   UNL d   1      48.978  34.931  52.421  0.00  0.00     0.025 A 
ATOM     17  C   UNL d   1      48.469  35.196  51.833  0.00  0.00     0.002 A 
ATOM     18  C   UNL d   1      47.937  35.807  51.999  0.00  0.00     0.000 A 
ATOM     19  C   UNL d   1      47.922  36.144  52.749  0.00  0.00     0.000 A 
ATOM     20  C   UNL d   1      48.440  35.870  53.335  0.00  0.00     0.000 A 
ATOM     21  C   UNL d   1      48.962  35.267  53.167  0.00  0.00     0.002 A 
ENDBRANCH  15  16
ENDBRANCH  14  15
ENDBRANCH  12  14
ENDBRANCH  11  12
BRANCH  11  22
ATOM     22  C   UNL d   1      51.765  33.598  52.081  0.00  0.00     0.129 C 
ATOM     23  N   UNL d   1      51.744  34.226  51.365  0.00  0.00    -0.146 N 
ENDBRANCH  11  22
ENDBRANCH   1  11
BRANCH   2  24
ATOM     24  N   UNL d   1      52.629  32.720  53.451  0.00  0.00    -0.285 N 
ATOM     25  C   UNL d   1      52.103  32.186  53.778  0.00  0.00     0.101 A 
ATOM     26  C   UNL d   1      52.101  31.404  53.518  0.00  0.00     0.100 A 
ATOM     27  N   UNL d   1      52.629  31.162  52.929  0.00  0.00    -0.300 N 
ATOM     28  C   UNL d   1      53.158  31.703  52.601  0.00  0.00     0.100 A 
ATOM     29  C   UNL d   1      53.157  32.478  52.862  0.00  0.00     0.101 A 
BRANCH  27  30
ATOM     30  C   UNL d   1      52.624  30.372  52.669  0.00  0.00     0.080 C 
ATOM     31  C   UNL d   1      52.934  29.783  53.160  0.00  0.00     0.021 C 
ENDBRANCH  27  30
ENDBRANCH   2  24
TORSDOF 8
ENDMDL
MODEL 7
REMARK VINA RESULT:      -4.8      1.408      3.434
REMARK  8 active torsions:
REMARK  status: ('A' for Active; 'I' for Inactive)
REMARK    1  A    between atoms: C_5  and  C_1 
REMARK    2  A    between atoms: N_6  and  C_2 
REMARK    3  A    between atoms: C_7  and  C_5 
REMARK    4  A    between atoms: C_8  and  C_5 
REMARK    5  A    between atoms: O_13  and  C_7 
REMARK    6  A    between atoms: C_21  and  N_12 
REMARK    7  A    between atoms: C_19  and  O_13 
REMARK    8  A    between atoms: C_20  and  C_19 
ROOT
ATOM      1  C   UNL d   1      52.292  33.320  52.981  0.00  0.00     0.122 A 
ATOM      2  C   UNL d   1      51.555  32.997  52.811  0.00  0.00     0.166 A 
ATOM      3  N   UNL d   1      51.471  32.181  52.800  0.00  0.00    -0.225 NA
ATOM      4  N   UNL d   1      52.938  32.832  53.139  0.00  0.00    -0.241 NA
ATOM      5  C   UNL d   1      52.104  31.691  52.955  0.00  0.00     0.101 A 
ATOM      6  C   UNL d   1      52.844  32.019  53.126  0.00  0.00     0.099 A 
ATOM      7  C   UNL d   1      53.481  31.532  53.282  0.00  0.00     0.021 A 
ATOM      8  C   UNL d   1      52.013  30.871  52.942  0.00  0.00     0.021 A 
ATOM      9  C   UNL d   1      52.659  30.383  53.100  0.00  0.00     0.002 A 
ATOM     10  C   UNL d   1      53.390  30.712  53.269  0.00  0.00     0.002 A 
ENDROOT
BRANCH   1  11
ATOM     11  C   UNL d   1      52.395  34.145  52.996  0.00  0.00     0.105 C 
BRANCH  11  12
ATOM     12  C   UNL d   1      52.484  34.548  53.713  0.00  0.00     0.303 C 
ATOM     13  O   UNL d   1      51.844  34.948  54.030  0.00  0.00    -0.259 OA
BRANCH  12  14
ATOM     14  O   UNL d   1      53.206  34.540  54.090  0.00  0.00    -0.271 OA
BRANCH  14  15
ATOM     15  C   UNL d   1      53.717  34.881  54.629  0.00  0.00     0.126 C 
BRANCH  15  16
ATOM     16  C   UNL d   1      54.308  34.434  54.978  0.00  0.00     0.025 A 
ATOM     17  C   UNL d   1      55.064  34.447  54.657  0.00  0.00     0.002 A 
ATOM     18  C   UNL d   1      55.664  33.997  55.006  0.00  0.00     0.000 A 
ATOM     19  C   UNL d   1      55.498  33.541  55.671  0.00  0.00     0.000 A 
ATOM     20  C   UNL d   1      54.733  33.535  55.986  0.00  0.00     0.000 A 
ATOM     21  C   UNL d   1      54.145  33.980  55.639  0.00  0.00     0.002 A 
ENDBRANCH  15  16
ENDBRANCH  14  15
ENDBRANCH  12  14
ENDBRANCH  11  12
BRANCH  11  22
ATOM     22  C   UNL d   1      52.408  34.568  52.280  0.00  0.00     0.129 C 
ATOM     23  N   UNL d   1      53.197  34.982  51.944  0.00  0.00    -0.146 N 
ENDBRANCH  11  22
ENDBRANCH   1  11
BRANCH   2  24
ATOM     24  N   UNL d   1      50.917  33.488  52.654  0.00  0.00    -0.285 N 
ATOM     25  C   UNL d   1      50.435  33.742  53.265  0.00  0.00     0.101 A 
ATOM     26  C   UNL d   1      49.795  34.236  53.101  0.00  0.00     0.100 A 
ATOM     27  N   UNL d   1      49.642  34.472  52.323  0.00  0.00    -0.300 N 
ATOM     28  C   UNL d   1      50.130  34.213  51.710  0.00  0.00     0.100 A 
ATOM     29  C   UNL d   1      50.764  33.724  51.877  0.00  0.00     0.101 A 
BRANCH  27  30
ATOM     30  C   UNL d   1      48.996  34.969  52.162  0.00  0.00     0.080 C 
ATOM     31  C   UNL d   1      48.597  34.893  51.441  0.00  0.00     0.021 C 
ENDBRANCH  27  30
ENDBRANCH   2  24
TORSDOF 8
ENDMDL
