MODEL 1
REMARK VINA RESULT:      -9.0      0.000      0.000
REMARK  5 active torsions:
REMARK  status: ('A' for Active; 'I' for Inactive)
REMARK    1  A    between atoms: N_6  and  S_1 
REMARK    2  A    between atoms: C_11  and  S_1 
REMARK    3  A    between atoms: N_2  and  C_16 
REMARK       I    between atoms: C_9  and  N_8 
REMARK    4  A    between atoms: C_10  and  C_9 
REMARK    5  A    between atoms: C_16  and  C_10 
ROOT
ATOM      1  N   UNL d   1      51.579  34.130  53.053  0.00  0.00    -0.226 N 
ATOM      2  N   UNL d   1      50.224  34.439  52.172  0.00  0.00    -0.269 N 
ATOM      3  C   UNL d   1      49.540  34.598  51.738  0.00  0.00     0.267 C 
ATOM      4  C   UNL d   1      50.916  34.456  53.417  0.00  0.00     0.111 A 
ATOM      5  C   UNL d   1      51.571  33.954  52.234  0.00  0.00     0.111 A 
ATOM      6  C   UNL d   1      50.237  34.611  52.976  0.00  0.00     0.103 A 
ATOM      7  C   UNL d   1      50.892  34.109  51.793  0.00  0.00     0.103 A 
ATOM      8  O   UNL d   1      49.521  34.428  50.930  0.00  0.00    -0.267 OA
ENDROOT
BRANCH   3   9
ATOM      9  C   UNL d   1      48.883  34.923  52.109  0.00  0.00     0.082 C 
BRANCH   9  10
ATOM     10  C   UNL d   1      48.253  35.196  51.651  0.00  0.00     0.105 C 
BRANCH  10  11
ATOM     11  N   UNL d   1      47.630  35.603  52.016  0.00  0.00    -0.228 N 
ATOM     12  N   UNL d   1      47.642  35.954  52.762  0.00  0.00    -0.165 NA
ATOM     13  C   UNL d   1      46.905  36.298  52.904  0.00  0.00     0.103 A 
ATOM     14  C   UNL d   1      46.675  36.709  53.587  0.00  0.00     0.022 C 
ATOM     15  C   UNL d   1      46.431  36.160  52.243  0.00  0.00     0.037 A 
ATOM     16  C   UNL d   1      46.877  35.731  51.692  0.00  0.00     0.084 A 
ATOM     17  C   UNL d   1      45.651  36.405  52.147  0.00  0.00     0.003 C 
ATOM     18  C   UNL d   1      46.610  35.478  50.952  0.00  0.00     0.021 C 
ENDBRANCH  10  11
ENDBRANCH   9  10
ENDBRANCH   3   9
BRANCH   1  19
ATOM     19  S   UNL d   1      52.262  33.974  53.497  0.00  0.00     0.271 S 
ATOM     20  O   UNL d   1      52.533  34.749  53.352  0.00  0.00    -0.200 OA
ATOM     21  O   UNL d   1      51.994  33.207  53.640  0.00  0.00    -0.200 OA
BRANCH  19  22
ATOM     22  C   UNL d   1      52.949  33.818  53.943  0.00  0.00     0.104 A 
ATOM     23  C   UNL d   1      53.222  34.377  54.475  0.00  0.00     0.014 A 
ATOM     24  C   UNL d   1      53.901  34.227  54.918  0.00  0.00     0.012 A 
ATOM     25  C   UNL d   1      54.307  33.508  54.826  0.00  0.00     0.058 A 
ATOM     26  C   UNL d   1      54.029  32.938  54.284  0.00  0.00     0.012 A 
ATOM     27 CL   UNL d   1      54.986  33.353  55.267  0.00  0.00    -0.082 Cl
ATOM     28  C   UNL d   1      53.343  33.095  53.838  0.00  0.00     0.014 A 
ENDBRANCH  19  22
ENDBRANCH   1  19
TORSDOF 5
ENDMDL
MODEL 2
REMARK VINA RESULT:      -7.7      2.457      6.158
REMARK  5 active torsions:
REMARK  status: ('A' for Active; 'I' for Inactive)
REMARK    1  A    between atoms: N_6  and  S_1 
REMARK    2  A    between atoms: C_11  and  S_1 
REMARK    3  A    between atoms: N_2  and  C_16 
REMARK       I    between atoms: C_9  and  N_8 
REMARK    4  A    between atoms: C_10  and  C_9 
REMARK    5  A    between atoms: C_16  and  C_10 
ROOT
ATOM      1  N   UNL d   1      48.831  35.069  52.213  0.00  0.00    -0.226 N 
ATOM      2  N   UNL d   1      50.343  34.417  52.210  0.00  0.00    -0.269 N 
ATOM      3  C   UNL d   1      51.101  34.092  52.217  0.00  0.00     0.267 C 
ATOM      4  C   UNL d   1      49.257  35.013  52.915  0.00  0.00     0.111 A 
ATOM      5  C   UNL d   1      49.160  34.796  51.493  0.00  0.00     0.111 A 
ATOM      6  C   UNL d   1      50.015  34.687  52.914  0.00  0.00     0.103 A 
ATOM      7  C   UNL d   1      49.918  34.469  51.492  0.00  0.00     0.103 A 
ATOM      8  O   UNL d   1      51.435  33.820  51.513  0.00  0.00    -0.267 OA
ENDROOT
BRANCH   3   9
ATOM      9  C   UNL d   1      51.520  34.040  52.922  0.00  0.00     0.082 C 
BRANCH   9  10
ATOM     10  C   UNL d   1      52.177  33.543  52.968  0.00  0.00     0.105 C 
BRANCH  10  11
ATOM     11  N   UNL d   1      52.703  33.619  53.603  0.00  0.00    -0.228 N 
ATOM     12  N   UNL d   1      52.808  34.285  54.078  0.00  0.00    -0.165 NA
ATOM     13  C   UNL d   1      53.386  34.119  54.643  0.00  0.00     0.103 A 
ATOM     14  C   UNL d   1      53.664  34.633  55.231  0.00  0.00     0.022 C 
ATOM     15  C   UNL d   1      53.644  33.345  54.520  0.00  0.00     0.037 A 
ATOM     16  C   UNL d   1      53.223  33.033  53.877  0.00  0.00     0.084 A 
ATOM     17  C   UNL d   1      54.218  32.950  54.957  0.00  0.00     0.003 C 
ATOM     18  C   UNL d   1      53.311  32.271  53.570  0.00  0.00     0.021 C 
ENDBRANCH  10  11
ENDBRANCH   9  10
ENDBRANCH   3   9
BRANCH   1  19
ATOM     19  S   UNL d   1      48.070  35.397  52.215  0.00  0.00     0.271 S 
ATOM     20  O   UNL d   1      48.167  35.618  53.012  0.00  0.00    -0.200 OA
ATOM     21  O   UNL d   1      47.974  35.178  51.425  0.00  0.00    -0.200 OA
BRANCH  19  22
ATOM     22  C   UNL d   1      47.304  35.727  52.217  0.00  0.00     0.104 A 
ATOM     23  C   UNL d   1      46.731  35.421  51.719  0.00  0.00     0.014 A 
ATOM     24  C   UNL d   1      45.972  35.744  51.717  0.00  0.00     0.012 A 
ATOM     25  C   UNL d   1      45.790  36.380  52.220  0.00  0.00     0.058 A 
ATOM     26  C   UNL d   1      46.374  36.691  52.727  0.00  0.00     0.012 A 
ATOM     27 CL   UNL d   1      45.032  36.707  52.222  0.00  0.00    -0.082 Cl
ATOM     28  C   UNL d   1      47.139  36.362  52.726  0.00  0.00     0.014 A 
ENDBRANCH  19  22
ENDBRANCH   1  19
TORSDOF 5
ENDMDL
MODEL 3
REMARK VINA RESULT:      -7.3      2.661      6.233
REMARK  5 active torsions:
REMARK  status: ('A' for Active; 'I' for Inactive)
REMARK    1  A    between atoms: N_6  and  S_1 
REMARK    2  A    between atoms: C_11  and  S_1 
REMARK    3  A    between atoms: N_2  and  C_16 
REMARK       I    between atoms: C_9  and  N_8 
REMARK    4  A    between atoms: C_10  and  C_9 
REMARK    5  A    between atoms: C_16  and  C_10 
ROOT
ATOM      1  N   UNL d   1      50.158  34.573  52.766  0.00  0.00    -0.226 N 
ATOM      2  N   UNL d   1      51.600  33.796  52.935  0.00  0.00    -0.269 N 
ATOM      3  C   UNL d   1      52.318  33.399  53.020  0.00  0.00     0.267 C 
ATOM      4  C   UNL d   1      50.175  33.762  52.908  0.00  0.00     0.111 A 
ATOM      5  C   UNL d   1      50.871  35.009  52.706  0.00  0.00     0.111 A 
ATOM      6  C   UNL d   1      50.898  33.372  52.993  0.00  0.00     0.103 A 
ATOM      7  C   UNL d   1      51.593  34.619  52.791  0.00  0.00     0.103 A 
ATOM      8  O   UNL d   1      53.026  33.819  52.963  0.00  0.00    -0.267 OA
ENDROOT
BRANCH   3   9
ATOM      9  C   UNL d   1      52.327  32.589  53.162  0.00  0.00     0.082 C 
BRANCH   9  10
ATOM     10  C   UNL d   1      53.049  32.202  53.256  0.00  0.00     0.105 C 
BRANCH  10  11
ATOM     11  N   UNL d   1      53.066  31.374  53.291  0.00  0.00    -0.228 N 
ATOM     12  N   UNL d   1      52.754  30.851  52.736  0.00  0.00    -0.165 NA
ATOM     13  C   UNL d   1      52.895  30.079  52.991  0.00  0.00     0.103 A 
ATOM     14  C   UNL d   1      52.673  29.382  52.599  0.00  0.00     0.022 C 
ATOM     15  C   UNL d   1      53.298  30.120  53.709  0.00  0.00     0.037 A 
ATOM     16  C   UNL d   1      53.406  30.920  53.898  0.00  0.00     0.084 A 
ATOM     17  C   UNL d   1      53.550  29.480  54.161  0.00  0.00     0.003 C 
ATOM     18  C   UNL d   1      53.786  31.206  54.573  0.00  0.00     0.021 C 
ENDBRANCH  10  11
ENDBRANCH   9  10
ENDBRANCH   3   9
BRANCH   1  19
ATOM     19  S   UNL d   1      49.432  34.964  52.682  0.00  0.00     0.271 S 
ATOM     20  O   UNL d   1      49.324  34.601  51.939  0.00  0.00    -0.200 OA
ATOM     21  O   UNL d   1      49.540  35.322  53.417  0.00  0.00    -0.200 OA
BRANCH  19  22
ATOM     22  C   UNL d   1      48.702  35.357  52.596  0.00  0.00     0.104 A 
ATOM     23  C   UNL d   1      48.299  35.312  51.885  0.00  0.00     0.014 A 
ATOM     24  C   UNL d   1      47.577  35.699  51.796  0.00  0.00     0.012 A 
ATOM     25  C   UNL d   1      47.258  36.135  52.428  0.00  0.00     0.058 A 
ATOM     26  C   UNL d   1      47.668  36.181  53.152  0.00  0.00     0.012 A 
ATOM     27 CL   UNL d   1      46.535  36.524  52.343  0.00  0.00    -0.082 Cl
ATOM     28  C   UNL d   1      48.398  35.788  53.237  0.00  0.00     0.014 A 
ENDBRANCH  19  22
ENDBRANCH   1  19
TORSDOF 5
ENDMDL
MODEL 4
REMARK VINA RESULT:      -6.4      1.715      2.312
REMARK  5 active torsions:
REMARK  status: ('A' for Active; 'I' for Inactive)
REMARK    1  A    between atoms: N_6  and  S_1 
REMARK    2  A    between atoms: C_11  and  S_1 
REMARK    3  A    between atoms: N_2  and  C_16 
REMARK       I    between atoms: C_9  and  N_8 
REMARK    4  A    between atoms: C_10  and  C_9 
REMARK    5  A    between atoms: C_16  and  C_10 
ROOT
ATOM      1  N   UNL d   1      51.914  32.803  53.186  0.00  0.00    -0.226 N 
ATOM      2  N   UNL d   1      50.985  34.158  53.078  0.00  0.00    -0.269 N 
ATOM      3  C   UNL d   1      50.512  34.832  53.022  0.00  0.00     0.267 C 
ATOM      4  C   UNL d   1      51.124  32.744  52.960  0.00  0.00     0.111 A 
ATOM      5  C   UNL d   1      52.251  33.549  53.362  0.00  0.00     0.111 A 
ATOM      6  C   UNL d   1      50.658  33.423  52.906  0.00  0.00     0.103 A 
ATOM      7  C   UNL d   1      51.785  34.228  53.308  0.00  0.00     0.103 A 
ATOM      8  O   UNL d   1      50.835  35.572  53.194  0.00  0.00    -0.267 OA
ENDROOT
BRANCH   3   9
ATOM      9  C   UNL d   1      49.725  34.765  52.795  0.00  0.00     0.082 C 
BRANCH   9  10
ATOM     10  C   UNL d   1      49.185  35.341  53.032  0.00  0.00     0.105 C 
BRANCH  10  11
ATOM     11  N   UNL d   1      48.491  35.456  52.593  0.00  0.00    -0.228 N 
ATOM     12  N   UNL d   1      48.330  35.158  51.841  0.00  0.00    -0.165 NA
ATOM     13  C   UNL d   1      47.577  35.407  51.614  0.00  0.00     0.103 A 
ATOM     14  C   UNL d   1      47.194  35.234  50.899  0.00  0.00     0.022 C 
ATOM     15  C   UNL d   1      47.266  35.863  52.227  0.00  0.00     0.037 A 
ATOM     16  C   UNL d   1      47.830  35.895  52.834  0.00  0.00     0.084 A 
ATOM     17  C   UNL d   1      46.527  36.224  52.237  0.00  0.00     0.003 C 
ATOM     18  C   UNL d   1      47.740  36.297  53.551  0.00  0.00     0.021 C 
ENDBRANCH  10  11
ENDBRANCH   9  10
ENDBRANCH   3   9
BRANCH   1  19
ATOM     19  S   UNL d   1      52.381  32.121  53.240  0.00  0.00     0.271 S 
ATOM     20  O   UNL d   1      52.291  31.994  52.422  0.00  0.00    -0.200 OA
ATOM     21  O   UNL d   1      52.471  32.247  54.050  0.00  0.00    -0.200 OA
BRANCH  19  22
ATOM     22  C   UNL d   1      52.852  31.434  53.294  0.00  0.00     0.104 A 
ATOM     23  C   UNL d   1      53.624  31.494  53.561  0.00  0.00     0.014 A 
ATOM     24  C   UNL d   1      54.093  30.817  53.616  0.00  0.00     0.012 A 
ATOM     25  C   UNL d   1      53.782  30.077  53.402  0.00  0.00     0.058 A 
ATOM     26  C   UNL d   1      52.996  30.017  53.131  0.00  0.00     0.012 A 
ATOM     27 CL   UNL d   1      54.248  29.398  53.456  0.00  0.00    -0.082 Cl
ATOM     28  C   UNL d   1      52.526  30.703  53.076  0.00  0.00     0.014 A 
ENDBRANCH  19  22
ENDBRANCH   1  19
TORSDOF 5
ENDMDL
MODEL 5
REMARK VINA RESULT:      -6.2     10.868     11.571
REMARK  5 active torsions:
REMARK  status: ('A' for Active; 'I' for Inactive)
REMARK    1  A    between atoms: N_6  and  S_1 
REMARK    2  A    between atoms: C_11  and  S_1 
REMARK    3  A    between atoms: N_2  and  C_16 
REMARK       I    between atoms: C_9  and  N_8 
REMARK    4  A    between atoms: C_10  and  C_9 
REMARK    5  A    between atoms: C_16  and  C_10 
ROOT
ATOM      1  N   UNL d   1      44.740  29.804  60.388  0.00  0.00    -0.226 N 
ATOM      2  N   UNL d   1      44.909  28.946  58.993  0.00  0.00    -0.269 N 
ATOM      3  C   UNL d   1      44.990  28.509  58.299  0.00  0.00     0.267 C 
ATOM      4  C   UNL d   1      44.481  29.023  60.351  0.00  0.00     0.111 A 
ATOM      5  C   UNL d   1      45.090  30.168  59.720  0.00  0.00     0.111 A 
ATOM      6  C   UNL d   1      44.566  28.593  59.652  0.00  0.00     0.103 A 
ATOM      7  C   UNL d   1      45.175  29.738  59.021  0.00  0.00     0.103 A 
ATOM      8  O   UNL d   1      45.334  28.858  57.634  0.00  0.00    -0.267 OA
ENDROOT
BRANCH   3   9
ATOM      9  C   UNL d   1      44.729  27.729  58.270  0.00  0.00     0.082 C 
BRANCH   9  10
ATOM     10  C   UNL d   1      44.819  27.297  57.573  0.00  0.00     0.105 C 
BRANCH  10  11
ATOM     11  N   UNL d   1      44.699  26.478  57.582  0.00  0.00    -0.228 N 
ATOM     12  N   UNL d   1      44.703  25.987  58.245  0.00  0.00    -0.165 NA
ATOM     13  C   UNL d   1      44.560  25.212  58.001  0.00  0.00     0.103 A 
ATOM     14  C   UNL d   1      44.517  24.542  58.488  0.00  0.00     0.022 C 
ATOM     15  C   UNL d   1      44.466  25.218  57.181  0.00  0.00     0.037 A 
ATOM     16  C   UNL d   1      44.552  26.000  56.919  0.00  0.00     0.084 A 
ATOM     17  C   UNL d   1      44.314  24.564  56.706  0.00  0.00     0.003 C 
ATOM     18  C   UNL d   1      44.498  26.251  56.134  0.00  0.00     0.021 C 
ENDBRANCH  10  11
ENDBRANCH   9  10
ENDBRANCH   3   9
BRANCH   1  19
ATOM     19  S   UNL d   1      44.654  30.236  61.090  0.00  0.00     0.271 S 
ATOM     20  O   UNL d   1      44.976  30.908  60.716  0.00  0.00    -0.200 OA
ATOM     21  O   UNL d   1      44.335  29.572  61.460  0.00  0.00    -0.200 OA
BRANCH  19  22
ATOM     22  C   UNL d   1      44.568  30.671  61.796  0.00  0.00     0.104 A 
ATOM     23  C   UNL d   1      44.409  31.474  61.760  0.00  0.00     0.014 A 
ATOM     24  C   UNL d   1      44.324  31.908  62.456  0.00  0.00     0.012 A 
ATOM     25  C   UNL d   1      44.399  31.531  63.193  0.00  0.00     0.058 A 
ATOM     26  C   UNL d   1      44.561  30.714  63.230  0.00  0.00     0.012 A 
ATOM     27 CL   UNL d   1      44.314  31.961  63.892  0.00  0.00    -0.082 Cl
ATOM     28  C   UNL d   1      44.647  30.280  62.524  0.00  0.00     0.014 A 
ENDBRANCH  19  22
ENDBRANCH   1  19
TORSDOF 5
ENDMDL
