MODEL 1
REMARK VINA RESULT:      -1.8      0.000      0.000
REMARK  5 active torsions:
REMARK  status: ('A' for Active; 'I' for Inactive)
REMARK    1  A    between atoms: C_6  and  C_1 
REMARK    2  A    between atoms: C_9  and  N_2 
REMARK    3  A    between atoms: O_13  and  C_8 
REMARK    4  A    between atoms: O_15  and  C_9 
REMARK    5  A    between atoms: O_14  and  C_10 
ROOT
ATOM      1  C   UNL d   1      31.603  17.513 -24.265  0.00  0.00     0.149 A 
ATOM      2  N   UNL d   1      31.492  16.694 -24.240  0.00  0.00    -0.269 N 
ATOM      3  N   UNL d   1      30.851  17.847 -24.188  0.00  0.00    -0.227 NA
ATOM      4  C   UNL d   1      30.701  16.533 -24.151  0.00  0.00     0.085 A 
ATOM      5  C   UNL d   1      30.288  17.278 -24.118  0.00  0.00     0.099 A 
ATOM      6  C   UNL d   1      30.303  15.842 -24.097  0.00  0.00     0.019 A 
ATOM      7  C   UNL d   1      29.464  17.231 -24.027  0.00  0.00     0.021 A 
ATOM      8  C   UNL d   1      29.507  15.863 -24.011  0.00  0.00     0.002 A 
ATOM      9  C   UNL d   1      29.118  16.563 -23.979  0.00  0.00     0.002 A 
ENDROOT
BRANCH   1  10
ATOM     10  C   UNL d   1      32.000  18.204 -24.319  0.00  0.00     0.037 A 
ATOM     11  C   UNL d   1      32.323  18.542 -23.638  0.00  0.00     0.029 A 
ATOM     12  C   UNL d   1      32.736  19.256 -23.679  0.00  0.00     0.116 A 
ATOM     13  C   UNL d   1      32.828  19.638 -24.412  0.00  0.00     0.116 A 
ATOM     14  C   UNL d   1      32.506  19.302 -25.097  0.00  0.00     0.026 A 
ATOM     15  C   UNL d   1      32.092  18.586 -25.052  0.00  0.00     0.005 A 
BRANCH  12  16
ATOM     16  O   UNL d   1      33.057  19.593 -22.999  0.00  0.00    -0.326 OA
ATOM     17  C   UNL d   1      33.074  19.172 -22.284  0.00  0.00     0.181 C 
ENDBRANCH  12  16
BRANCH  13  18
ATOM     18  O   UNL d   1      33.241  20.353 -24.457  0.00  0.00    -0.326 OA
ATOM     19  C   UNL d   1      33.072  20.895 -25.066  0.00  0.00     0.181 C 
ENDBRANCH  13  18
ENDBRANCH   1  10
BRANCH   2  20
ATOM     20  C   UNL d   1      32.160  16.282 -24.307  0.00  0.00     0.205 C 
BRANCH  20  21
ATOM     21  O   UNL d   1      32.329  15.831 -24.962  0.00  0.00    -0.310 OA
ATOM     22  C   UNL d   1      33.050  15.463 -25.084  0.00  0.00     0.183 C 
ENDBRANCH  20  21
ENDBRANCH   2  20
TORSDOF 5
ENDMDL
MODEL 2
REMARK VINA RESULT:      -0.3      1.367      2.631
REMARK  5 active torsions:
REMARK  status: ('A' for Active; 'I' for Inactive)
REMARK    1  A    between atoms: C_6  and  C_1 
REMARK    2  A    between atoms: C_9  and  N_2 
REMARK    3  A    between atoms: O_13  and  C_8 
REMARK    4  A    between atoms: O_15  and  C_9 
REMARK    5  A    between atoms: O_14  and  C_10 
ROOT
ATOM      1  C   UNL d   1      32.455  18.130 -23.351  0.00  0.00     0.149 A 
ATOM      2  N   UNL d   1      32.073  17.620 -23.876  0.00  0.00    -0.269 N 
ATOM      3  N   UNL d   1      32.959  17.657 -22.899  0.00  0.00    -0.227 NA
ATOM      4  C   UNL d   1      32.333  16.862 -23.751  0.00  0.00     0.085 A 
ATOM      5  C   UNL d   1      32.906  16.886 -23.119  0.00  0.00     0.099 A 
ATOM      6  C   UNL d   1      32.144  16.170 -24.103  0.00  0.00     0.019 A 
ATOM      7  C   UNL d   1      33.241  16.157 -22.906  0.00  0.00     0.021 A 
ATOM      8  C   UNL d   1      32.502  15.499 -23.852  0.00  0.00     0.002 A 
ATOM      9  C   UNL d   1      33.040  15.522 -23.259  0.00  0.00     0.002 A 
ENDROOT
BRANCH   1  10
ATOM     10  C   UNL d   1      32.645  18.822 -22.998  0.00  0.00     0.037 A 
ATOM     11  C   UNL d   1      32.844  19.475 -23.462  0.00  0.00     0.029 A 
ATOM     12  C   UNL d   1      33.043  20.195 -23.112  0.00  0.00     0.116 A 
ATOM     13  C   UNL d   1      33.043  20.264 -22.282  0.00  0.00     0.116 A 
ATOM     14  C   UNL d   1      32.844  19.611 -21.813  0.00  0.00     0.026 A 
ATOM     15  C   UNL d   1      32.645  18.890 -22.169  0.00  0.00     0.005 A 
BRANCH  12  16
ATOM     16  O   UNL d   1      33.241  20.847 -23.576  0.00  0.00    -0.326 OA
ATOM     17  C   UNL d   1      32.825  21.012 -24.275  0.00  0.00     0.181 C 
ENDBRANCH  12  16
BRANCH  13  18
ATOM     18  O   UNL d   1      33.241  20.983 -21.926  0.00  0.00    -0.326 OA
ATOM     19  C   UNL d   1      32.779  21.282 -21.302  0.00  0.00     0.181 C 
ENDBRANCH  13  18
ENDBRANCH   1  10
BRANCH   2  20
ATOM     20  C   UNL d   1      31.564  17.982 -24.357  0.00  0.00     0.205 C 
BRANCH  20  21
ATOM     21  O   UNL d   1      30.785  17.757 -24.415  0.00  0.00    -0.310 OA
ATOM     22  C   UNL d   1      30.208  18.212 -24.776  0.00  0.00     0.183 C 
ENDBRANCH  20  21
ENDBRANCH   2  20
TORSDOF 5
ENDMDL
MODEL 3
REMARK VINA RESULT:       0.1      1.581      3.925
REMARK  5 active torsions:
REMARK  status: ('A' for Active; 'I' for Inactive)
REMARK    1  A    between atoms: C_6  and  C_1 
REMARK    2  A    between atoms: C_9  and  N_2 
REMARK    3  A    between atoms: O_13  and  C_8 
REMARK    4  A    between atoms: O_15  and  C_9 
REMARK    5  A    between atoms: O_14  and  C_10 
ROOT
ATOM      1  C   UNL d   1      31.197  16.787 -24.433  0.00  0.00     0.149 A 
ATOM      2  N   UNL d   1      32.012  16.839 -24.302  0.00  0.00    -0.269 N 
ATOM      3  N   UNL d   1      30.971  17.514 -24.754  0.00  0.00    -0.227 NA
ATOM      4  C   UNL d   1      32.275  17.570 -24.535  0.00  0.00     0.085 A 
ATOM      5  C   UNL d   1      31.602  18.006 -24.828  0.00  0.00     0.099 A 
ATOM      6  C   UNL d   1      33.003  17.900 -24.528  0.00  0.00     0.019 A 
ATOM      7  C   UNL d   1      31.759  18.776 -25.095  0.00  0.00     0.021 A 
ATOM      8  C   UNL d   1      33.089  18.648 -24.801  0.00  0.00     0.002 A 
ATOM      9  C   UNL d   1      32.458  19.058 -25.075  0.00  0.00     0.002 A 
ENDROOT
BRANCH   1  10
ATOM     10  C   UNL d   1      30.469  16.458 -24.440  0.00  0.00     0.037 A 
ATOM     11  C   UNL d   1      29.907  16.701 -23.887  0.00  0.00     0.029 A 
ATOM     12  C   UNL d   1      29.151  16.371 -23.883  0.00  0.00     0.116 A 
ATOM     13  C   UNL d   1      28.953  15.787 -24.442  0.00  0.00     0.116 A 
ATOM     14  C   UNL d   1      29.514  15.540 -24.998  0.00  0.00     0.026 A 
ATOM     15  C   UNL d   1      30.271  15.874 -24.999  0.00  0.00     0.005 A 
BRANCH  12  16
ATOM     16  O   UNL d   1      28.589  16.614 -23.329  0.00  0.00    -0.326 OA
ATOM     17  C   UNL d   1      28.241  17.365 -23.381  0.00  0.00     0.181 C 
ENDBRANCH  12  16
BRANCH  13  18
ATOM     18  O   UNL d   1      28.196  15.453 -24.441  0.00  0.00    -0.326 OA
ATOM     19  C   UNL d   1      27.694  15.555 -25.097  0.00  0.00     0.181 C 
ENDBRANCH  13  18
ENDBRANCH   1  10
BRANCH   2  20
ATOM     20  C   UNL d   1      32.325  16.186 -23.993  0.00  0.00     0.205 C 
BRANCH  20  21
ATOM     21  O   UNL d   1      32.731  16.189 -23.288  0.00  0.00    -0.310 OA
ATOM     22  C   UNL d   1      33.208  15.573 -23.037  0.00  0.00     0.183 C 
ENDBRANCH  20  21
ENDBRANCH   2  20
TORSDOF 5
ENDMDL
