MODEL 1
REMARK VINA RESULT:      54.0      0.000      0.000
REMARK  6 active torsions:
REMARK  status: ('A' for Active; 'I' for Inactive)
REMARK    1  A    between atoms: C_5  and  N_1 
REMARK    2  A    between atoms: C_4  and  C_5 
REMARK       I    between atoms: N_8  and  C_4 
REMARK    3  A    between atoms: C_6  and  C_9 
REMARK    4  A    between atoms: O_19  and  C_6 
REMARK    5  A    between atoms: C_16  and  N_8 
REMARK    6  A    between atoms: C_22  and  O_19 
ROOT
ATOM      1  C   UNL d   1      58.795  49.181  50.802  0.00  0.00     0.297 C 
ATOM      2  N   UNL d   1      59.546  49.233  51.148  0.00  0.00    -0.207 NA
ATOM      3  O   UNL d   1      58.652  48.614  50.220  0.00  0.00    -0.264 OA
ENDROOT
BRANCH   2   4
ATOM      4  C   UNL d   1      60.149  48.720  50.911  0.00  0.00     0.085 A 
ATOM      5  C   UNL d   1      60.142  47.933  51.157  0.00  0.00     0.019 A 
ATOM      6  C   UNL d   1      60.749  47.436  50.913  0.00  0.00     0.007 A 
ATOM      7  C   UNL d   1      61.354  47.707  50.434  0.00  0.00     0.064 A 
ATOM      8  C   UNL d   1      61.358  48.495  50.190  0.00  0.00     0.007 A 
ATOM      9  C   UNL d   1      60.754  49.008  50.427  0.00  0.00     0.019 A 
BRANCH   7  10
ATOM     10  C   UNL d   1      61.961  47.198  50.193  0.00  0.00     0.300 C 
ATOM     11  O   UNL d   1      62.624  47.098  50.674  0.00  0.00    -0.259 OA
BRANCH  10  12
ATOM     12  O   UNL d   1      61.905  46.796  49.487  0.00  0.00    -0.271 OA
BRANCH  12  13
ATOM     13  C   UNL d   1      62.397  46.158  49.322  0.00  0.00     0.126 C 
ATOM     14  C   UNL d   1      62.186  45.399  49.529  0.00  0.00     0.029 C 
ENDBRANCH  12  13
ENDBRANCH  10  12
ENDBRANCH   7  10
ENDBRANCH   2   4
BRANCH   1  15
ATOM     15  C   UNL d   1      58.195  49.684  51.032  0.00  0.00     0.148 C 
BRANCH  15  16
ATOM     16  N   UNL d   1      57.478  49.687  50.623  0.00  0.00    -0.235 N 
ATOM     17  C   UNL d   1      57.477  49.687  49.794  0.00  0.00     0.274 A 
ATOM     18  O   UNL d   1      58.194  49.684  49.381  0.00  0.00    -0.266 OA
ATOM     19  C   UNL d   1      56.768  49.689  49.389  0.00  0.00     0.097 A 
ATOM     20  S   UNL d   1      56.054  49.692  49.790  0.00  0.00    -0.076 SA
ATOM     21  C   UNL d   1      56.050  49.692  50.610  0.00  0.00     0.097 A 
ATOM     22  C   UNL d   1      56.758  49.689  51.034  0.00  0.00     0.274 A 
ATOM     23  O   UNL d   1      56.758  49.689  51.857  0.00  0.00    -0.266 OA
ENDBRANCH  15  16
ENDBRANCH   1  15
TORSDOF 6
ENDMDL
