MODEL 1
REMARK VINA RESULT:      74.2      0.000      0.000
REMARK  4 active torsions:
REMARK  status: ('A' for Active; 'I' for Inactive)
REMARK    1  A    between atoms: N_6  and  C_1 
REMARK    2  A    between atoms: C_10  and  C_2 
REMARK       I    between atoms: C_9  and  N_6 
REMARK    3  A    between atoms: C_11  and  C_9 
REMARK    4  A    between atoms: O_20  and  C_10 
ROOT
ATOM      1  C   UNL d   1     -54.810-101.004 -42.704  0.00  0.00     0.119 A 
ATOM      2  C   UNL d   1     -54.933-100.227 -42.950  0.00  0.00     0.087 A 
ATOM      3  C   UNL d   1     -54.959-100.228 -43.770  0.00  0.00     0.008 A 
ATOM      4  C   UNL d   1     -54.855-100.991 -44.034  0.00  0.00     0.028 A 
ATOM      5  S   UNL d   1     -54.761-101.482 -43.375  0.00  0.00    -0.070 SA
ATOM      6  C   UNL d   1     -54.856-101.161 -44.845  0.00  0.00     0.104 A 
ATOM      7  N   UNL d   1     -54.964-100.552 -45.388  0.00  0.00    -0.294 NA
ATOM      8  C   UNL d   1     -55.069 -99.777 -45.121  0.00  0.00     0.099 A 
ATOM      9  C   UNL d   1     -55.068 -99.611 -44.310  0.00  0.00    -0.004 A 
ATOM     10  C   UNL d   1     -54.827-101.519 -45.590  0.00  0.00     0.029 C 
ATOM     11  C   UNL d   1     -54.736-101.890 -44.480  0.00  0.00     0.029 C 
ATOM     12  C   UNL d   1     -55.175 -99.002 -44.853  0.00  0.00     0.029 C 
ATOM     13  C   UNL d   1     -55.072 -99.935 -45.928  0.00  0.00     0.029 C 
ENDROOT
BRANCH   1  14
ATOM     14  N   UNL d   1     -54.746-101.265 -41.922  0.00  0.00    -0.200 NA
ATOM     15  C   UNL d   1     -55.275-101.827 -41.630  0.00  0.00     0.302 C 
ATOM     16  O   UNL d   1     -55.867-102.128 -42.118  0.00  0.00    -0.263 OA
BRANCH  15  17
ATOM     17  C   UNL d   1     -55.211-102.087 -40.851  0.00  0.00     0.158 A 
ATOM     18  O   UNL d   1     -54.988-101.637 -40.203  0.00  0.00    -0.300 OA
ATOM     19  C   UNL d   1     -55.003-102.136 -39.529  0.00  0.00     0.123 A 
ATOM     20  C   UNL d   1     -55.233-102.879 -39.772  0.00  0.00     0.029 A 
ATOM     21  C   UNL d   1     -55.368-102.870 -40.593  0.00  0.00     0.032 A 
ENDBRANCH  15  17
ENDBRANCH   1  14
BRANCH   2  22
ATOM     22  C   UNL d   1     -55.012 -99.581 -42.454  0.00  0.00     0.298 C 
ATOM     23  O   UNL d   1     -54.740 -98.843 -42.710  0.00  0.00    -0.259 OA
BRANCH  22  24
ATOM     24  O   UNL d   1     -55.362 -99.664 -41.703  0.00  0.00    -0.296 OA
ATOM     25  C   UNL d   1     -54.938 -99.463 -41.028  0.00  0.00     0.185 C 
ENDBRANCH  22  24
ENDBRANCH   2  22
TORSDOF 4
ENDMDL
