MODEL 1
REMARK VINA RESULT:      -8.7      0.000      0.000
REMARK  3 active torsions:
REMARK  status: ('A' for Active; 'I' for Inactive)
REMARK    1  A    between atoms: C_4  and  C_1 
REMARK    2  A    between atoms: C_5  and  C_6 
REMARK       I    between atoms: C_6  and  N_7 
REMARK    3  A    between atoms: N_7  and  C_8 
ROOT
ATOM      1  C   UNL d   1      53.007  32.806  53.704  0.00  0.00     0.042 A 
ATOM      2  C   UNL d   1      53.329  32.110  53.409  0.00  0.00     0.087 A 
ATOM      3  C   UNL d   1      53.290  33.131  54.414  0.00  0.00     0.004 A 
ATOM      4  C   UNL d   1      53.934  31.733  53.817  0.00  0.00     0.019 A 
ATOM      5  C   UNL d   1      53.898  32.745  54.819  0.00  0.00     0.000 A 
ATOM      6  C   UNL d   1      54.218  32.046  54.518  0.00  0.00     0.002 A 
ENDROOT
BRANCH   1   7
ATOM      7  C   UNL d   1      52.399  33.192  53.300  0.00  0.00     0.112 A 
ATOM      8  N   UNL d   1      52.363  33.470  52.535  0.00  0.00    -0.238 NA
ATOM      9  C   UNL d   1      51.618  33.809  52.427  0.00  0.00     0.088 A 
ATOM     10  C   UNL d   1      51.266  34.178  51.771  0.00  0.00     0.020 A 
ATOM     11  C   UNL d   1      51.202  33.736  53.130  0.00  0.00     0.049 A 
ATOM     12  C   UNL d   1      50.500  34.469  51.826  0.00  0.00     0.002 A 
ATOM     13  C   UNL d   1      50.077  34.397  52.533  0.00  0.00     0.001 A 
ATOM     14  C   UNL d   1      50.430  34.028  53.189  0.00  0.00     0.008 A 
ATOM     15  S   UNL d   1      51.687  33.353  53.669  0.00  0.00    -0.066 SA
ENDBRANCH   1   7
BRANCH   2  16
ATOM     16  N   UNL d   1      53.041  31.794  52.700  0.00  0.00    -0.206 NA
ATOM     17  C   UNL d   1      52.924  30.971  52.631  0.00  0.00     0.304 C 
ATOM     18  O   UNL d   1      52.637  30.657  51.926  0.00  0.00    -0.263 OA
BRANCH  17  19
ATOM     19  C   UNL d   1      53.093  30.470  53.264  0.00  0.00     0.182 A 
ATOM     20  O   UNL d   1      52.509  30.290  53.819  0.00  0.00    -0.296 OA
ATOM     21  C   UNL d   1      52.679  29.789  54.452  0.00  0.00     0.150 A 
ATOM     22  C   UNL d   1      53.432  29.468  54.531  0.00  0.00     0.149 A 
ATOM     23  O   UNL d   1      54.016  29.648  53.975  0.00  0.00    -0.299 OA
ATOM     24  C   UNL d   1      53.846  30.149  53.342  0.00  0.00     0.152 A 
ENDBRANCH  17  19
ENDBRANCH   2  16
TORSDOF 3
ENDMDL
MODEL 2
REMARK VINA RESULT:      -8.4      2.149      3.987
REMARK  3 active torsions:
REMARK  status: ('A' for Active; 'I' for Inactive)
REMARK    1  A    between atoms: C_4  and  C_1 
REMARK    2  A    between atoms: C_5  and  C_6 
REMARK       I    between atoms: C_6  and  N_7 
REMARK    3  A    between atoms: N_7  and  C_8 
ROOT
ATOM      1  C   UNL d   1      53.978  32.687  54.379  0.00  0.00     0.042 A 
ATOM      2  C   UNL d   1      53.451  33.294  54.547  0.00  0.00     0.087 A 
ATOM      3  C   UNL d   1      54.780  32.760  54.578  0.00  0.00     0.004 A 
ATOM      4  C   UNL d   1      53.718  33.978  54.916  0.00  0.00     0.019 A 
ATOM      5  C   UNL d   1      55.041  33.451  54.948  0.00  0.00     0.000 A 
ATOM      6  C   UNL d   1      54.507  34.058  55.115  0.00  0.00     0.002 A 
ENDROOT
BRANCH   1   7
ATOM      7  C   UNL d   1      53.718  31.996  54.009  0.00  0.00     0.112 A 
ATOM      8  N   UNL d   1      53.507  31.855  53.234  0.00  0.00    -0.238 NA
ATOM      9  C   UNL d   1      53.290  31.061  53.174  0.00  0.00     0.088 A 
ATOM     10  C   UNL d   1      53.028  30.603  52.532  0.00  0.00     0.020 A 
ATOM     11  C   UNL d   1      53.369  30.720  53.917  0.00  0.00     0.049 A 
ATOM     12  C   UNL d   1      52.848  29.809  52.639  0.00  0.00     0.002 A 
ATOM     13  C   UNL d   1      52.926  29.462  53.386  0.00  0.00     0.001 A 
ATOM     14  C   UNL d   1      53.188  29.920  54.028  0.00  0.00     0.008 A 
ATOM     15  S   UNL d   1      53.633  31.300  54.431  0.00  0.00    -0.066 SA
ENDBRANCH   1   7
BRANCH   2  16
ATOM     16  N   UNL d   1      52.652  33.211  54.345  0.00  0.00    -0.206 NA
ATOM     17  C   UNL d   1      52.224  33.874  54.071  0.00  0.00     0.304 C 
ATOM     18  O   UNL d   1      51.430  33.791  53.870  0.00  0.00    -0.263 OA
BRANCH  17  19
ATOM     19  C   UNL d   1      52.590  34.609  54.001  0.00  0.00     0.182 A 
ATOM     20  O   UNL d   1      52.983  34.813  53.305  0.00  0.00    -0.296 OA
ATOM     21  C   UNL d   1      53.350  35.549  53.235  0.00  0.00     0.150 A 
ATOM     22  C   UNL d   1      53.324  36.081  53.862  0.00  0.00     0.149 A 
ATOM     23  O   UNL d   1      52.930  35.877  54.560  0.00  0.00    -0.299 OA
ATOM     24  C   UNL d   1      52.564  35.141  54.628  0.00  0.00     0.152 A 
ENDBRANCH  17  19
ENDBRANCH   2  16
TORSDOF 3
ENDMDL
MODEL 3
REMARK VINA RESULT:      -8.2      2.068      4.086
REMARK  3 active torsions:
REMARK  status: ('A' for Active; 'I' for Inactive)
REMARK    1  A    between atoms: C_4  and  C_1 
REMARK    2  A    between atoms: C_5  and  C_6 
REMARK       I    between atoms: C_6  and  N_7 
REMARK    3  A    between atoms: N_7  and  C_8 
ROOT
ATOM      1  C   UNL d   1      52.396  32.872  53.205  0.00  0.00     0.042 A 
ATOM      2  C   UNL d   1      52.949  33.476  53.284  0.00  0.00     0.087 A 
ATOM      3  C   UNL d   1      51.614  33.046  52.988  0.00  0.00     0.004 A 
ATOM      4  C   UNL d   1      52.727  34.255  53.149  0.00  0.00     0.019 A 
ATOM      5  C   UNL d   1      51.400  33.831  52.853  0.00  0.00     0.000 A 
ATOM      6  C   UNL d   1      51.958  34.434  52.934  0.00  0.00     0.002 A 
ENDROOT
BRANCH   1   7
ATOM      7  C   UNL d   1      52.611  32.087  53.340  0.00  0.00     0.112 A 
ATOM      8  N   UNL d   1      52.830  31.706  54.027  0.00  0.00    -0.238 NA
ATOM      9  C   UNL d   1      52.986  30.918  53.838  0.00  0.00     0.088 A 
ATOM     10  C   UNL d   1      53.227  30.272  54.302  0.00  0.00     0.020 A 
ATOM     11  C   UNL d   1      52.861  30.821  53.032  0.00  0.00     0.049 A 
ATOM     12  C   UNL d   1      53.341  29.537  53.955  0.00  0.00     0.002 A 
ATOM     13  C   UNL d   1      53.217  29.436  53.144  0.00  0.00     0.001 A 
ATOM     14  C   UNL d   1      52.975  30.081  52.679  0.00  0.00     0.008 A 
ATOM     15  S   UNL d   1      52.630  31.546  52.726  0.00  0.00    -0.066 SA
ENDBRANCH   1   7
BRANCH   2  16
ATOM     16  N   UNL d   1      53.727  33.293  53.502  0.00  0.00    -0.206 NA
ATOM     17  C   UNL d   1      54.123  33.769  54.061  0.00  0.00     0.304 C 
ATOM     18  O   UNL d   1      54.896  33.587  54.277  0.00  0.00    -0.263 OA
BRANCH  17  19
ATOM     19  C   UNL d   1      53.745  34.419  54.399  0.00  0.00     0.182 A 
ATOM     20  O   UNL d   1      53.751  35.150  54.014  0.00  0.00    -0.296 OA
ATOM     21  C   UNL d   1      53.373  35.801  54.353  0.00  0.00     0.150 A 
ATOM     22  C   UNL d   1      52.989  35.721  55.076  0.00  0.00     0.149 A 
ATOM     23  O   UNL d   1      52.984  34.990  55.461  0.00  0.00    -0.299 OA
ATOM     24  C   UNL d   1      53.362  34.340  55.122  0.00  0.00     0.152 A 
ENDBRANCH  17  19
ENDBRANCH   2  16
TORSDOF 3
ENDMDL
MODEL 4
REMARK VINA RESULT:      -8.2      2.048      2.906
REMARK  3 active torsions:
REMARK  status: ('A' for Active; 'I' for Inactive)
REMARK    1  A    between atoms: C_4  and  C_1 
REMARK    2  A    between atoms: C_5  and  C_6 
REMARK       I    between atoms: C_6  and  N_7 
REMARK    3  A    between atoms: N_7  and  C_8 
ROOT
ATOM      1  C   UNL d   1      52.387  33.190  53.078  0.00  0.00     0.042 A 
ATOM      2  C   UNL d   1      53.041  33.611  53.344  0.00  0.00     0.087 A 
ATOM      3  C   UNL d   1      52.440  32.373  52.946  0.00  0.00     0.004 A 
ATOM      4  C   UNL d   1      53.752  33.222  53.479  0.00  0.00     0.019 A 
ATOM      5  C   UNL d   1      53.158  31.989  53.084  0.00  0.00     0.000 A 
ATOM      6  C   UNL d   1      53.812  32.416  53.350  0.00  0.00     0.002 A 
ENDROOT
BRANCH   1   7
ATOM      7  C   UNL d   1      51.669  33.574  52.940  0.00  0.00     0.112 A 
ATOM      8  N   UNL d   1      51.105  33.849  53.461  0.00  0.00    -0.238 NA
ATOM      9  C   UNL d   1      50.498  34.187  53.016  0.00  0.00     0.088 A 
ATOM     10  C   UNL d   1      49.785  34.553  53.236  0.00  0.00     0.020 A 
ATOM     11  C   UNL d   1      50.696  34.117  52.222  0.00  0.00     0.049 A 
ATOM     12  C   UNL d   1      49.277  34.845  52.660  0.00  0.00     0.002 A 
ATOM     13  C   UNL d   1      49.474  34.776  51.859  0.00  0.00     0.001 A 
ATOM     14  C   UNL d   1      50.187  34.410  51.639  0.00  0.00     0.008 A 
ATOM     15  S   UNL d   1      51.421  33.738  52.178  0.00  0.00    -0.066 SA
ENDBRANCH   1   7
BRANCH   2  16
ATOM     16  N   UNL d   1      52.978  34.427  53.473  0.00  0.00    -0.206 NA
ATOM     17  C   UNL d   1      53.376  34.775  54.119  0.00  0.00     0.304 C 
ATOM     18  O   UNL d   1      53.314  35.586  54.248  0.00  0.00    -0.263 OA
BRANCH  17  19
ATOM     19  C   UNL d   1      53.830  34.313  54.629  0.00  0.00     0.182 A 
ATOM     20  O   UNL d   1      54.638  34.214  54.492  0.00  0.00    -0.296 OA
ATOM     21  C   UNL d   1      55.093  33.752  55.003  0.00  0.00     0.150 A 
ATOM     22  C   UNL d   1      54.739  33.388  55.650  0.00  0.00     0.149 A 
ATOM     23  O   UNL d   1      53.931  33.487  55.788  0.00  0.00    -0.299 OA
ATOM     24  C   UNL d   1      53.477  33.950  55.277  0.00  0.00     0.152 A 
ENDBRANCH  17  19
ENDBRANCH   2  16
TORSDOF 3
ENDMDL
MODEL 5
REMARK VINA RESULT:      -7.9      1.490      2.177
REMARK  3 active torsions:
REMARK  status: ('A' for Active; 'I' for Inactive)
REMARK    1  A    between atoms: C_4  and  C_1 
REMARK    2  A    between atoms: C_5  and  C_6 
REMARK       I    between atoms: C_6  and  N_7 
REMARK    3  A    between atoms: N_7  and  C_8 
ROOT
ATOM      1  C   UNL d   1      52.048  34.452  53.532  0.00  0.00     0.042 A 
ATOM      2  C   UNL d   1      52.377  33.757  53.822  0.00  0.00     0.087 A 
ATOM      3  C   UNL d   1      52.328  35.188  53.793  0.00  0.00     0.004 A 
ATOM      4  C   UNL d   1      52.985  33.789  54.373  0.00  0.00     0.019 A 
ATOM      5  C   UNL d   1      52.939  35.213  54.347  0.00  0.00     0.000 A 
ATOM      6  C   UNL d   1      53.266  34.512  54.635  0.00  0.00     0.002 A 
ENDROOT
BRANCH   1   7
ATOM      7  C   UNL d   1      51.437  34.428  52.977  0.00  0.00     0.112 A 
ATOM      8  N   UNL d   1      51.456  34.309  52.171  0.00  0.00    -0.238 NA
ATOM      9  C   UNL d   1      50.678  34.340  51.895  0.00  0.00     0.088 A 
ATOM     10  C   UNL d   1      50.354  34.260  51.134  0.00  0.00     0.020 A 
ATOM     11  C   UNL d   1      50.186  34.478  52.539  0.00  0.00     0.049 A 
ATOM     12  C   UNL d   1      49.543  34.318  51.025  0.00  0.00     0.002 A 
ATOM     13  C   UNL d   1      49.044  34.457  51.670  0.00  0.00     0.001 A 
ATOM     14  C   UNL d   1      49.368  34.537  52.431  0.00  0.00     0.008 A 
ATOM     15  S   UNL d   1      50.659  34.532  53.207  0.00  0.00    -0.066 SA
ENDBRANCH   1   7
BRANCH   2  16
ATOM     16  N   UNL d   1      52.092  33.026  53.555  0.00  0.00    -0.206 NA
ATOM     17  C   UNL d   1      52.622  32.393  53.437  0.00  0.00     0.304 C 
ATOM     18  O   UNL d   1      52.338  31.667  53.172  0.00  0.00    -0.263 OA
BRANCH  17  19
ATOM     19  C   UNL d   1      53.428  32.489  53.584  0.00  0.00     0.182 A 
ATOM     20  O   UNL d   1      53.931  32.756  52.986  0.00  0.00    -0.296 OA
ATOM     21  C   UNL d   1      54.737  32.852  53.134  0.00  0.00     0.150 A 
ATOM     22  C   UNL d   1      55.040  32.681  53.879  0.00  0.00     0.149 A 
ATOM     23  O   UNL d   1      54.537  32.414  54.478  0.00  0.00    -0.299 OA
ATOM     24  C   UNL d   1      53.731  32.319  54.329  0.00  0.00     0.152 A 
ENDBRANCH  17  19
ENDBRANCH   2  16
TORSDOF 3
ENDMDL
MODEL 6
REMARK VINA RESULT:      -7.2      2.153      4.242
REMARK  3 active torsions:
REMARK  status: ('A' for Active; 'I' for Inactive)
REMARK    1  A    between atoms: C_4  and  C_1 
REMARK    2  A    between atoms: C_5  and  C_6 
REMARK       I    between atoms: C_6  and  N_7 
REMARK    3  A    between atoms: N_7  and  C_8 
ROOT
ATOM      1  C   UNL d   1      52.759  32.661  53.634  0.00  0.00     0.042 A 
ATOM      2  C   UNL d   1      52.079  33.121  53.609  0.00  0.00     0.087 A 
ATOM      3  C   UNL d   1      52.773  31.913  53.275  0.00  0.00     0.004 A 
ATOM      4  C   UNL d   1      51.408  32.841  53.225  0.00  0.00     0.019 A 
ATOM      5  C   UNL d   1      52.096  31.638  52.892  0.00  0.00     0.000 A 
ATOM      6  C   UNL d   1      51.415  32.104  52.868  0.00  0.00     0.002 A 
ENDROOT
BRANCH   1   7
ATOM      7  C   UNL d   1      53.437  32.936  54.017  0.00  0.00     0.112 A 
ATOM      8  N   UNL d   1      53.560  33.142  54.796  0.00  0.00    -0.238 NA
ATOM      9  C   UNL d   1      54.347  33.380  54.871  0.00  0.00     0.088 A 
ATOM     10  C   UNL d   1      54.787  33.647  55.523  0.00  0.00     0.020 A 
ATOM     11  C   UNL d   1      54.702  33.317  54.133  0.00  0.00     0.049 A 
ATOM     12  C   UNL d   1      55.578  33.849  55.430  0.00  0.00     0.002 A 
ATOM     13  C   UNL d   1      55.939  33.787  54.688  0.00  0.00     0.001 A 
ATOM     14  C   UNL d   1      55.498  33.520  54.036  0.00  0.00     0.008 A 
ATOM     15  S   UNL d   1      54.137  33.042  53.607  0.00  0.00    -0.066 SA
ENDBRANCH   1   7
BRANCH   2  16
ATOM     16  N   UNL d   1      52.074  33.866  53.970  0.00  0.00    -0.206 NA
ATOM     17  C   UNL d   1      51.684  34.504  53.599  0.00  0.00     0.304 C 
ATOM     18  O   UNL d   1      51.679  35.244  53.959  0.00  0.00    -0.263 OA
BRANCH  17  19
ATOM     19  C   UNL d   1      51.303  34.397  52.875  0.00  0.00     0.182 A 
ATOM     20  O   UNL d   1      51.724  34.471  52.169  0.00  0.00    -0.296 OA
ATOM     21  C   UNL d   1      51.343  34.364  51.445  0.00  0.00     0.150 A 
ATOM     22  C   UNL d   1      50.541  34.184  51.427  0.00  0.00     0.149 A 
ATOM     23  O   UNL d   1      50.119  34.110  52.134  0.00  0.00    -0.299 OA
ATOM     24  C   UNL d   1      50.501  34.217  52.857  0.00  0.00     0.152 A 
ENDBRANCH  17  19
ENDBRANCH   2  16
TORSDOF 3
ENDMDL
