MODEL 1
REMARK VINA RESULT:      -7.6      0.000      0.000
REMARK  3 active torsions:
REMARK  status: ('A' for Active; 'I' for Inactive)
REMARK    1  A    between atoms: C_6  and  C_2 
REMARK    2  A    between atoms: O_7  and  C_6 
REMARK    3  A    between atoms: C_8  and  O_7 
ROOT
ATOM      1  N   UNL d   1      52.992  34.384  53.966  0.00  0.00    -0.224 NA
ATOM      2  C   UNL d   1      52.472  33.837  53.636  0.00  0.00     0.188 A 
ATOM      3  N   UNL d   1      52.733  33.065  53.868  0.00  0.00    -0.224 NA
ATOM      4  C   UNL d   1      53.572  33.955  54.400  0.00  0.00     0.101 A 
ATOM      5  C   UNL d   1      53.413  33.147  54.340  0.00  0.00     0.101 A 
ATOM      6  C   UNL d   1      54.220  34.216  54.839  0.00  0.00     0.021 A 
ATOM      7  C   UNL d   1      53.903  32.601  54.719  0.00  0.00     0.021 A 
ATOM      8  C   UNL d   1      54.665  33.682  55.185  0.00  0.00     0.002 A 
ATOM      9  C   UNL d   1      54.506  32.874  55.125  0.00  0.00     0.002 A 
ENDROOT
BRANCH   2  10
ATOM     10  C   UNL d   1      52.001  34.374  53.271  0.00  0.00     0.161 C 
BRANCH  10  11
ATOM     11  O   UNL d   1      51.288  34.131  52.941  0.00  0.00    -0.302 OA
BRANCH  11  12
ATOM     12  C   UNL d   1      50.595  34.303  52.528  0.00  0.00     0.100 A 
ATOM     13  C   UNL d   1      50.537  34.123  51.725  0.00  0.00     0.026 A 
ATOM     14  C   UNL d   1      49.848  34.294  51.314  0.00  0.00     0.013 A 
ATOM     15  C   UNL d   1      49.209  34.646  51.701  0.00  0.00     0.058 A 
ATOM     16  C   UNL d   1      49.268  34.826  52.509  0.00  0.00     0.013 A 
ATOM     17 CL   UNL d   1      48.520  34.817  51.291  0.00  0.00    -0.082 Cl
ATOM     18  C   UNL d   1      49.957  34.655  52.919  0.00  0.00     0.026 A 
ENDBRANCH  11  12
ENDBRANCH  10  11
ENDBRANCH   2  10
TORSDOF 3
ENDMDL
MODEL 2
REMARK VINA RESULT:      -7.5      2.649      3.782
REMARK  3 active torsions:
REMARK  status: ('A' for Active; 'I' for Inactive)
REMARK    1  A    between atoms: C_6  and  C_2 
REMARK    2  A    between atoms: O_7  and  C_6 
REMARK    3  A    between atoms: C_8  and  O_7 
ROOT
ATOM      1  N   UNL d   1      53.708  31.323  53.787  0.00  0.00    -0.224 NA
ATOM      2  C   UNL d   1      53.301  31.800  53.251  0.00  0.00     0.188 A 
ATOM      3  N   UNL d   1      52.759  31.305  52.829  0.00  0.00    -0.224 NA
ATOM      4  C   UNL d   1      53.419  30.537  53.698  0.00  0.00     0.101 A 
ATOM      5  C   UNL d   1      52.838  30.526  53.111  0.00  0.00     0.101 A 
ATOM      6  C   UNL d   1      53.625  29.839  54.087  0.00  0.00     0.021 A 
ATOM      7  C   UNL d   1      52.464  29.817  52.914  0.00  0.00     0.021 A 
ATOM      8  C   UNL d   1      53.258  29.186  53.883  0.00  0.00     0.002 A 
ATOM      9  C   UNL d   1      52.677  29.175  53.296  0.00  0.00     0.002 A 
ENDROOT
BRANCH   2  10
ATOM     10  C   UNL d   1      53.670  32.484  53.449  0.00  0.00     0.161 C 
BRANCH  10  11
ATOM     11  O   UNL d   1      53.225  33.168  53.558  0.00  0.00    -0.302 OA
BRANCH  11  12
ATOM     12  C   UNL d   1      53.152  33.935  53.854  0.00  0.00     0.100 A 
ATOM     13  C   UNL d   1      53.426  34.113  54.611  0.00  0.00     0.026 A 
ATOM     14  C   UNL d   1      53.353  34.876  54.905  0.00  0.00     0.013 A 
ATOM     15  C   UNL d   1      53.006  35.468  54.444  0.00  0.00     0.058 A 
ATOM     16  C   UNL d   1      52.732  35.287  53.683  0.00  0.00     0.013 A 
ATOM     17 CL   UNL d   1      52.934  36.231  54.738  0.00  0.00    -0.082 Cl
ATOM     18  C   UNL d   1      52.804  34.525  53.389  0.00  0.00     0.026 A 
ENDBRANCH  11  12
ENDBRANCH  10  11
ENDBRANCH   2  10
TORSDOF 3
ENDMDL
MODEL 3
REMARK VINA RESULT:      -6.9      2.107      4.785
REMARK  3 active torsions:
REMARK  status: ('A' for Active; 'I' for Inactive)
REMARK    1  A    between atoms: C_6  and  C_2 
REMARK    2  A    between atoms: O_7  and  C_6 
REMARK    3  A    between atoms: C_8  and  O_7 
ROOT
ATOM      1  N   UNL d   1      50.840  34.006  52.073  0.00  0.00    -0.224 NA
ATOM      2  C   UNL d   1      50.987  34.180  52.865  0.00  0.00     0.188 A 
ATOM      3  N   UNL d   1      50.310  34.592  53.165  0.00  0.00    -0.224 NA
ATOM      4  C   UNL d   1      50.078  34.308  51.883  0.00  0.00     0.101 A 
ATOM      5  C   UNL d   1      49.753  34.667  52.552  0.00  0.00     0.101 A 
ATOM      6  C   UNL d   1      49.652  34.291  51.176  0.00  0.00     0.021 A 
ATOM      7  C   UNL d   1      49.003  35.009  52.512  0.00  0.00     0.021 A 
ATOM      8  C   UNL d   1      48.949  34.621  51.166  0.00  0.00     0.002 A 
ATOM      9  C   UNL d   1      48.624  34.980  51.835  0.00  0.00     0.002 A 
ENDROOT
BRANCH   2  10
ATOM     10  C   UNL d   1      51.715  33.845  52.894  0.00  0.00     0.161 C 
BRANCH  10  11
ATOM     11  O   UNL d   1      52.190  33.963  53.555  0.00  0.00    -0.302 OA
BRANCH  11  12
ATOM     12  C   UNL d   1      52.878  33.801  53.980  0.00  0.00     0.100 A 
ATOM     13  C   UNL d   1      53.292  33.100  53.845  0.00  0.00     0.026 A 
ATOM     14  C   UNL d   1      53.976  32.939  54.268  0.00  0.00     0.013 A 
ATOM     15  C   UNL d   1      54.255  33.477  54.831  0.00  0.00     0.058 A 
ATOM     16  C   UNL d   1      53.838  34.181  54.965  0.00  0.00     0.013 A 
ATOM     17 CL   UNL d   1      54.939  33.316  55.253  0.00  0.00    -0.082 Cl
ATOM     18  C   UNL d   1      53.153  34.342  54.543  0.00  0.00     0.026 A 
ENDBRANCH  11  12
ENDBRANCH  10  11
ENDBRANCH   2  10
TORSDOF 3
ENDMDL
MODEL 4
REMARK VINA RESULT:      -6.7      2.956      4.614
REMARK  3 active torsions:
REMARK  status: ('A' for Active; 'I' for Inactive)
REMARK    1  A    between atoms: C_6  and  C_2 
REMARK    2  A    between atoms: O_7  and  C_6 
REMARK    3  A    between atoms: C_8  and  O_7 
ROOT
ATOM      1  N   UNL d   1      53.589  33.204  53.915  0.00  0.00    -0.224 NA
ATOM      2  C   UNL d   1      53.194  32.675  53.422  0.00  0.00     0.188 A 
ATOM      3  N   UNL d   1      52.559  33.097  53.052  0.00  0.00    -0.224 NA
ATOM      4  C   UNL d   1      53.203  33.950  53.851  0.00  0.00     0.101 A 
ATOM      5  C   UNL d   1      52.572  33.884  53.322  0.00  0.00     0.101 A 
ATOM      6  C   UNL d   1      53.360  34.673  54.216  0.00  0.00     0.021 A 
ATOM      7  C   UNL d   1      52.100  34.541  53.160  0.00  0.00     0.021 A 
ATOM      8  C   UNL d   1      52.901  35.275  54.046  0.00  0.00     0.002 A 
ATOM      9  C   UNL d   1      52.270  35.209  53.517  0.00  0.00     0.002 A 
ENDROOT
BRANCH   2  10
ATOM     10  C   UNL d   1      53.658  32.042  53.586  0.00  0.00     0.161 C 
BRANCH  10  11
ATOM     11  O   UNL d   1      53.321  31.292  53.630  0.00  0.00    -0.302 OA
BRANCH  11  12
ATOM     12  C   UNL d   1      53.336  30.516  53.908  0.00  0.00     0.100 A 
ATOM     13  C   UNL d   1      53.354  30.368  54.720  0.00  0.00     0.026 A 
ATOM     14  C   UNL d   1      53.369  29.596  54.996  0.00  0.00     0.013 A 
ATOM     15  C   UNL d   1      53.366  28.963  54.465  0.00  0.00     0.058 A 
ATOM     16  C   UNL d   1      53.349  29.113  53.650  0.00  0.00     0.013 A 
ATOM     17 CL   UNL d   1      53.381  28.191  54.742  0.00  0.00    -0.082 Cl
ATOM     18  C   UNL d   1      53.334  29.885  53.373  0.00  0.00     0.026 A 
ENDBRANCH  11  12
ENDBRANCH  10  11
ENDBRANCH   2  10
TORSDOF 3
ENDMDL
MODEL 5
REMARK VINA RESULT:      -6.6      1.537      2.434
REMARK  3 active torsions:
REMARK  status: ('A' for Active; 'I' for Inactive)
REMARK    1  A    between atoms: C_6  and  C_2 
REMARK    2  A    between atoms: O_7  and  C_6 
REMARK    3  A    between atoms: C_8  and  O_7 
ROOT
ATOM      1  N   UNL d   1      50.953  33.644  52.822  0.00  0.00    -0.224 NA
ATOM      2  C   UNL d   1      50.766  34.437  52.949  0.00  0.00     0.188 A 
ATOM      3  N   UNL d   1      51.465  34.820  53.238  0.00  0.00    -0.224 NA
ATOM      4  C   UNL d   1      51.762  33.536  53.030  0.00  0.00     0.101 A 
ATOM      5  C   UNL d   1      52.075  34.257  53.285  0.00  0.00     0.101 A 
ATOM      6  C   UNL d   1      52.238  32.863  53.013  0.00  0.00     0.021 A 
ATOM      7  C   UNL d   1      52.864  34.302  53.522  0.00  0.00     0.021 A 
ATOM      8  C   UNL d   1      52.977  32.933  53.242  0.00  0.00     0.002 A 
ATOM      9  C   UNL d   1      53.290  33.654  53.496  0.00  0.00     0.002 A 
ENDROOT
BRANCH   2  10
ATOM     10  C   UNL d   1      50.001  34.383  52.717  0.00  0.00     0.161 C 
BRANCH  10  11
ATOM     11  O   UNL d   1      49.493  35.018  52.842  0.00  0.00    -0.302 OA
BRANCH  11  12
ATOM     12  C   UNL d   1      48.772  35.397  52.707  0.00  0.00     0.100 A 
ATOM     13  C   UNL d   1      48.440  35.873  53.293  0.00  0.00     0.026 A 
ATOM     14  C   UNL d   1      47.724  36.249  53.158  0.00  0.00     0.013 A 
ATOM     15  C   UNL d   1      47.331  36.153  52.437  0.00  0.00     0.058 A 
ATOM     16  C   UNL d   1      47.667  35.673  51.849  0.00  0.00     0.013 A 
ATOM     17 CL   UNL d   1      46.615  36.529  52.303  0.00  0.00    -0.082 Cl
ATOM     18  C   UNL d   1      48.383  35.298  51.984  0.00  0.00     0.026 A 
ENDBRANCH  11  12
ENDBRANCH  10  11
ENDBRANCH   2  10
TORSDOF 3
ENDMDL
MODEL 6
REMARK VINA RESULT:      -6.6      2.208      4.899
REMARK  3 active torsions:
REMARK  status: ('A' for Active; 'I' for Inactive)
REMARK    1  A    between atoms: C_6  and  C_2 
REMARK    2  A    between atoms: O_7  and  C_6 
REMARK    3  A    between atoms: C_8  and  O_7 
ROOT
ATOM      1  N   UNL d   1      49.634  34.900  52.954  0.00  0.00    -0.224 NA
ATOM      2  C   UNL d   1      50.099  34.403  52.488  0.00  0.00     0.188 A 
ATOM      3  N   UNL d   1      49.707  34.312  51.743  0.00  0.00    -0.224 NA
ATOM      4  C   UNL d   1      48.958  35.115  52.500  0.00  0.00     0.101 A 
ATOM      5  C   UNL d   1      49.003  34.754  51.758  0.00  0.00     0.101 A 
ATOM      6  C   UNL d   1      48.315  35.597  52.686  0.00  0.00     0.021 A 
ATOM      7  C   UNL d   1      48.403  34.877  51.204  0.00  0.00     0.021 A 
ATOM      8  C   UNL d   1      47.765  35.695  52.147  0.00  0.00     0.002 A 
ATOM      9  C   UNL d   1      47.809  35.335  51.405  0.00  0.00     0.002 A 
ENDROOT
BRANCH   2  10
ATOM     10  C   UNL d   1      50.677  34.290  53.033  0.00  0.00     0.161 C 
BRANCH  10  11
ATOM     11  O   UNL d   1      51.331  33.829  52.841  0.00  0.00    -0.302 OA
BRANCH  11  12
ATOM     12  C   UNL d   1      52.066  33.512  53.039  0.00  0.00     0.100 A 
ATOM     13  C   UNL d   1      52.648  33.994  53.370  0.00  0.00     0.026 A 
ATOM     14  C   UNL d   1      53.379  33.678  53.567  0.00  0.00     0.013 A 
ATOM     15  C   UNL d   1      53.536  32.877  53.436  0.00  0.00     0.058 A 
ATOM     16  C   UNL d   1      52.949  32.394  53.104  0.00  0.00     0.013 A 
ATOM     17 CL   UNL d   1      54.267  32.561  53.634  0.00  0.00    -0.082 Cl
ATOM     18  C   UNL d   1      52.219  32.709  52.907  0.00  0.00     0.026 A 
ENDBRANCH  11  12
ENDBRANCH  10  11
ENDBRANCH   2  10
TORSDOF 3
ENDMDL
MODEL 7
REMARK VINA RESULT:      -6.3      2.151      2.763
REMARK  3 active torsions:
REMARK  status: ('A' for Active; 'I' for Inactive)
REMARK    1  A    between atoms: C_6  and  C_2 
REMARK    2  A    between atoms: O_7  and  C_6 
REMARK    3  A    between atoms: C_8  and  O_7 
ROOT
ATOM      1  N   UNL d   1      52.716  31.104  52.755  0.00  0.00    -0.224 NA
ATOM      2  C   UNL d   1      52.970  31.760  53.184  0.00  0.00     0.188 A 
ATOM      3  N   UNL d   1      53.354  31.476  53.883  0.00  0.00    -0.224 NA
ATOM      4  C   UNL d   1      52.941  30.416  53.186  0.00  0.00     0.101 A 
ATOM      5  C   UNL d   1      53.332  30.644  53.877  0.00  0.00     0.101 A 
ATOM      6  C   UNL d   1      52.831  29.615  53.020  0.00  0.00     0.021 A 
ATOM      7  C   UNL d   1      53.611  30.071  54.401  0.00  0.00     0.021 A 
ATOM      8  C   UNL d   1      53.103  29.097  53.529  0.00  0.00     0.002 A 
ATOM      9  C   UNL d   1      53.494  29.325  54.221  0.00  0.00     0.002 A 
ENDROOT
BRANCH   2  10
ATOM     10  C   UNL d   1      52.695  32.311  52.669  0.00  0.00     0.161 C 
BRANCH  10  11
ATOM     11  O   UNL d   1      52.226  32.927  52.946  0.00  0.00    -0.302 OA
BRANCH  11  12
ATOM     12  C   UNL d   1      51.590  33.443  52.848  0.00  0.00     0.100 A 
ATOM     13  C   UNL d   1      51.592  33.989  52.229  0.00  0.00     0.026 A 
ATOM     14  C   UNL d   1      50.960  34.501  52.131  0.00  0.00     0.013 A 
ATOM     15  C   UNL d   1      50.316  34.473  52.650  0.00  0.00     0.058 A 
ATOM     16  C   UNL d   1      50.315  33.924  53.271  0.00  0.00     0.013 A 
ATOM     17 CL   UNL d   1      49.684  34.985  52.552  0.00  0.00    -0.082 Cl
ATOM     18  C   UNL d   1      50.948  33.411  53.369  0.00  0.00     0.026 A 
ENDBRANCH  11  12
ENDBRANCH  10  11
ENDBRANCH   2  10
TORSDOF 3
ENDMDL
MODEL 8
REMARK VINA RESULT:      -5.7     10.092     11.016
REMARK  3 active torsions:
REMARK  status: ('A' for Active; 'I' for Inactive)
REMARK    1  A    between atoms: C_6  and  C_2 
REMARK    2  A    between atoms: O_7  and  C_6 
REMARK    3  A    between atoms: C_8  and  O_7 
ROOT
ATOM      1  N   UNL d   1      44.658  30.437  58.327  0.00  0.00    -0.224 NA
ATOM      2  C   UNL d   1      44.868  29.974  58.976  0.00  0.00     0.188 A 
ATOM      3  N   UNL d   1      45.060  29.202  58.685  0.00  0.00    -0.224 NA
ATOM      4  C   UNL d   1      44.719  29.956  57.639  0.00  0.00     0.101 A 
ATOM      5  C   UNL d   1      44.965  29.199  57.859  0.00  0.00     0.101 A 
ATOM      6  C   UNL d   1      44.576  30.129  56.845  0.00  0.00     0.021 A 
ATOM      7  C   UNL d   1      45.069  28.616  57.283  0.00  0.00     0.021 A 
ATOM      8  C   UNL d   1      44.682  29.563  56.324  0.00  0.00     0.002 A 
ATOM      9  C   UNL d   1      44.928  28.805  56.544  0.00  0.00     0.002 A 
ENDROOT
BRANCH   2  10
ATOM     10  C   UNL d   1      44.765  30.546  59.528  0.00  0.00     0.161 C 
BRANCH  10  11
ATOM     11  O   UNL d   1      44.790  30.349  60.326  0.00  0.00    -0.302 OA
BRANCH  11  12
ATOM     12  C   UNL d   1      44.672  30.551  61.117  0.00  0.00     0.100 A 
ATOM     13  C   UNL d   1      44.795  29.990  61.709  0.00  0.00     0.026 A 
ATOM     14  C   UNL d   1      44.678  30.190  62.496  0.00  0.00     0.013 A 
ATOM     15  C   UNL d   1      44.437  30.955  62.700  0.00  0.00     0.058 A 
ATOM     16  C   UNL d   1      44.314  31.518  62.103  0.00  0.00     0.013 A 
ATOM     17 CL   UNL d   1      44.320  31.155  63.486  0.00  0.00    -0.082 Cl
ATOM     18  C   UNL d   1      44.431  31.317  61.317  0.00  0.00     0.026 A 
ENDBRANCH  11  12
ENDBRANCH  10  11
ENDBRANCH   2  10
TORSDOF 3
ENDMDL
MODEL 9
REMARK VINA RESULT:      -5.6     10.068     10.683
REMARK  3 active torsions:
REMARK  status: ('A' for Active; 'I' for Inactive)
REMARK    1  A    between atoms: C_6  and  C_2 
REMARK    2  A    between atoms: O_7  and  C_6 
REMARK    3  A    between atoms: C_8  and  O_7 
ROOT
ATOM      1  N   UNL d   1      44.680  30.105  61.158  0.00  0.00    -0.224 NA
ATOM      2  C   UNL d   1      44.719  30.711  60.601  0.00  0.00     0.188 A 
ATOM      3  N   UNL d   1      44.615  31.444  61.013  0.00  0.00    -0.224 NA
ATOM      4  C   UNL d   1      44.552  30.460  61.911  0.00  0.00     0.101 A 
ATOM      5  C   UNL d   1      44.512  31.280  61.822  0.00  0.00     0.101 A 
ATOM      6  C   UNL d   1      44.469  30.122  62.659  0.00  0.00     0.021 A 
ATOM      7  C   UNL d   1      44.389  31.760  62.482  0.00  0.00     0.021 A 
ATOM      8  C   UNL d   1      44.354  30.596  63.263  0.00  0.00     0.002 A 
ATOM      9  C   UNL d   1      44.314  31.417  63.174  0.00  0.00     0.002 A 
ENDROOT
BRANCH   2  10
ATOM     10  C   UNL d   1      44.839  30.236  59.966  0.00  0.00     0.161 C 
BRANCH  10  11
ATOM     11  O   UNL d   1      44.797  30.555  59.208  0.00  0.00    -0.302 OA
BRANCH  11  12
ATOM     12  C   UNL d   1      44.762  30.453  58.390  0.00  0.00     0.100 A 
ATOM     13  C   UNL d   1      44.767  29.694  58.067  0.00  0.00     0.026 A 
ATOM     14  C   UNL d   1      44.732  29.593  57.254  0.00  0.00     0.013 A 
ATOM     15  C   UNL d   1      44.692  30.250  56.754  0.00  0.00     0.058 A 
ATOM     16  C   UNL d   1      44.688  31.013  57.080  0.00  0.00     0.013 A 
ATOM     17 CL   UNL d   1      44.657  30.150  55.941  0.00  0.00    -0.082 Cl
ATOM     18  C   UNL d   1      44.722  31.114  57.893  0.00  0.00     0.026 A 
ENDBRANCH  11  12
ENDBRANCH  10  11
ENDBRANCH   2  10
TORSDOF 3
ENDMDL
