MODEL 1
REMARK VINA RESULT:      -7.4      0.000      0.000
REMARK  4 active torsions:
REMARK  status: ('A' for Active; 'I' for Inactive)
REMARK    1  A    between atoms: C_9  and  C_2 
REMARK    2  A    between atoms: S_8  and  C_4 
REMARK       I    between atoms: N_6  and  C_7 
REMARK    3  A    between atoms: C_7  and  C_10 
REMARK    4  A    between atoms: C_10  and  S_8 
ROOT
ATOM      1  N   UNL d   1      51.650  33.275  53.316  0.00  0.00    -0.212 NA
ATOM      2  C   UNL d   1      52.442  33.133  53.183  0.00  0.00     0.171 A 
ATOM      3  N   UNL d   1      52.793  33.838  52.939  0.00  0.00    -0.188 NA
ATOM      4  C   UNL d   1      51.494  34.067  53.159  0.00  0.00     0.160 A 
ATOM      5  S   UNL d   1      52.207  34.416  52.924  0.00  0.00     0.041 SA
ENDROOT
BRANCH   4   6
ATOM      6  S   UNL d   1      50.766  34.451  53.221  0.00  0.00    -0.054 SA
BRANCH   6   7
ATOM      7  C   UNL d   1      50.240  34.433  52.596  0.00  0.00     0.098 C 
BRANCH   7   8
ATOM      8  C   UNL d   1      49.511  34.822  52.646  0.00  0.00     0.272 C 
ATOM      9  N   UNL d   1      48.984  34.828  52.012  0.00  0.00    -0.267 N 
ATOM     10  C   UNL d   1      48.267  35.220  52.083  0.00  0.00     0.110 A 
ATOM     11  C   UNL d   1      49.186  34.437  51.314  0.00  0.00     0.110 A 
ATOM     12  C   UNL d   1      47.740  35.222  51.441  0.00  0.00     0.142 A 
ATOM     13  O   UNL d   1      47.930  34.837  50.741  0.00  0.00    -0.300 OA
ATOM     14  C   UNL d   1      48.658  34.440  50.672  0.00  0.00     0.142 A 
ATOM     15  O   UNL d   1      49.310  35.215  53.352  0.00  0.00    -0.266 OA
ENDBRANCH   7   8
ENDBRANCH   6   7
ENDBRANCH   4   6
BRANCH   2  16
ATOM     16  C   UNL d   1      52.834  32.412  53.273  0.00  0.00     0.036 A 
ATOM     17  C   UNL d   1      53.496  32.366  53.742  0.00  0.00     0.003 A 
ATOM     18  C   UNL d   1      53.895  31.659  53.840  0.00  0.00     0.000 A 
ATOM     19  C   UNL d   1      53.618  30.980  53.456  0.00  0.00     0.000 A 
ATOM     20  C   UNL d   1      52.950  31.018  52.982  0.00  0.00     0.000 A 
ATOM     21  C   UNL d   1      52.561  31.727  52.890  0.00  0.00     0.003 A 
ENDBRANCH   2  16
TORSDOF 4
ENDMDL
MODEL 2
REMARK VINA RESULT:      -7.2      2.401      4.938
REMARK  4 active torsions:
REMARK  status: ('A' for Active; 'I' for Inactive)
REMARK    1  A    between atoms: C_9  and  C_2 
REMARK    2  A    between atoms: S_8  and  C_4 
REMARK       I    between atoms: N_6  and  C_7 
REMARK    3  A    between atoms: C_7  and  C_10 
REMARK    4  A    between atoms: C_10  and  S_8 
ROOT
ATOM      1  N   UNL d   1      51.864  33.497  53.097  0.00  0.00    -0.212 NA
ATOM      2  C   UNL d   1      51.568  34.212  52.839  0.00  0.00     0.171 A 
ATOM      3  N   UNL d   1      52.162  34.779  52.913  0.00  0.00    -0.188 NA
ATOM      4  C   UNL d   1      52.645  33.606  53.335  0.00  0.00     0.160 A 
ATOM      5  S   UNL d   1      52.829  34.404  53.219  0.00  0.00     0.041 SA
ENDROOT
BRANCH   4   6
ATOM      6  S   UNL d   1      53.156  33.031  53.634  0.00  0.00    -0.054 SA
BRANCH   6   7
ATOM      7  C   UNL d   1      53.090  32.256  53.384  0.00  0.00     0.098 C 
BRANCH   7   8
ATOM      8  C   UNL d   1      53.464  31.645  53.800  0.00  0.00     0.272 C 
ATOM      9  N   UNL d   1      53.275  30.854  53.662  0.00  0.00    -0.267 N 
ATOM     10  C   UNL d   1      53.657  30.265  54.085  0.00  0.00     0.110 A 
ATOM     11  C   UNL d   1      52.701  30.667  53.099  0.00  0.00     0.110 A 
ATOM     12  C   UNL d   1      53.463  29.470  53.942  0.00  0.00     0.142 A 
ATOM     13  O   UNL d   1      52.894  29.272  53.384  0.00  0.00    -0.300 OA
ATOM     14  C   UNL d   1      52.507  29.872  52.956  0.00  0.00     0.142 A 
ATOM     15  O   UNL d   1      54.043  31.836  54.367  0.00  0.00    -0.266 OA
ENDBRANCH   7   8
ENDBRANCH   6   7
ENDBRANCH   4   6
BRANCH   2  16
ATOM     16  C   UNL d   1      50.807  34.354  52.552  0.00  0.00     0.036 A 
ATOM     17  C   UNL d   1      50.235  34.651  53.048  0.00  0.00     0.003 A 
ATOM     18  C   UNL d   1      49.478  34.796  52.778  0.00  0.00     0.000 A 
ATOM     19  C   UNL d   1      49.291  34.638  51.987  0.00  0.00     0.000 A 
ATOM     20  C   UNL d   1      49.862  34.338  51.481  0.00  0.00     0.000 A 
ATOM     21  C   UNL d   1      50.613  34.197  51.760  0.00  0.00     0.003 A 
ENDBRANCH   2  16
TORSDOF 4
ENDMDL
MODEL 3
REMARK VINA RESULT:      -7.1      0.971      1.427
REMARK  4 active torsions:
REMARK  status: ('A' for Active; 'I' for Inactive)
REMARK    1  A    between atoms: C_9  and  C_2 
REMARK    2  A    between atoms: S_8  and  C_4 
REMARK       I    between atoms: N_6  and  C_7 
REMARK    3  A    between atoms: C_7  and  C_10 
REMARK    4  A    between atoms: C_10  and  S_8 
ROOT
ATOM      1  N   UNL d   1      51.689  33.402  53.058  0.00  0.00    -0.212 NA
ATOM      2  C   UNL d   1      52.407  33.625  53.375  0.00  0.00     0.171 A 
ATOM      3  N   UNL d   1      52.492  34.439  53.277  0.00  0.00    -0.188 NA
ATOM      4  C   UNL d   1      51.316  34.071  52.758  0.00  0.00     0.160 A 
ATOM      5  S   UNL d   1      51.816  34.716  52.895  0.00  0.00     0.041 SA
ENDROOT
BRANCH   4   6
ATOM      6  S   UNL d   1      50.579  34.103  52.388  0.00  0.00    -0.054 SA
BRANCH   6   7
ATOM      7  C   UNL d   1      50.004  34.611  52.665  0.00  0.00     0.098 C 
BRANCH   7   8
ATOM      8  C   UNL d   1      49.328  34.771  52.214  0.00  0.00     0.272 C 
ATOM      9  N   UNL d   1      48.727  35.259  52.500  0.00  0.00    -0.267 N 
ATOM     10  C   UNL d   1      48.067  35.404  52.036  0.00  0.00     0.110 A 
ATOM     11  C   UNL d   1      48.801  35.596  53.249  0.00  0.00     0.110 A 
ATOM     12  C   UNL d   1      47.465  35.897  52.329  0.00  0.00     0.142 A 
ATOM     13  O   UNL d   1      47.527  36.237  53.073  0.00  0.00    -0.300 OA
ATOM     14  C   UNL d   1      48.199  36.089  53.541  0.00  0.00     0.142 A 
ATOM     15  O   UNL d   1      49.255  34.430  51.458  0.00  0.00    -0.266 OA
ENDBRANCH   7   8
ENDBRANCH   6   7
ENDBRANCH   4   6
BRANCH   2  16
ATOM     16  C   UNL d   1      52.961  33.128  53.735  0.00  0.00     0.036 A 
ATOM     17  C   UNL d   1      53.316  33.352  54.431  0.00  0.00     0.003 A 
ATOM     18  C   UNL d   1      53.865  32.871  54.798  0.00  0.00     0.000 A 
ATOM     19  C   UNL d   1      54.062  32.145  54.454  0.00  0.00     0.000 A 
ATOM     20  C   UNL d   1      53.709  31.911  53.752  0.00  0.00     0.000 A 
ATOM     21  C   UNL d   1      53.163  32.397  53.395  0.00  0.00     0.003 A 
ENDBRANCH   2  16
TORSDOF 4
ENDMDL
MODEL 4
REMARK VINA RESULT:      -6.4      2.110      5.219
REMARK  4 active torsions:
REMARK  status: ('A' for Active; 'I' for Inactive)
REMARK    1  A    between atoms: C_9  and  C_2 
REMARK    2  A    between atoms: S_8  and  C_4 
REMARK       I    between atoms: N_6  and  C_7 
REMARK    3  A    between atoms: C_7  and  C_10 
REMARK    4  A    between atoms: C_10  and  S_8 
ROOT
ATOM      1  N   UNL d   1      50.392  34.042  53.057  0.00  0.00    -0.212 NA
ATOM      2  C   UNL d   1      50.066  34.498  52.465  0.00  0.00     0.171 A 
ATOM      3  N   UNL d   1      50.584  34.498  51.823  0.00  0.00    -0.188 NA
ATOM      4  C   UNL d   1      51.116  33.750  52.796  0.00  0.00     0.160 A 
ATOM      5  S   UNL d   1      51.234  34.035  52.028  0.00  0.00     0.041 SA
ENDROOT
BRANCH   4   6
ATOM      6  S   UNL d   1      51.634  33.264  53.215  0.00  0.00    -0.054 SA
BRANCH   6   7
ATOM      7  C   UNL d   1      52.284  33.586  53.590  0.00  0.00     0.098 C 
BRANCH   7   8
ATOM      8  C   UNL d   1      52.873  33.099  53.908  0.00  0.00     0.272 C 
ATOM      9  N   UNL d   1      53.469  33.405  54.390  0.00  0.00    -0.267 N 
ATOM     10  C   UNL d   1      54.042  32.904  54.695  0.00  0.00     0.110 A 
ATOM     11  C   UNL d   1      53.478  34.212  54.560  0.00  0.00     0.110 A 
ATOM     12  C   UNL d   1      54.639  33.217  55.180  0.00  0.00     0.142 A 
ATOM     13  O   UNL d   1      54.659  34.018  55.355  0.00  0.00    -0.300 OA
ATOM     14  C   UNL d   1      54.076  34.525  55.045  0.00  0.00     0.142 A 
ATOM     15  O   UNL d   1      52.862  32.284  53.736  0.00  0.00    -0.266 OA
ENDBRANCH   7   8
ENDBRANCH   6   7
ENDBRANCH   4   6
BRANCH   2  16
ATOM     16  C   UNL d   1      49.343  34.896  52.492  0.00  0.00     0.036 A 
ATOM     17  C   UNL d   1      48.831  34.852  51.863  0.00  0.00     0.003 A 
ATOM     18  C   UNL d   1      48.112  35.241  51.876  0.00  0.00     0.000 A 
ATOM     19  C   UNL d   1      47.903  35.685  52.542  0.00  0.00     0.000 A 
ATOM     20  C   UNL d   1      48.414  35.735  53.182  0.00  0.00     0.000 A 
ATOM     21  C   UNL d   1      49.127  35.344  53.158  0.00  0.00     0.003 A 
ENDBRANCH   2  16
TORSDOF 4
ENDMDL
MODEL 5
REMARK VINA RESULT:      -4.7     10.487     10.970
REMARK  4 active torsions:
REMARK  status: ('A' for Active; 'I' for Inactive)
REMARK    1  A    between atoms: C_9  and  C_2 
REMARK    2  A    between atoms: S_8  and  C_4 
REMARK       I    between atoms: N_6  and  C_7 
REMARK    3  A    between atoms: C_7  and  C_10 
REMARK    4  A    between atoms: C_10  and  S_8 
ROOT
ATOM      1  N   UNL d   1      44.541  27.802  58.477  0.00  0.00    -0.212 NA
ATOM      2  C   UNL d   1      44.879  27.216  58.021  0.00  0.00     0.171 A 
ATOM      3  N   UNL d   1      45.416  27.568  57.504  0.00  0.00    -0.188 NA
ATOM      4  C   UNL d   1      44.860  28.527  58.252  0.00  0.00     0.160 A 
ATOM      5  S   UNL d   1      45.405  28.379  57.647  0.00  0.00     0.041 SA
ENDROOT
BRANCH   4   6
ATOM      6  S   UNL d   1      44.677  29.267  58.567  0.00  0.00    -0.054 SA
BRANCH   6   7
ATOM      7  C   UNL d   1      44.763  29.403  59.367  0.00  0.00     0.098 C 
BRANCH   7   8
ATOM      8  C   UNL d   1      44.627  30.156  59.685  0.00  0.00     0.272 C 
ATOM      9  N   UNL d   1      44.614  30.281  60.500  0.00  0.00    -0.267 N 
ATOM     10  C   UNL d   1      44.479  31.035  60.793  0.00  0.00     0.110 A 
ATOM     11  C   UNL d   1      44.739  29.645  61.010  0.00  0.00     0.110 A 
ATOM     12  C   UNL d   1      44.467  31.156  61.614  0.00  0.00     0.142 A 
ATOM     13  O   UNL d   1      44.589  30.531  62.132  0.00  0.00    -0.300 OA
ATOM     14  C   UNL d   1      44.727  29.766  61.832  0.00  0.00     0.142 A 
ATOM     15  O   UNL d   1      44.502  30.797  59.168  0.00  0.00    -0.266 OA
ENDBRANCH   7   8
ENDBRANCH   6   7
ENDBRANCH   4   6
BRANCH   2  16
ATOM     16  C   UNL d   1      44.718  26.407  58.063  0.00  0.00     0.036 A 
ATOM     17  C   UNL d   1      44.788  26.015  58.772  0.00  0.00     0.003 A 
ATOM     18  C   UNL d   1      44.632  25.215  58.828  0.00  0.00     0.000 A 
ATOM     19  C   UNL d   1      44.400  24.798  58.152  0.00  0.00     0.000 A 
ATOM     20  C   UNL d   1      44.327  25.186  57.433  0.00  0.00     0.000 A 
ATOM     21  C   UNL d   1      44.485  25.982  57.388  0.00  0.00     0.003 A 
ENDBRANCH   2  16
TORSDOF 4
ENDMDL
MODEL 6
REMARK VINA RESULT:      -4.7      9.863     10.249
REMARK  4 active torsions:
REMARK  status: ('A' for Active; 'I' for Inactive)
REMARK    1  A    between atoms: C_9  and  C_2 
REMARK    2  A    between atoms: S_8  and  C_4 
REMARK       I    between atoms: N_6  and  C_7 
REMARK    3  A    between atoms: C_7  and  C_10 
REMARK    4  A    between atoms: C_10  and  S_8 
ROOT
ATOM      1  N   UNL d   1      44.969  27.400  58.497  0.00  0.00    -0.212 NA
ATOM      2  C   UNL d   1      44.632  26.710  58.772  0.00  0.00     0.171 A 
ATOM      3  N   UNL d   1      44.314  26.856  59.519  0.00  0.00    -0.188 NA
ATOM      4  C   UNL d   1      44.868  27.986  59.066  0.00  0.00     0.160 A 
ATOM      5  S   UNL d   1      44.461  27.647  59.701  0.00  0.00     0.041 SA
ENDROOT
BRANCH   4   6
ATOM      6  S   UNL d   1      45.123  28.769  59.019  0.00  0.00    -0.054 SA
BRANCH   6   7
ATOM      7  C   UNL d   1      44.932  29.223  58.367  0.00  0.00     0.098 C 
BRANCH   7   8
ATOM      8  C   UNL d   1      45.054  30.042  58.373  0.00  0.00     0.272 C 
ATOM      9  N   UNL d   1      44.861  30.509  57.720  0.00  0.00    -0.267 N 
ATOM     10  C   UNL d   1      44.989  31.318  57.747  0.00  0.00     0.110 A 
ATOM     11  C   UNL d   1      44.540  30.153  57.048  0.00  0.00     0.110 A 
ATOM     12  C   UNL d   1      44.793  31.783  57.087  0.00  0.00     0.142 A 
ATOM     13  O   UNL d   1      44.474  31.440  56.413  0.00  0.00    -0.300 OA
ATOM     14  C   UNL d   1      44.344  30.618  56.388  0.00  0.00     0.142 A 
ATOM     15  O   UNL d   1      45.377  30.400  59.052  0.00  0.00    -0.266 OA
ENDBRANCH   7   8
ENDBRANCH   6   7
ENDBRANCH   4   6
BRANCH   2  16
ATOM     16  C   UNL d   1      44.607  25.985  58.378  0.00  0.00     0.036 A 
ATOM     17  C   UNL d   1      44.611  25.291  58.803  0.00  0.00     0.003 A 
ATOM     18  C   UNL d   1      44.587  24.566  58.427  0.00  0.00     0.000 A 
ATOM     19  C   UNL d   1      44.557  24.539  57.600  0.00  0.00     0.000 A 
ATOM     20  C   UNL d   1      44.553  25.233  57.164  0.00  0.00     0.000 A 
ATOM     21  C   UNL d   1      44.577  25.950  57.548  0.00  0.00     0.003 A 
ENDBRANCH   2  16
TORSDOF 4
ENDMDL
MODEL 7
REMARK VINA RESULT:      -4.5      9.669     10.160
REMARK  4 active torsions:
REMARK  status: ('A' for Active; 'I' for Inactive)
REMARK    1  A    between atoms: C_9  and  C_2 
REMARK    2  A    between atoms: S_8  and  C_4 
REMARK       I    between atoms: N_6  and  C_7 
REMARK    3  A    between atoms: C_7  and  C_10 
REMARK    4  A    between atoms: C_10  and  S_8 
ROOT
ATOM      1  N   UNL d   1      44.678  26.827  56.326  0.00  0.00    -0.212 NA
ATOM      2  C   UNL d   1      44.913  26.109  56.633  0.00  0.00     0.171 A 
ATOM      3  N   UNL d   1      45.389  26.252  57.291  0.00  0.00    -0.188 NA
ATOM      4  C   UNL d   1      45.001  27.428  56.786  0.00  0.00     0.160 A 
ATOM      5  S   UNL d   1      45.443  27.068  57.386  0.00  0.00     0.041 SA
ENDROOT
BRANCH   4   6
ATOM      6  S   UNL d   1      44.907  28.240  56.676  0.00  0.00    -0.054 SA
BRANCH   6   7
ATOM      7  C   UNL d   1      44.951  28.747  57.315  0.00  0.00     0.098 C 
BRANCH   7   8
ATOM      8  C   UNL d   1      44.822  29.559  57.220  0.00  0.00     0.272 C 
ATOM      9  N   UNL d   1      44.854  30.076  57.862  0.00  0.00    -0.267 N 
ATOM     10  C   UNL d   1      44.723  30.877  57.745  0.00  0.00     0.110 A 
ATOM     11  C   UNL d   1      45.019  29.779  58.614  0.00  0.00     0.110 A 
ATOM     12  C   UNL d   1      44.757  31.394  58.395  0.00  0.00     0.142 A 
ATOM     13  O   UNL d   1      44.920  31.110  59.148  0.00  0.00    -0.300 OA
ATOM     14  C   UNL d   1      45.053  30.296  59.264  0.00  0.00     0.142 A 
ATOM     15  O   UNL d   1      44.656  29.856  56.461  0.00  0.00    -0.266 OA
ENDBRANCH   7   8
ENDBRANCH   6   7
ENDBRANCH   4   6
BRANCH   2  16
ATOM     16  C   UNL d   1      44.715  25.362  56.342  0.00  0.00     0.036 A 
ATOM     17  C   UNL d   1      44.590  24.745  56.856  0.00  0.00     0.003 A 
ATOM     18  C   UNL d   1      44.394  24.001  56.583  0.00  0.00     0.000 A 
ATOM     19  C   UNL d   1      44.322  23.873  55.768  0.00  0.00     0.000 A 
ATOM     20  C   UNL d   1      44.446  24.490  55.242  0.00  0.00     0.000 A 
ATOM     21  C   UNL d   1      44.641  25.227  55.525  0.00  0.00     0.003 A 
ENDBRANCH   2  16
TORSDOF 4
ENDMDL
