MODEL 1
REMARK VINA RESULT:      32.0      0.000      0.000
REMARK  5 active torsions:
REMARK  status: ('A' for Active; 'I' for Inactive)
REMARK       I    between atoms: N_2  and  C_1 
REMARK       I    between atoms: N_4  and  C_1 
REMARK    1  A    between atoms: C_8  and  N_2 
REMARK    2  A    between atoms: C_3  and  C_5 
REMARK    3  A    between atoms: O_11  and  C_3 
REMARK    4  A    between atoms: C_14  and  N_4 
REMARK    5  A    between atoms: C_15  and  N_4 
ROOT
ATOM      1  C   UNL d   1     -52.313  24.547  33.533  0.00  0.00     0.063 A 
ATOM      2  C   UNL d   1     -51.127  25.691  33.455  0.00  0.00     0.086 A 
ATOM      3  C   UNL d   1     -51.527  24.339  33.682  0.00  0.00     0.007 A 
ATOM      4  C   UNL d   1     -52.507  25.319  33.345  0.00  0.00     0.007 A 
ATOM      5  C   UNL d   1     -50.934  24.918  33.642  0.00  0.00     0.019 A 
ATOM      6  C   UNL d   1     -51.915  25.893  33.306  0.00  0.00     0.019 A 
ENDROOT
BRANCH   2   7
ATOM      7  N   UNL d   1     -50.541  26.263  33.415  0.00  0.00    -0.192 NA
ATOM      8  C   UNL d   1     -50.756  27.061  33.386  0.00  0.00     0.354 C 
ATOM      9  N   UNL d   1     -50.179  27.639  33.347  0.00  0.00    -0.256 N 
ATOM     10  O   UNL d   1     -51.557  27.278  33.398  0.00  0.00    -0.244 OA
BRANCH   9  11
ATOM     11  C   UNL d   1     -49.381  27.418  33.335  0.00  0.00     0.085 C 
ATOM     12  C   UNL d   1     -48.846  27.773  33.855  0.00  0.00     0.021 C 
ENDBRANCH   9  11
BRANCH   9  13
ATOM     13  C   UNL d   1     -50.400  28.436  33.318  0.00  0.00     0.085 C 
ATOM     14  C   UNL d   1     -49.957  28.994  33.736  0.00  0.00     0.021 C 
ENDBRANCH   9  13
ENDBRANCH   2   7
BRANCH   1  15
ATOM     15  C   UNL d   1     -52.903  23.982  33.570  0.00  0.00     0.296 C 
ATOM     16  O   UNL d   1     -52.722  23.188  33.477  0.00  0.00    -0.259 OA
BRANCH  15  17
ATOM     17  O   UNL d   1     -53.684  24.214  33.704  0.00  0.00    -0.296 OA
ATOM     18  C   UNL d   1     -54.295  23.780  33.374  0.00  0.00     0.185 C 
ENDBRANCH  15  17
ENDBRANCH   1  15
TORSDOF 5
ENDMDL
