MODEL 1
REMARK VINA RESULT:      -3.4      0.000      0.000
REMARK  8 active torsions:
REMARK  status: ('A' for Active; 'I' for Inactive)
REMARK    1  A    between atoms: C_2  and  S_1 
REMARK    2  A    between atoms: N_11  and  S_1 
REMARK    3  A    between atoms: C_10  and  C_3 
REMARK    4  A    between atoms: N_6  and  C_18 
REMARK    5  A    between atoms: C_20  and  N_11 
REMARK    6  A    between atoms: O_17  and  C_12 
REMARK    7  A    between atoms: C_18  and  C_19 
REMARK    8  A    between atoms: C_19  and  C_20 
ROOT
ATOM      1  C   UNL d   1     -42.132-122.901 -50.353  0.00  0.00     0.105 A 
ATOM      2  C   UNL d   1     -42.012-123.189 -48.959  0.00  0.00     0.000 A 
ATOM      3  C   UNL d   1     -41.689-122.891 -49.656  0.00  0.00     0.011 A 
ATOM      4  C   UNL d   1     -42.779-123.496 -48.959  0.00  0.00     0.090 A 
ATOM      5  C   UNL d   1     -42.902-123.209 -50.355  0.00  0.00     0.015 A 
ATOM      6  C   UNL d   1     -43.226-123.507 -49.658  0.00  0.00     0.025 A 
ENDROOT
BRANCH   1   7
ATOM      7  S   UNL d   1     -41.809-122.603 -51.050  0.00  0.00     0.285 S 
ATOM      8  O   UNL d   1     -41.682-123.371 -51.320  0.00  0.00    -0.198 OA
ATOM      9  O   UNL d   1     -41.935-121.835 -50.781  0.00  0.00    -0.198 OA
BRANCH   7  10
ATOM     10  N   UNL d   1     -41.484-122.304 -51.750  0.00  0.00    -0.157 NA
BRANCH  10  11
ATOM     11  C   UNL d   1     -41.641-122.682 -52.472  0.00  0.00     0.114 C 
BRANCH  11  12
ATOM     12  C   UNL d   1     -41.461-122.302 -53.181  0.00  0.00     0.041 C 
BRANCH  12  13
ATOM     13  C   UNL d   1     -41.426-122.727 -53.888  0.00  0.00     0.083 C 
BRANCH  13  14
ATOM     14  N   UNL d   1     -41.754-122.419 -54.578  0.00  0.00    -0.285 N 
ATOM     15  C   UNL d   1     -41.433-121.810 -55.031  0.00  0.00     0.183 A 
ATOM     16  N   UNL d   1     -41.943-121.681 -55.670  0.00  0.00    -0.222 NA
ATOM     17  C   UNL d   1     -42.572-122.210 -55.608  0.00  0.00     0.120 A 
ATOM     18  C   UNL d   1     -42.453-122.667 -54.929  0.00  0.00     0.102 A 
ENDBRANCH  13  14
ENDBRANCH  12  13
ENDBRANCH  11  12
ENDBRANCH  10  11
ENDBRANCH   7  10
ENDBRANCH   1   7
BRANCH   2  19
ATOM     19  C   UNL d   1     -41.573-123.180 -48.264  0.00  0.00     0.021 C 
ATOM     20  C   UNL d   1     -41.136-123.168 -47.570  0.00  0.00     0.004 C 
ATOM     21  C   UNL d   1     -41.130-123.817 -48.536  0.00  0.00     0.004 C 
ATOM     22  C   UNL d   1     -42.013-122.539 -47.985  0.00  0.00     0.004 C 
ENDBRANCH   2  19
BRANCH   4  23
ATOM     23  O   UNL d   1     -43.103-123.794 -48.261  0.00  0.00    -0.328 OA
ATOM     24  C   UNL d   1     -43.923-123.817 -48.165  0.00  0.00     0.181 C 
ENDBRANCH   4  23
TORSDOF 8
ENDMDL
MODEL 2
REMARK VINA RESULT:      -2.7      1.643      5.493
REMARK  8 active torsions:
REMARK  status: ('A' for Active; 'I' for Inactive)
REMARK    1  A    between atoms: C_2  and  S_1 
REMARK    2  A    between atoms: N_11  and  S_1 
REMARK    3  A    between atoms: C_10  and  C_3 
REMARK    4  A    between atoms: N_6  and  C_18 
REMARK    5  A    between atoms: C_20  and  N_11 
REMARK    6  A    between atoms: O_17  and  C_12 
REMARK    7  A    between atoms: C_18  and  C_19 
REMARK    8  A    between atoms: C_19  and  C_20 
ROOT
ATOM      1  C   UNL d   1     -41.513-122.678 -52.551  0.00  0.00     0.105 A 
ATOM      2  C   UNL d   1     -41.811-122.273 -53.887  0.00  0.00     0.000 A 
ATOM      3  C   UNL d   1     -41.840-122.131 -53.076  0.00  0.00     0.011 A 
ATOM      4  C   UNL d   1     -41.455-122.961 -54.173  0.00  0.00     0.090 A 
ATOM      5  C   UNL d   1     -41.155-123.370 -52.836  0.00  0.00     0.015 A 
ATOM      6  C   UNL d   1     -41.126-123.511 -53.647  0.00  0.00     0.025 A 
ENDROOT
BRANCH   1   7
ATOM      7  S   UNL d   1     -41.542-122.537 -51.739  0.00  0.00     0.285 S 
ATOM      8  O   UNL d   1     -41.862-123.287 -51.620  0.00  0.00    -0.198 OA
ATOM      9  O   UNL d   1     -41.223-121.787 -51.859  0.00  0.00    -0.198 OA
BRANCH   7  10
ATOM     10  N   UNL d   1     -41.572-122.395 -50.924  0.00  0.00    -0.157 NA
BRANCH  10  11
ATOM     11  C   UNL d   1     -42.267-122.559 -50.502  0.00  0.00     0.114 C 
BRANCH  11  12
ATOM     12  C   UNL d   1     -42.285-122.451 -49.686  0.00  0.00     0.041 C 
BRANCH  12  13
ATOM     13  C   UNL d   1     -42.804-122.888 -49.215  0.00  0.00     0.083 C 
BRANCH  13  14
ATOM     14  N   UNL d   1     -42.593-123.108 -48.450  0.00  0.00    -0.285 N 
ATOM     15  C   UNL d   1     -42.948-123.704 -48.007  0.00  0.00     0.183 A 
ATOM     16  N   UNL d   1     -42.562-123.733 -47.275  0.00  0.00    -0.222 NA
ATOM     17  C   UNL d   1     -41.974-123.156 -47.272  0.00  0.00     0.120 A 
ATOM     18  C   UNL d   1     -41.995-122.768 -48.002  0.00  0.00     0.102 A 
ENDBRANCH  13  14
ENDBRANCH  12  13
ENDBRANCH  11  12
ENDBRANCH  10  11
ENDBRANCH   7  10
ENDBRANCH   1   7
BRANCH   2  19
ATOM     19  C   UNL d   1     -42.136-121.729 -54.412  0.00  0.00     0.021 C 
ATOM     20  C   UNL d   1     -42.463-121.189 -54.936  0.00  0.00     0.004 C 
ATOM     21  C   UNL d   1     -41.508-121.217 -54.271  0.00  0.00     0.004 C 
ATOM     22  C   UNL d   1     -42.770-122.238 -54.559  0.00  0.00     0.004 C 
ENDBRANCH   2  19
BRANCH   4  23
ATOM     23  O   UNL d   1     -41.425-123.102 -54.985  0.00  0.00    -0.328 OA
ATOM     24  C   UNL d   1     -41.123-123.817 -55.268  0.00  0.00     0.181 C 
ENDBRANCH   4  23
TORSDOF 8
ENDMDL
