MODEL 1
REMARK VINA RESULT:      -7.3      0.000      0.000
REMARK  4 active torsions:
REMARK  status: ('A' for Active; 'I' for Inactive)
REMARK    1  A    between atoms: C_11  and  C_4 
REMARK    2  A    between atoms: N_10  and  C_7 
REMARK    3  A    between atoms: C_14  and  N_10 
REMARK    4  A    between atoms: C_21  and  C_14 
ROOT
ATOM      1  C   UNL d   1     -47.502  12.406  22.960  0.00  0.00     0.186 A 
ATOM      2  N   UNL d   1     -47.850  11.738  23.311  0.00  0.00    -0.193 N 
ATOM      3  N   UNL d   1     -47.993  12.995  22.624  0.00  0.00    -0.206 NA
ATOM      4  C   UNL d   1     -46.685  12.334  23.024  0.00  0.00     0.140 A 
ATOM      5  N   UNL d   1     -47.237  11.254  23.594  0.00  0.00    -0.058 NA
ATOM      6  N   UNL d   1     -46.514  11.620  23.417  0.00  0.00    -0.127 NA
ATOM      7  C   UNL d   1     -48.816  12.915  22.642  0.00  0.00     0.166 A 
ATOM      8  C   UNL d   1     -49.151  12.244  22.997  0.00  0.00     0.054 A 
ATOM      9  C   UNL d   1     -48.670  11.661  23.328  0.00  0.00     0.089 A 
ATOM     10  C   UNL d   1     -49.970  12.166  23.014  0.00  0.00     0.005 A 
ATOM     11  C   UNL d   1     -49.015  10.996  23.679  0.00  0.00     0.019 A 
ATOM     12  C   UNL d   1     -50.312  11.503  23.363  0.00  0.00     0.000 A 
ATOM     13  C   UNL d   1     -49.835  10.919  23.695  0.00  0.00     0.002 A 
ENDROOT
BRANCH   7  14
ATOM     14  N   UNL d   1     -49.301  13.495  22.312  0.00  0.00    -0.225 NA
BRANCH  14  15
ATOM     15  C   UNL d   1     -49.115  14.287  22.419  0.00  0.00     0.101 C 
BRANCH  15  16
ATOM     16  C   UNL d   1     -49.704  14.828  22.621  0.00  0.00     0.019 A 
ATOM     17  C   UNL d   1     -49.585  15.363  23.238  0.00  0.00     0.002 A 
ATOM     18  C   UNL d   1     -50.174  15.904  23.441  0.00  0.00     0.000 A 
ATOM     19  C   UNL d   1     -50.887  15.906  23.020  0.00  0.00     0.000 A 
ATOM     20  C   UNL d   1     -51.006  15.367  22.399  0.00  0.00     0.000 A 
ATOM     21  C   UNL d   1     -50.410  14.831  22.206  0.00  0.00     0.002 A 
ENDBRANCH  15  16
ENDBRANCH  14  15
ENDBRANCH   7  14
BRANCH   4  22
ATOM     22  C   UNL d   1     -46.134  12.873  22.748  0.00  0.00     0.023 A 
ATOM     23  C   UNL d   1     -45.623  12.657  22.139  0.00  0.00     0.004 A 
ATOM     24  C   UNL d   1     -45.063  13.203  21.856  0.00  0.00     0.030 A 
ATOM     25  C   UNL d   1     -45.022  13.952  22.185  0.00  0.00     0.140 A 
ATOM     26  C   UNL d   1     -45.541  14.161  22.800  0.00  0.00     0.030 A 
ATOM     27  F   UNL d   1     -44.471  14.492  21.909  0.00  0.00    -0.204 F 
ATOM     28  C   UNL d   1     -46.092  13.622  23.076  0.00  0.00     0.004 A 
ENDBRANCH   4  22
TORSDOF 4
ENDMDL
MODEL 2
REMARK VINA RESULT:      -7.0      5.936      8.694
REMARK  4 active torsions:
REMARK  status: ('A' for Active; 'I' for Inactive)
REMARK    1  A    between atoms: C_11  and  C_4 
REMARK    2  A    between atoms: N_10  and  C_7 
REMARK    3  A    between atoms: C_14  and  N_10 
REMARK    4  A    between atoms: C_21  and  C_14 
ROOT
ATOM      1  C   UNL d   1     -39.688  14.644  19.855  0.00  0.00     0.186 A 
ATOM      2  N   UNL d   1     -38.993  14.606  20.309  0.00  0.00    -0.193 N 
ATOM      3  N   UNL d   1     -40.409  14.379  20.188  0.00  0.00    -0.206 NA
ATOM      4  C   UNL d   1     -39.498  14.959  19.119  0.00  0.00     0.140 A 
ATOM      5  N   UNL d   1     -38.372  14.903  19.844  0.00  0.00    -0.058 NA
ATOM      6  N   UNL d   1     -38.682  15.122  19.106  0.00  0.00    -0.127 NA
ATOM      7  C   UNL d   1     -40.431  14.082  20.960  0.00  0.00     0.166 A 
ATOM      8  C   UNL d   1     -39.730  14.050  21.402  0.00  0.00     0.054 A 
ATOM      9  C   UNL d   1     -39.017  14.311  21.078  0.00  0.00     0.089 A 
ATOM     10  C   UNL d   1     -39.753  13.755  22.170  0.00  0.00     0.005 A 
ATOM     11  C   UNL d   1     -38.325  14.274  21.528  0.00  0.00     0.019 A 
ATOM     12  C   UNL d   1     -39.063  13.719  22.618  0.00  0.00     0.000 A 
ATOM     13  C   UNL d   1     -38.349  13.979  22.297  0.00  0.00     0.002 A 
ENDROOT
BRANCH   7  14
ATOM     14  N   UNL d   1     -41.141  13.820  21.289  0.00  0.00    -0.225 NA
BRANCH  14  15
ATOM     15  C   UNL d   1     -41.755  13.591  20.795  0.00  0.00     0.101 C 
BRANCH  15  16
ATOM     16  C   UNL d   1     -42.454  13.292  21.115  0.00  0.00     0.019 A 
ATOM     17  C   UNL d   1     -42.475  12.530  21.431  0.00  0.00     0.002 A 
ATOM     18  C   UNL d   1     -43.174  12.231  21.751  0.00  0.00     0.000 A 
ATOM     19  C   UNL d   1     -43.856  12.701  21.752  0.00  0.00     0.000 A 
ATOM     20  C   UNL d   1     -43.834  13.468  21.434  0.00  0.00     0.000 A 
ATOM     21  C   UNL d   1     -43.130  13.756  21.117  0.00  0.00     0.002 A 
ENDBRANCH  15  16
ENDBRANCH  14  15
ENDBRANCH   7  14
BRANCH   4  22
ATOM     22  C   UNL d   1     -40.024  15.090  18.505  0.00  0.00     0.023 A 
ATOM     23  C   UNL d   1     -40.126  14.512  17.927  0.00  0.00     0.004 A 
ATOM     24  C   UNL d   1     -40.659  14.643  17.303  0.00  0.00     0.030 A 
ATOM     25  C   UNL d   1     -41.080  15.344  17.265  0.00  0.00     0.140 A 
ATOM     26  C   UNL d   1     -40.970  15.922  17.853  0.00  0.00     0.030 A 
ATOM     27  F   UNL d   1     -41.606  15.475  16.651  0.00  0.00    -0.204 F 
ATOM     28  C   UNL d   1     -40.445  15.791  18.467  0.00  0.00     0.004 A 
ENDBRANCH   4  22
TORSDOF 4
ENDMDL
MODEL 3
REMARK VINA RESULT:      -6.4      2.392      5.080
REMARK  4 active torsions:
REMARK  status: ('A' for Active; 'I' for Inactive)
REMARK    1  A    between atoms: C_11  and  C_4 
REMARK    2  A    between atoms: N_10  and  C_7 
REMARK    3  A    between atoms: C_14  and  N_10 
REMARK    4  A    between atoms: C_21  and  C_14 
ROOT
ATOM      1  C   UNL d   1     -45.729  12.192  23.012  0.00  0.00     0.186 A 
ATOM      2  N   UNL d   1     -45.704  11.441  23.367  0.00  0.00    -0.193 N 
ATOM      3  N   UNL d   1     -45.044  12.487  22.633  0.00  0.00    -0.206 NA
ATOM      4  C   UNL d   1     -46.482  12.504  23.121  0.00  0.00     0.140 A 
ATOM      5  N   UNL d   1     -46.453  11.294  23.696  0.00  0.00    -0.058 NA
ATOM      6  N   UNL d   1     -46.937  11.950  23.546  0.00  0.00    -0.127 NA
ATOM      7  C   UNL d   1     -44.349  12.038  22.610  0.00  0.00     0.166 A 
ATOM      8  C   UNL d   1     -44.339  11.289  22.969  0.00  0.00     0.054 A 
ATOM      9  C   UNL d   1     -45.012  10.995  23.344  0.00  0.00     0.089 A 
ATOM     10  C   UNL d   1     -43.648  10.844  22.946  0.00  0.00     0.005 A 
ATOM     11  C   UNL d   1     -44.990  10.248  23.697  0.00  0.00     0.019 A 
ATOM     12  C   UNL d   1     -43.626  10.100  23.298  0.00  0.00     0.000 A 
ATOM     13  C   UNL d   1     -44.298   9.802  23.674  0.00  0.00     0.002 A 
ENDROOT
BRANCH   7  14
ATOM     14  N   UNL d   1     -43.674  12.328  22.236  0.00  0.00    -0.225 NA
BRANCH  14  15
ATOM     15  C   UNL d   1     -43.752  12.842  21.602  0.00  0.00     0.101 C 
BRANCH  15  16
ATOM     16  C   UNL d   1     -43.096  13.257  21.321  0.00  0.00     0.019 A 
ATOM     17  C   UNL d   1     -42.474  12.856  20.957  0.00  0.00     0.002 A 
ATOM     18  C   UNL d   1     -41.818  13.271  20.676  0.00  0.00     0.000 A 
ATOM     19  C   UNL d   1     -41.789  14.094  20.763  0.00  0.00     0.000 A 
ATOM     20  C   UNL d   1     -42.416  14.496  21.129  0.00  0.00     0.000 A 
ATOM     21  C   UNL d   1     -43.066  14.072  21.406  0.00  0.00     0.002 A 
ENDBRANCH  15  16
ENDBRANCH  14  15
ENDBRANCH   7  14
BRANCH   4  22
ATOM     22  C   UNL d   1     -46.740  13.235  22.856  0.00  0.00     0.023 A 
ATOM     23  C   UNL d   1     -47.213  13.280  22.184  0.00  0.00     0.004 A 
ATOM     24  C   UNL d   1     -47.476  14.021  21.913  0.00  0.00     0.030 A 
ATOM     25  C   UNL d   1     -47.264  14.702  22.316  0.00  0.00     0.140 A 
ATOM     26  C   UNL d   1     -46.786  14.646  22.994  0.00  0.00     0.030 A 
ATOM     27  F   UNL d   1     -47.521  15.433  22.051  0.00  0.00    -0.204 F 
ATOM     28  C   UNL d   1     -46.528  13.915  23.259  0.00  0.00     0.004 A 
ENDBRANCH   4  22
TORSDOF 4
ENDMDL
MODEL 4
REMARK VINA RESULT:      -6.0      2.018      5.019
REMARK  4 active torsions:
REMARK  status: ('A' for Active; 'I' for Inactive)
REMARK    1  A    between atoms: C_11  and  C_4 
REMARK    2  A    between atoms: N_10  and  C_7 
REMARK    3  A    between atoms: C_14  and  N_10 
REMARK    4  A    between atoms: C_21  and  C_14 
ROOT
ATOM      1  C   UNL d   1     -48.283  13.522  22.701  0.00  0.00     0.186 A 
ATOM      2  N   UNL d   1     -48.019  14.251  22.402  0.00  0.00    -0.193 N 
ATOM      3  N   UNL d   1     -47.725  12.985  23.019  0.00  0.00    -0.206 NA
ATOM      4  C   UNL d   1     -49.100  13.487  22.612  0.00  0.00     0.140 A 
ATOM      5  N   UNL d   1     -48.684  14.666  22.126  0.00  0.00    -0.058 NA
ATOM      6  N   UNL d   1     -49.355  14.195  22.255  0.00  0.00    -0.127 NA
ATOM      7  C   UNL d   1     -46.920  13.176  23.036  0.00  0.00     0.166 A 
ATOM      8  C   UNL d   1     -46.670  13.908  22.733  0.00  0.00     0.054 A 
ATOM      9  C   UNL d   1     -47.217  14.440  22.419  0.00  0.00     0.089 A 
ATOM     10  C   UNL d   1     -45.870  14.096  22.750  0.00  0.00     0.005 A 
ATOM     11  C   UNL d   1     -46.957  15.165  22.120  0.00  0.00     0.019 A 
ATOM     12  C   UNL d   1     -45.612  14.819  22.453  0.00  0.00     0.000 A 
ATOM     13  C   UNL d   1     -46.155  15.354  22.138  0.00  0.00     0.002 A 
ENDROOT
BRANCH   7  14
ATOM     14  N   UNL d   1     -46.370  12.647  23.349  0.00  0.00    -0.225 NA
BRANCH  14  15
ATOM     15  C   UNL d   1     -46.530  11.843  23.337  0.00  0.00     0.101 C 
BRANCH  15  16
ATOM     16  C   UNL d   1     -45.915  11.297  23.403  0.00  0.00     0.019 A 
ATOM     17  C   UNL d   1     -45.135  11.528  23.266  0.00  0.00     0.002 A 
ATOM     18  C   UNL d   1     -44.520  10.982  23.332  0.00  0.00     0.000 A 
ATOM     19  C   UNL d   1     -44.692  10.198  23.538  0.00  0.00     0.000 A 
ATOM     20  C   UNL d   1     -45.477   9.967  23.677  0.00  0.00     0.000 A 
ATOM     21  C   UNL d   1     -46.083  10.521  23.608  0.00  0.00     0.002 A 
ENDBRANCH  15  16
ENDBRANCH  14  15
ENDBRANCH   7  14
BRANCH   4  22
ATOM     22  C   UNL d   1     -49.579  12.862  22.836  0.00  0.00     0.023 A 
ATOM     23  C   UNL d   1     -50.098  12.955  23.468  0.00  0.00     0.004 A 
ATOM     24  C   UNL d   1     -50.586  12.322  23.698  0.00  0.00     0.030 A 
ATOM     25  C   UNL d   1     -50.548  11.610  23.295  0.00  0.00     0.140 A 
ATOM     26  C   UNL d   1     -50.020  11.526  22.658  0.00  0.00     0.030 A 
ATOM     27  F   UNL d   1     -51.027  10.985  23.519  0.00  0.00    -0.204 F 
ATOM     28  C   UNL d   1     -49.541  12.151  22.434  0.00  0.00     0.004 A 
ENDBRANCH   4  22
TORSDOF 4
ENDMDL
MODEL 5
REMARK VINA RESULT:      -5.9      6.381      9.090
REMARK  4 active torsions:
REMARK  status: ('A' for Active; 'I' for Inactive)
REMARK    1  A    between atoms: C_11  and  C_4 
REMARK    2  A    between atoms: N_10  and  C_7 
REMARK    3  A    between atoms: C_14  and  N_10 
REMARK    4  A    between atoms: C_21  and  C_14 
ROOT
ATOM      1  C   UNL d   1     -39.174  15.048  20.036  0.00  0.00     0.186 A 
ATOM      2  N   UNL d   1     -39.074  15.217  19.228  0.00  0.00    -0.193 N 
ATOM      3  N   UNL d   1     -39.858  14.634  20.285  0.00  0.00    -0.206 NA
ATOM      4  C   UNL d   1     -38.527  15.349  20.445  0.00  0.00     0.140 A 
ATOM      5  N   UNL d   1     -38.356  15.626  19.145  0.00  0.00    -0.058 NA
ATOM      6  N   UNL d   1     -38.015  15.710  19.897  0.00  0.00    -0.127 NA
ATOM      7  C   UNL d   1     -40.428  14.396  19.734  0.00  0.00     0.166 A 
ATOM      8  C   UNL d   1     -40.315  14.572  18.931  0.00  0.00     0.054 A 
ATOM      9  C   UNL d   1     -39.642  14.979  18.682  0.00  0.00     0.089 A 
ATOM     10  C   UNL d   1     -40.883  14.334  18.385  0.00  0.00     0.005 A 
ATOM     11  C   UNL d   1     -39.540  15.149  17.879  0.00  0.00     0.019 A 
ATOM     12  C   UNL d   1     -40.780  14.503  17.586  0.00  0.00     0.000 A 
ATOM     13  C   UNL d   1     -40.109  14.910  17.333  0.00  0.00     0.002 A 
ENDROOT
BRANCH   7  14
ATOM     14  N   UNL d   1     -41.103  13.988  19.979  0.00  0.00    -0.225 NA
BRANCH  14  15
ATOM     15  C   UNL d   1     -41.369  14.073  20.749  0.00  0.00     0.101 C 
BRANCH  15  16
ATOM     16  C   UNL d   1     -42.045  13.672  21.001  0.00  0.00     0.019 A 
ATOM     17  C   UNL d   1     -42.006  12.873  21.200  0.00  0.00     0.002 A 
ATOM     18  C   UNL d   1     -42.682  12.472  21.451  0.00  0.00     0.000 A 
ATOM     19  C   UNL d   1     -43.402  12.878  21.503  0.00  0.00     0.000 A 
ATOM     20  C   UNL d   1     -43.440  13.683  21.302  0.00  0.00     0.000 A 
ATOM     21  C   UNL d   1     -42.759  14.073  21.052  0.00  0.00     0.002 A 
ENDBRANCH  15  16
ENDBRANCH  14  15
ENDBRANCH   7  14
BRANCH   4  22
ATOM     22  C   UNL d   1     -38.408  15.301  21.254  0.00  0.00     0.023 A 
ATOM     23  C   UNL d   1     -38.061  14.626  21.574  0.00  0.00     0.004 A 
ATOM     24  C   UNL d   1     -37.940  14.575  22.395  0.00  0.00     0.030 A 
ATOM     25  C   UNL d   1     -38.165  15.195  22.881  0.00  0.00     0.140 A 
ATOM     26  C   UNL d   1     -38.515  15.872  22.548  0.00  0.00     0.030 A 
ATOM     27  F   UNL d   1     -38.047  15.147  23.690  0.00  0.00    -0.204 F 
ATOM     28  C   UNL d   1     -38.634  15.920  21.739  0.00  0.00     0.004 A 
ENDBRANCH   4  22
TORSDOF 4
ENDMDL
MODEL 6
REMARK VINA RESULT:      -4.9      1.618      3.463
REMARK  4 active torsions:
REMARK  status: ('A' for Active; 'I' for Inactive)
REMARK    1  A    between atoms: C_11  and  C_4 
REMARK    2  A    between atoms: N_10  and  C_7 
REMARK    3  A    between atoms: C_14  and  N_10 
REMARK    4  A    between atoms: C_21  and  C_14 
ROOT
ATOM      1  C   UNL d   1     -47.406  12.422  22.691  0.00  0.00     0.186 A 
ATOM      2  N   UNL d   1     -46.597  12.252  22.614  0.00  0.00    -0.193 N 
ATOM      3  N   UNL d   1     -47.660  13.220  22.674  0.00  0.00    -0.206 NA
ATOM      4  C   UNL d   1     -47.812  11.711  22.773  0.00  0.00     0.140 A 
ATOM      5  N   UNL d   1     -46.508  11.427  22.650  0.00  0.00    -0.058 NA
ATOM      6  N   UNL d   1     -47.260  11.089  22.748  0.00  0.00    -0.127 NA
ATOM      7  C   UNL d   1     -47.112  13.833  22.582  0.00  0.00     0.166 A 
ATOM      8  C   UNL d   1     -46.307  13.649  22.507  0.00  0.00     0.054 A 
ATOM      9  C   UNL d   1     -46.053  12.864  22.523  0.00  0.00     0.089 A 
ATOM     10  C   UNL d   1     -45.763  14.260  22.416  0.00  0.00     0.005 A 
ATOM     11  C   UNL d   1     -45.248  12.693  22.447  0.00  0.00     0.019 A 
ATOM     12  C   UNL d   1     -44.961  14.088  22.340  0.00  0.00     0.000 A 
ATOM     13  C   UNL d   1     -44.703  13.305  22.356  0.00  0.00     0.002 A 
ENDROOT
BRANCH   7  14
ATOM     14  N   UNL d   1     -47.362  14.619  22.565  0.00  0.00    -0.225 NA
BRANCH  14  15
ATOM     15  C   UNL d   1     -47.873  14.894  23.145  0.00  0.00     0.101 C 
BRANCH  15  16
ATOM     16  C   UNL d   1     -48.625  15.163  22.940  0.00  0.00     0.019 A 
ATOM     17  C   UNL d   1     -48.800  15.358  22.158  0.00  0.00     0.002 A 
ATOM     18  C   UNL d   1     -49.552  15.627  21.953  0.00  0.00     0.000 A 
ATOM     19  C   UNL d   1     -50.133  15.700  22.540  0.00  0.00     0.000 A 
ATOM     20  C   UNL d   1     -49.956  15.503  23.327  0.00  0.00     0.000 A 
ATOM     21  C   UNL d   1     -49.201  15.235  23.520  0.00  0.00     0.002 A 
ENDBRANCH  15  16
ENDBRANCH  14  15
ENDBRANCH   7  14
BRANCH   4  22
ATOM     22  C   UNL d   1     -48.622  11.631  22.863  0.00  0.00     0.023 A 
ATOM     23  C   UNL d   1     -49.110  11.660  22.200  0.00  0.00     0.004 A 
ATOM     24  C   UNL d   1     -49.933  11.579  22.289  0.00  0.00     0.030 A 
ATOM     25  C   UNL d   1     -50.254  11.470  23.034  0.00  0.00     0.140 A 
ATOM     26  C   UNL d   1     -49.754  11.443  23.698  0.00  0.00     0.030 A 
ATOM     27  F   UNL d   1     -51.064  11.390  23.125  0.00  0.00    -0.204 F 
ATOM     28  C   UNL d   1     -48.944  11.523  23.607  0.00  0.00     0.004 A 
ENDBRANCH   4  22
TORSDOF 4
ENDMDL
MODEL 7
REMARK VINA RESULT:      -4.8      1.620      4.368
REMARK  4 active torsions:
REMARK  status: ('A' for Active; 'I' for Inactive)
REMARK    1  A    between atoms: C_11  and  C_4 
REMARK    2  A    between atoms: N_10  and  C_7 
REMARK    3  A    between atoms: C_14  and  N_10 
REMARK    4  A    between atoms: C_21  and  C_14 
ROOT
ATOM      1  C   UNL d   1     -47.615  12.559  22.959  0.00  0.00     0.186 A 
ATOM      2  N   UNL d   1     -47.661  11.775  23.228  0.00  0.00    -0.193 N 
ATOM      3  N   UNL d   1     -46.865  12.891  22.791  0.00  0.00    -0.206 NA
ATOM      4  C   UNL d   1     -48.379  12.861  22.912  0.00  0.00     0.140 A 
ATOM      5  N   UNL d   1     -48.464  11.596  23.347  0.00  0.00    -0.058 NA
ATOM      6  N   UNL d   1     -48.911  12.268  23.153  0.00  0.00    -0.127 NA
ATOM      7  C   UNL d   1     -46.176  12.444  22.893  0.00  0.00     0.166 A 
ATOM      8  C   UNL d   1     -46.237  11.661  23.162  0.00  0.00     0.054 A 
ATOM      9  C   UNL d   1     -46.974  11.331  23.328  0.00  0.00     0.089 A 
ATOM     10  C   UNL d   1     -45.551  11.218  23.262  0.00  0.00     0.005 A 
ATOM     11  C   UNL d   1     -47.023  10.551  23.596  0.00  0.00     0.019 A 
ATOM     12  C   UNL d   1     -45.600  10.440  23.530  0.00  0.00     0.000 A 
ATOM     13  C   UNL d   1     -46.336  10.107  23.697  0.00  0.00     0.002 A 
ENDROOT
BRANCH   7  14
ATOM     14  N   UNL d   1     -45.436  12.770  22.728  0.00  0.00    -0.225 NA
BRANCH  14  15
ATOM     15  C   UNL d   1     -45.262  13.011  21.964  0.00  0.00     0.101 C 
BRANCH  15  16
ATOM     16  C   UNL d   1     -44.481  13.160  21.744  0.00  0.00     0.019 A 
ATOM     17  C   UNL d   1     -43.982  12.538  21.531  0.00  0.00     0.002 A 
ATOM     18  C   UNL d   1     -43.201  12.686  21.311  0.00  0.00     0.000 A 
ATOM     19  C   UNL d   1     -42.920  13.465  21.306  0.00  0.00     0.000 A 
ATOM     20  C   UNL d   1     -43.422  14.090  21.522  0.00  0.00     0.000 A 
ATOM     21  C   UNL d   1     -44.201  13.930  21.739  0.00  0.00     0.002 A 
ENDBRANCH  15  16
ENDBRANCH  14  15
ENDBRANCH   7  14
BRANCH   4  22
ATOM     22  C   UNL d   1     -48.581  13.617  22.671  0.00  0.00     0.023 A 
ATOM     23  C   UNL d   1     -48.716  14.202  23.235  0.00  0.00     0.004 A 
ATOM     24  C   UNL d   1     -48.921  14.970  22.993  0.00  0.00     0.030 A 
ATOM     25  C   UNL d   1     -48.987  15.143  22.195  0.00  0.00     0.140 A 
ATOM     26  C   UNL d   1     -48.848  14.546  21.632  0.00  0.00     0.030 A 
ATOM     27  F   UNL d   1     -49.188  15.899  21.953  0.00  0.00    -0.204 F 
ATOM     28  C   UNL d   1     -48.647  13.790  21.874  0.00  0.00     0.004 A 
ENDBRANCH   4  22
TORSDOF 4
ENDMDL
