MODEL 1
REMARK VINA RESULT:      40.6      0.000      0.000
REMARK  3 active torsions:
REMARK  status: ('A' for Active; 'I' for Inactive)
REMARK    1  A    between atoms: C_4  and  C_1 
REMARK    2  A    between atoms: N_7  and  C_4 
REMARK    3  A    between atoms: C_9  and  N_7 
ROOT
ATOM      1  C   UNL d   1     -51.052  26.278  33.410  0.00  0.00     0.171 C 
ATOM      2  S   UNL d   1     -51.382  27.039  33.306  0.00  0.00    -0.054 SA
ENDROOT
BRANCH   1   3
ATOM      3  C   UNL d   1     -51.534  25.613  33.388  0.00  0.00     0.191 A 
ATOM      4  N   UNL d   1     -52.364  25.614  33.395  0.00  0.00    -0.223 NA
ATOM      5  C   UNL d   1     -52.617  24.827  33.367  0.00  0.00     0.101 A 
ATOM      6  C   UNL d   1     -53.375  24.495  33.361  0.00  0.00     0.021 A 
ATOM      7  C   UNL d   1     -51.947  24.342  33.343  0.00  0.00     0.101 A 
ATOM      8  C   UNL d   1     -53.453  23.674  33.330  0.00  0.00     0.002 A 
ATOM      9  C   UNL d   1     -52.783  23.189  33.306  0.00  0.00     0.002 A 
ATOM     10  C   UNL d   1     -52.034  23.524  33.313  0.00  0.00     0.021 A 
ATOM     11  N   UNL d   1     -51.285  24.833  33.357  0.00  0.00    -0.223 NA
ENDBRANCH   1   3
BRANCH   1  12
ATOM     12  N   UNL d   1     -50.239  26.204  33.533  0.00  0.00    -0.232 NA
BRANCH  12  13
ATOM     13  C   UNL d   1     -49.807  26.824  33.866  0.00  0.00     0.082 A 
ATOM     14  C   UNL d   1     -49.653  26.827  34.680  0.00  0.00     0.019 A 
ATOM     15  C   UNL d   1     -49.221  27.444  35.012  0.00  0.00     0.002 A 
ATOM     16  C   UNL d   1     -48.940  28.065  34.533  0.00  0.00     0.000 A 
ATOM     17  C   UNL d   1     -49.099  28.053  33.720  0.00  0.00     0.002 A 
ATOM     18  C   UNL d   1     -48.509  28.681  34.865  0.00  0.00     0.000 C 
ATOM     19  C   UNL d   1     -49.531  27.434  33.392  0.00  0.00     0.019 A 
ENDBRANCH  12  13
ENDBRANCH   1  12
TORSDOF 3
ENDMDL
