MODEL 1
REMARK VINA RESULT:      45.0      0.000      0.000
REMARK  6 active torsions:
REMARK  status: ('A' for Active; 'I' for Inactive)
REMARK       I    between atoms: C_6  and  N_1 
REMARK    1  A    between atoms: C_10  and  C_2 
REMARK    2  A    between atoms: O_16  and  C_8 
REMARK    3  A    between atoms: O_14  and  C_10 
REMARK    4  A    between atoms: O_17  and  C_11 
REMARK    5  A    between atoms: C_15  and  O_14 
REMARK    6  A    between atoms: C_24  and  C_18 
ROOT
ATOM      1  N   UNL d   1      14.128  12.438  -1.307  0.00  0.00    -0.271 N 
ATOM      2  C   UNL d   1      14.258  13.037  -1.859  0.00  0.00     0.092 A 
ATOM      3  C   UNL d   1      13.888  13.005  -2.588  0.00  0.00     0.020 A 
ATOM      4  C   UNL d   1      13.387  12.376  -2.773  0.00  0.00     0.005 A 
ATOM      5  C   UNL d   1      14.018  13.603  -3.135  0.00  0.00     0.028 A 
ATOM      6  C   UNL d   1      14.504  12.467  -0.562  0.00  0.00     0.265 C 
ATOM      7  C   UNL d   1      13.627  11.809  -1.492  0.00  0.00     0.083 A 
ATOM      8  C   UNL d   1      13.647  13.574  -3.872  0.00  0.00     0.116 A 
ATOM      9  C   UNL d   1      13.016  12.345  -3.505  0.00  0.00     0.026 A 
ATOM     10  C   UNL d   1      13.146  12.945  -4.057  0.00  0.00     0.116 A 
ATOM     11  C   UNL d   1      13.256  11.780  -2.229  0.00  0.00     0.019 A 
ATOM     12  O   UNL d   1      15.005  13.096  -0.377  0.00  0.00    -0.267 OA
ATOM     13  C   UNL d   1      14.372  11.870  -0.018  0.00  0.00     0.066 C 
ENDROOT
BRANCH   2  14
ATOM     14  C   UNL d   1      14.758  13.666  -1.675  0.00  0.00     0.140 C 
BRANCH  14  15
ATOM     15  O   UNL d   1      14.566  14.180  -1.058  0.00  0.00    -0.304 OA
BRANCH  15  16
ATOM     16  C   UNL d   1      14.895  14.936  -1.033  0.00  0.00     0.100 A 
ATOM     17  C   UNL d   1      15.576  15.075  -0.588  0.00  0.00     0.025 A 
ATOM     18  C   UNL d   1      15.905  15.831  -0.563  0.00  0.00     0.002 A 
ATOM     19  C   UNL d   1      15.553  16.449  -0.982  0.00  0.00     0.000 A 
ATOM     20  C   UNL d   1      14.872  16.310  -1.427  0.00  0.00     0.002 A 
ATOM     21  C   UNL d   1      14.543  15.553  -1.452  0.00  0.00     0.025 A 
BRANCH  19  22
ATOM     22  C   UNL d   1      15.883  17.205  -0.957  0.00  0.00     0.000 C 
ATOM     23  C   UNL d   1      15.455  17.830  -0.638  0.00  0.00     0.000 C 
ENDBRANCH  19  22
ENDBRANCH  15  16
ENDBRANCH  14  15
ENDBRANCH   2  14
BRANCH   8  24
ATOM     24  O   UNL d   1      13.779  14.180  -4.427  0.00  0.00    -0.326 OA
ATOM     25  C   UNL d   1      13.732  14.970  -4.194  0.00  0.00     0.181 C 
ENDBRANCH   8  24
BRANCH  10  26
ATOM     26  O   UNL d   1      12.769  12.911  -4.800  0.00  0.00    -0.326 OA
ATOM     27  C   UNL d   1      13.214  12.751  -5.477  0.00  0.00     0.181 C 
ENDBRANCH  10  26
TORSDOF 6
ENDMDL
