MODEL 1
REMARK VINA RESULT:      36.5      0.000      0.000
REMARK  5 active torsions:
REMARK  status: ('A' for Active; 'I' for Inactive)
REMARK    1  A    between atoms: N_6  and  C_1 
REMARK    2  A    between atoms: C_8  and  C_4 
REMARK       I    between atoms: C_7  and  N_6 
REMARK    3  A    between atoms: C_13  and  C_7 
REMARK    4  A    between atoms: O_14  and  C_8 
REMARK    5  A    between atoms: C_18  and  O_14 
ROOT
ATOM      1  C   UNL d   1      60.130  49.436  50.701  0.00  0.00     0.124 A 
ATOM      2  C   UNL d   1      59.952  49.555  51.506  0.00  0.00     0.093 A 
ATOM      3  S   UNL d   1      59.416  49.401  50.292  0.00  0.00    -0.062 SA
ATOM      4  C   UNL d   1      58.805  49.497  50.838  0.00  0.00     0.095 A 
ATOM      5  C   UNL d   1      59.131  49.592  51.583  0.00  0.00     0.023 A 
ATOM      6  C   UNL d   1      60.518  49.624  52.122  0.00  0.00     0.103 C 
ATOM      7  N   UNL d   1      61.062  49.692  52.729  0.00  0.00    -0.191 NA
ATOM      8  C   UNL d   1      58.715  49.705  52.292  0.00  0.00     0.001 C 
ENDROOT
BRANCH   1   9
ATOM      9  N   UNL d   1      60.884  49.366  50.380  0.00  0.00    -0.201 NA
ATOM     10  C   UNL d   1      61.244  48.623  50.341  0.00  0.00     0.280 C 
ATOM     11  O   UNL d   1      61.995  48.563  50.020  0.00  0.00    -0.265 OA
BRANCH  10  12
ATOM     12  C   UNL d   1      60.857  47.958  50.619  0.00  0.00     0.058 C 
ATOM     13  C   UNL d   1      60.769  47.300  50.132  0.00  0.00     0.005 C 
ATOM     14  C   UNL d   1      60.547  47.936  51.392  0.00  0.00     0.005 C 
ENDBRANCH  10  12
ENDBRANCH   1   9
BRANCH   4  15
ATOM     15  C   UNL d   1      58.002  49.498  50.663  0.00  0.00     0.306 C 
ATOM     16  O   UNL d   1      57.440  49.314  51.253  0.00  0.00    -0.258 OA
BRANCH  15  17
ATOM     17  O   UNL d   1      57.729  49.680  49.898  0.00  0.00    -0.271 OA
BRANCH  17  18
ATOM     18  C   UNL d   1      57.013  49.266  49.845  0.00  0.00     0.126 C 
ATOM     19  C   UNL d   1      56.343  49.638  49.539  0.00  0.00     0.029 C 
ENDBRANCH  17  18
ENDBRANCH  15  17
ENDBRANCH   4  15
TORSDOF 5
ENDMDL
MODEL 2
REMARK VINA RESULT:      36.8      1.724      3.381
REMARK  5 active torsions:
REMARK  status: ('A' for Active; 'I' for Inactive)
REMARK    1  A    between atoms: N_6  and  C_1 
REMARK    2  A    between atoms: C_8  and  C_4 
REMARK       I    between atoms: C_7  and  N_6 
REMARK    3  A    between atoms: C_13  and  C_7 
REMARK    4  A    between atoms: O_14  and  C_8 
REMARK    5  A    between atoms: C_18  and  O_14 
ROOT
ATOM      1  C   UNL d   1      57.763  49.689  50.905  0.00  0.00     0.124 A 
ATOM      2  C   UNL d   1      57.996  49.681  51.705  0.00  0.00     0.093 A 
ATOM      3  S   UNL d   1      58.448  49.680  50.448  0.00  0.00    -0.062 SA
ATOM      4  C   UNL d   1      59.095  49.666  50.959  0.00  0.00     0.095 A 
ATOM      5  C   UNL d   1      58.821  49.666  51.731  0.00  0.00     0.023 A 
ATOM      6  C   UNL d   1      57.473  49.686  52.362  0.00  0.00     0.103 C 
ATOM      7  N   UNL d   1      56.971  49.691  53.008  0.00  0.00    -0.191 NA
ATOM      8  C   UNL d   1      59.285  49.654  52.418  0.00  0.00     0.001 C 
ENDROOT
BRANCH   1   9
ATOM      9  N   UNL d   1      56.988  49.704  50.629  0.00  0.00    -0.201 NA
ATOM     10  C   UNL d   1      56.820  49.429  49.868  0.00  0.00     0.280 C 
ATOM     11  O   UNL d   1      56.046  49.447  49.602  0.00  0.00    -0.265 OA
BRANCH  10  12
ATOM     12  C   UNL d   1      57.418  49.141  49.389  0.00  0.00     0.058 C 
ATOM     13  C   UNL d   1      58.000  49.652  49.108  0.00  0.00     0.005 C 
ATOM     14  C   UNL d   1      57.447  48.336  49.179  0.00  0.00     0.005 C 
ENDBRANCH  10  12
ENDBRANCH   1   9
BRANCH   4  15
ATOM     15  C   UNL d   1      59.885  49.653  50.732  0.00  0.00     0.306 C 
ATOM     16  O   UNL d   1      60.092  49.652  49.922  0.00  0.00    -0.258 OA
BRANCH  15  17
ATOM     17  O   UNL d   1      60.496  49.641  51.297  0.00  0.00    -0.271 OA
BRANCH  17  18
ATOM     18  C   UNL d   1      61.169  49.463  50.850  0.00  0.00     0.126 C 
ATOM     19  C   UNL d   1      61.107  48.980  50.184  0.00  0.00     0.029 C 
ENDBRANCH  17  18
ENDBRANCH  15  17
ENDBRANCH   4  15
TORSDOF 5
ENDMDL
MODEL 3
REMARK VINA RESULT:      37.4      0.955      1.506
REMARK  5 active torsions:
REMARK  status: ('A' for Active; 'I' for Inactive)
REMARK    1  A    between atoms: N_6  and  C_1 
REMARK    2  A    between atoms: C_8  and  C_4 
REMARK       I    between atoms: C_7  and  N_6 
REMARK    3  A    between atoms: C_13  and  C_7 
REMARK    4  A    between atoms: O_14  and  C_8 
REMARK    5  A    between atoms: C_18  and  O_14 
ROOT
ATOM      1  C   UNL d   1      59.817  49.638  51.435  0.00  0.00     0.124 A 
ATOM      2  C   UNL d   1      59.821  49.669  50.602  0.00  0.00     0.093 A 
ATOM      3  S   UNL d   1      59.031  49.628  51.679  0.00  0.00    -0.062 SA
ATOM      4  C   UNL d   1      58.555  49.653  51.006  0.00  0.00     0.095 A 
ATOM      5  C   UNL d   1      59.037  49.678  50.344  0.00  0.00     0.023 A 
ATOM      6  C   UNL d   1      60.508  49.687  50.121  0.00  0.00     0.103 C 
ATOM      7  N   UNL d   1      61.173  49.706  49.644  0.00  0.00    -0.191 NA
ATOM      8  C   UNL d   1      58.786  49.708  49.553  0.00  0.00     0.001 C 
ENDROOT
BRANCH   1   9
ATOM      9  N   UNL d   1      60.482  49.620  51.919  0.00  0.00    -0.201 NA
ATOM     10  C   UNL d   1      60.897  48.912  52.016  0.00  0.00     0.280 C 
ATOM     11  O   UNL d   1      61.558  48.903  52.499  0.00  0.00    -0.265 OA
BRANCH  10  12
ATOM     12  C   UNL d   1      60.651  48.230  51.635  0.00  0.00     0.058 C 
ATOM     13  C   UNL d   1      60.941  48.051  50.886  0.00  0.00     0.005 C 
ATOM     14  C   UNL d   1      60.109  47.712  51.997  0.00  0.00     0.005 C 
ENDBRANCH  10  12
ENDBRANCH   1   9
BRANCH   4  15
ATOM     15  C   UNL d   1      57.733  49.653  51.000  0.00  0.00     0.306 C 
ATOM     16  O   UNL d   1      57.305  49.604  51.716  0.00  0.00    -0.258 OA
BRANCH  15  17
ATOM     17  O   UNL d   1      57.307  49.702  50.286  0.00  0.00    -0.271 OA
BRANCH  17  18
ATOM     18  C   UNL d   1      56.752  49.090  50.350  0.00  0.00     0.126 C 
ATOM     19  C   UNL d   1      56.245  48.926  49.721  0.00  0.00     0.029 C 
ENDBRANCH  17  18
ENDBRANCH  15  17
ENDBRANCH   4  15
TORSDOF 5
ENDMDL
