MODEL 1
REMARK VINA RESULT:       9.3      0.000      0.000
REMARK  4 active torsions:
REMARK  status: ('A' for Active; 'I' for Inactive)
REMARK    1  A    between atoms: S_7  and  C_2 
REMARK    2  A    between atoms: C_20  and  S_7 
REMARK    3  A    between atoms: C_10  and  C_20 
REMARK       I    between atoms: N_12  and  C_10 
REMARK    4  A    between atoms: C_15  and  N_12 
ROOT
ATOM      1  C   UNL d   1      45.766 -16.466  44.320  0.00  0.00     0.286 C 
ATOM      2  N   UNL d   1      45.810 -15.939  44.954  0.00  0.00    -0.207 NA
ATOM      3  O   UNL d   1      45.507 -16.206  43.586  0.00  0.00    -0.265 OA
ENDROOT
BRANCH   1   4
ATOM      4  C   UNL d   1      45.984 -17.247  44.442  0.00  0.00     0.101 C 
BRANCH   4   5
ATOM      5  S   UNL d   1      46.314 -17.677  43.824  0.00  0.00    -0.041 SA
BRANCH   5   6
ATOM      6  C   UNL d   1      46.385 -18.496  43.882  0.00  0.00     0.220 A 
ATOM      7  N   UNL d   1      46.480 -18.952  43.202  0.00  0.00    -0.148 N 
ATOM      8  C   UNL d   1      46.552 -19.778  43.249  0.00  0.00     0.305 A 
ATOM      9  N   UNL d   1      46.505 -18.590  42.462  0.00  0.00    -0.037 N 
ATOM     10  C   UNL d   1      46.526 -20.133  44.000  0.00  0.00     0.185 A 
ATOM     11  O   UNL d   1      46.647 -20.230  42.575  0.00  0.00    -0.263 OA
ATOM     12  N   UNL d   1      46.431 -19.677  44.680  0.00  0.00    -0.139 NA
ATOM     13  N   UNL d   1      46.360 -18.860  44.619  0.00  0.00    -0.121 NA
ENDBRANCH   5   6
ENDBRANCH   4   5
ENDBRANCH   1   4
BRANCH   2  14
ATOM     14  C   UNL d   1      45.593 -15.147  44.845  0.00  0.00     0.087 A 
ATOM     15  C   UNL d   1      46.174 -14.581  44.688  0.00  0.00     0.045 A 
ATOM     16  C   UNL d   1      45.959 -13.798  44.580  0.00  0.00     0.121 A 
ATOM     17  O   UNL d   1      46.401 -13.113  44.419  0.00  0.00    -0.299 OA
ATOM     18  C   UNL d   1      45.167 -13.573  44.627  0.00  0.00     0.119 A 
ATOM     19  C   UNL d   1      45.889 -12.475  44.366  0.00  0.00     0.304 A 
ATOM     20  O   UNL d   1      45.125 -12.758  44.495  0.00  0.00    -0.300 OA
ATOM     21  C   UNL d   1      44.587 -14.138  44.783  0.00  0.00     0.028 A 
ATOM     22  C   UNL d   1      44.801 -14.933  44.893  0.00  0.00     0.021 A 
ENDBRANCH   2  14
TORSDOF 4
ENDMDL
MODEL 2
REMARK VINA RESULT:      11.9      1.271      5.205
REMARK  4 active torsions:
REMARK  status: ('A' for Active; 'I' for Inactive)
REMARK    1  A    between atoms: S_7  and  C_2 
REMARK    2  A    between atoms: C_20  and  S_7 
REMARK    3  A    between atoms: C_10  and  C_20 
REMARK       I    between atoms: N_12  and  C_10 
REMARK    4  A    between atoms: C_15  and  N_12 
ROOT
ATOM      1  C   UNL d   1      45.883 -16.845  44.386  0.00  0.00     0.286 C 
ATOM      2  N   UNL d   1      46.497 -17.379  44.532  0.00  0.00    -0.207 NA
ATOM      3  O   UNL d   1      45.243 -17.070  43.925  0.00  0.00    -0.265 OA
ENDROOT
BRANCH   1   4
ATOM      4  C   UNL d   1      45.931 -16.094  44.711  0.00  0.00     0.101 C 
BRANCH   4   5
ATOM      5  S   UNL d   1      45.428 -15.503  44.441  0.00  0.00    -0.041 SA
BRANCH   5   6
ATOM      6  C   UNL d   1      45.649 -14.712  44.504  0.00  0.00     0.220 A 
ATOM      7  N   UNL d   1      45.172 -14.122  44.180  0.00  0.00    -0.148 N 
ATOM      8  C   UNL d   1      45.385 -13.322  44.238  0.00  0.00     0.305 A 
ATOM      9  N   UNL d   1      44.473 -14.323  43.793  0.00  0.00    -0.037 N 
ATOM     10  C   UNL d   1      46.092 -13.130  44.631  0.00  0.00     0.185 A 
ATOM     11  O   UNL d   1      44.913 -12.737  43.917  0.00  0.00    -0.263 OA
ATOM     12  N   UNL d   1      46.569 -13.720  44.955  0.00  0.00    -0.139 NA
ATOM     13  N   UNL d   1      46.345 -14.508  44.890  0.00  0.00    -0.121 NA
ENDBRANCH   5   6
ENDBRANCH   4   5
ENDBRANCH   1   4
BRANCH   2  14
ATOM     14  C   UNL d   1      46.462 -18.141  44.209  0.00  0.00     0.087 A 
ATOM     15  C   UNL d   1      46.520 -18.243  43.392  0.00  0.00     0.045 A 
ATOM     16  C   UNL d   1      46.486 -18.997  43.073  0.00  0.00     0.121 A 
ATOM     17  O   UNL d   1      46.527 -19.277  42.292  0.00  0.00    -0.299 OA
ATOM     18  C   UNL d   1      46.392 -19.653  43.564  0.00  0.00     0.119 A 
ATOM     19  C   UNL d   1      46.460 -20.094  42.300  0.00  0.00     0.304 A 
ATOM     20  O   UNL d   1      46.377 -20.328  43.087  0.00  0.00    -0.300 OA
ATOM     21  C   UNL d   1      46.334 -19.551  44.380  0.00  0.00     0.028 A 
ATOM     22  C   UNL d   1      46.368 -18.788  44.707  0.00  0.00     0.021 A 
ENDBRANCH   2  14
TORSDOF 4
ENDMDL
