MODEL 1
REMARK VINA RESULT:      79.5      0.000      0.000
REMARK  6 active torsions:
REMARK  status: ('A' for Active; 'I' for Inactive)
REMARK    1  A    between atoms: C_2  and  C_1 
REMARK    2  A    between atoms: C_6  and  C_1 
REMARK       I    between atoms: N_10  and  C_2 
REMARK    3  A    between atoms: C_14  and  C_3 
REMARK    4  A    between atoms: C_4  and  C_12 
REMARK    5  A    between atoms: C_7  and  C_6 
REMARK    6  A    between atoms: C_15  and  N_10 
ROOT
ATOM      1  C   UNL d   1     -55.232-101.427 -43.928  0.00  0.00     0.128 C 
ATOM      2  C   UNL d   1     -55.213-101.947 -44.561  0.00  0.00     0.106 C 
ATOM      3  N   UNL d   1     -55.178-102.479 -45.188  0.00  0.00    -0.191 NA
ENDROOT
BRANCH   1   4
ATOM      4  C   UNL d   1     -55.811-100.810 -43.939  0.00  0.00     0.289 C 
ATOM      5  N   UNL d   1     -56.193-100.609 -44.602  0.00  0.00    -0.207 NA
ATOM      6  O   UNL d   1     -55.978-100.400 -43.211  0.00  0.00    -0.264 OA
BRANCH   5   7
ATOM      7  C   UNL d   1     -56.762-100.000 -44.606  0.00  0.00     0.085 A 
ATOM      8  C   UNL d   1     -57.371 -99.995 -45.177  0.00  0.00     0.023 A 
ATOM      9  C   UNL d   1     -57.932 -99.405 -45.191  0.00  0.00     0.073 A 
ATOM     10  C   UNL d   1     -57.911 -98.785 -44.628  0.00  0.00     0.004 A 
ATOM     11  C   UNL d   1     -57.305 -98.785 -44.058  0.00  0.00     0.002 A 
ATOM     12  C   UNL d   1     -56.749 -99.388 -44.059  0.00  0.00     0.019 A 
BRANCH   9  13
ATOM     13  C   UNL d   1     -58.504 -99.435 -45.757  0.00  0.00     0.419 C 
ATOM     14  F   UNL d   1     -59.039 -99.492 -46.380  0.00  0.00    -0.166 F 
ATOM     15  F   UNL d   1     -59.350 -99.173 -45.592  0.00  0.00    -0.166 F 
ATOM     16  F   UNL d   1     -58.287 -99.700 -46.445  0.00  0.00    -0.166 F 
ENDBRANCH   9  13
ENDBRANCH   5   7
ENDBRANCH   1   4
BRANCH   1  17
ATOM     17  C   UNL d   1     -54.712-101.491 -43.295  0.00  0.00     0.040 C 
BRANCH  17  18
ATOM     18  C   UNL d   1     -54.951-101.887 -42.595  0.00  0.00     0.101 A 
ATOM     19  O   UNL d   1     -54.878-101.567 -41.827  0.00  0.00    -0.307 OA
ATOM     20  C   UNL d   1     -55.179-102.140 -41.309  0.00  0.00     0.100 A 
ATOM     21  C   UNL d   1     -55.432-102.803 -41.771  0.00  0.00     0.027 A 
ATOM     22  C   UNL d   1     -55.280-102.620 -42.561  0.00  0.00     0.027 A 
BRANCH  20  23
ATOM     23  C   UNL d   1     -55.257-102.147 -40.471  0.00  0.00     0.024 A 
ATOM     24  C   UNL d   1     -55.006-101.528 -39.981  0.00  0.00     0.013 A 
ATOM     25  C   UNL d   1     -55.097-101.563 -39.141  0.00  0.00     0.058 A 
ATOM     26 CL   UNL d   1     -54.826-100.909 -38.677  0.00  0.00    -0.082 Cl
ATOM     27  C   UNL d   1     -55.445-102.228 -38.806  0.00  0.00     0.011 A 
ATOM     28  C   UNL d   1     -55.698-102.843 -39.265  0.00  0.00     0.001 A 
ATOM     29  C   UNL d   1     -55.624-102.837 -40.066  0.00  0.00     0.002 A 
ENDBRANCH  20  23
ENDBRANCH  17  18
ENDBRANCH   1  17
TORSDOF 6
ENDMDL
