MODEL 1
REMARK VINA RESULT:      -3.7      0.000      0.000
REMARK  6 active torsions:
REMARK  status: ('A' for Active; 'I' for Inactive)
REMARK    1  A    between atoms: N_2  and  C_1 
REMARK    2  A    between atoms: N_3  and  C_1 
REMARK    3  A    between atoms: C_8  and  N_3 
REMARK    4  A    between atoms: C_5  and  O_7 
REMARK    5  A    between atoms: C_17  and  C_6 
REMARK    6  A    between atoms: O_7  and  C_9 
ROOT
ATOM      1  N   UNL d   1      58.548  -0.267  30.723  0.00  0.00    -0.219 NA
ENDROOT
BRANCH   1   2
ATOM      2  C   UNL d   1      58.543  -0.175  29.898  0.00  0.00     0.206 C 
ATOM      3  S   UNL d   1      58.042   0.382  29.555  0.00  0.00    -0.038 SA
BRANCH   2   4
ATOM      4  N   UNL d   1      59.041  -0.644  29.426  0.00  0.00    -0.282 N 
ATOM      5  C   UNL d   1      59.771  -0.356  29.190  0.00  0.00     0.066 A 
ATOM      6  C   UNL d   1      60.279  -0.806  28.723  0.00  0.00     0.018 A 
ATOM      7  C   UNL d   1      60.044  -1.572  28.484  0.00  0.00     0.003 A 
ATOM      8  C   UNL d   1      59.314  -1.847  28.727  0.00  0.00     0.019 A 
ATOM      9  C   UNL d   1      58.813  -1.389  29.195  0.00  0.00     0.082 A 
BRANCH   5  10
ATOM     10  C   UNL d   1      60.009   0.419  29.431  0.00  0.00     0.018 C 
ATOM     11  C   UNL d   1      60.763   0.669  29.281  0.00  0.00     0.002 C 
ENDBRANCH   5  10
ENDBRANCH   2   4
ENDBRANCH   1   2
BRANCH   1  12
ATOM     12  C   UNL d   1      57.860  -0.162  31.163  0.00  0.00     0.084 A 
ATOM     13  C   UNL d   1      57.348  -0.810  31.292  0.00  0.00     0.021 A 
ATOM     14  C   UNL d   1      56.671  -0.721  31.722  0.00  0.00     0.026 A 
ATOM     15  C   UNL d   1      56.470   0.034  32.049  0.00  0.00     0.105 A 
ATOM     16  C   UNL d   1      56.982   0.682  31.920  0.00  0.00     0.026 A 
ATOM     17  C   UNL d   1      57.670   0.577  31.480  0.00  0.00     0.021 A 
BRANCH  15  18
ATOM     18  O   UNL d   1      55.780   0.135  32.490  0.00  0.00    -0.260 OA
BRANCH  18  19
ATOM     19  C   UNL d   1      55.645  -0.325  33.170  0.00  0.00     0.391 C 
ATOM     20  F   UNL d   1      55.967  -0.102  33.896  0.00  0.00    -0.145 F 
ATOM     21  F   UNL d   1      55.180  -1.018  33.115  0.00  0.00    -0.145 F 
ENDBRANCH  18  19
ENDBRANCH  15  18
ENDBRANCH   1  12
TORSDOF 6
ENDMDL
MODEL 2
REMARK VINA RESULT:      -1.7      1.240      1.892
REMARK  6 active torsions:
REMARK  status: ('A' for Active; 'I' for Inactive)
REMARK    1  A    between atoms: N_2  and  C_1 
REMARK    2  A    between atoms: N_3  and  C_1 
REMARK    3  A    between atoms: C_8  and  N_3 
REMARK    4  A    between atoms: C_5  and  O_7 
REMARK    5  A    between atoms: C_17  and  C_6 
REMARK    6  A    between atoms: O_7  and  C_9 
ROOT
ATOM      1  N   UNL d   1      59.039  -1.200  29.892  0.00  0.00    -0.219 NA
ENDROOT
BRANCH   1   2
ATOM      2  C   UNL d   1      58.975  -1.420  29.094  0.00  0.00     0.206 C 
ATOM      3  S   UNL d   1      58.873  -0.837  28.520  0.00  0.00    -0.038 SA
BRANCH   2   4
ATOM      4  N   UNL d   1      59.015  -2.222  28.881  0.00  0.00    -0.282 N 
ATOM      5  C   UNL d   1      59.742  -2.568  28.724  0.00  0.00     0.066 A 
ATOM      6  C   UNL d   1      59.801  -3.362  28.511  0.00  0.00     0.018 A 
ATOM      7  C   UNL d   1      59.106  -3.823  28.455  0.00  0.00     0.003 A 
ATOM      8  C   UNL d   1      58.389  -3.466  28.615  0.00  0.00     0.019 A 
ATOM      9  C   UNL d   1      58.340  -2.670  28.827  0.00  0.00     0.082 A 
BRANCH   5  10
ATOM     10  C   UNL d   1      60.444  -2.102  28.780  0.00  0.00     0.018 C 
ATOM     11  C   UNL d   1      61.132  -2.375  28.455  0.00  0.00     0.002 C 
ENDBRANCH   5  10
ENDBRANCH   2   4
ENDBRANCH   1   2
BRANCH   1  12
ATOM     12  C   UNL d   1      58.463  -0.732  30.248  0.00  0.00     0.084 A 
ATOM     13  C   UNL d   1      57.970  -1.058  30.839  0.00  0.00     0.021 A 
ATOM     14  C   UNL d   1      57.401  -0.610  31.195  0.00  0.00     0.026 A 
ATOM     15  C   UNL d   1      57.297   0.201  30.974  0.00  0.00     0.105 A 
ATOM     16  C   UNL d   1      57.790   0.528  30.383  0.00  0.00     0.026 A 
ATOM     17  C   UNL d   1      58.366   0.059  30.027  0.00  0.00     0.021 A 
BRANCH  15  18
ATOM     18  O   UNL d   1      56.719   0.667  31.333  0.00  0.00    -0.260 OA
BRANCH  18  19
ATOM     19  C   UNL d   1      56.412   0.457  32.077  0.00  0.00     0.391 C 
ATOM     20  F   UNL d   1      55.692   0.058  32.134  0.00  0.00    -0.145 F 
ATOM     21  F   UNL d   1      56.838   0.651  32.770  0.00  0.00    -0.145 F 
ENDBRANCH  18  19
ENDBRANCH  15  18
ENDBRANCH   1  12
TORSDOF 6
ENDMDL
MODEL 3
REMARK VINA RESULT:      -1.4      2.606      4.865
REMARK  6 active torsions:
REMARK  status: ('A' for Active; 'I' for Inactive)
REMARK    1  A    between atoms: N_2  and  C_1 
REMARK    2  A    between atoms: N_3  and  C_1 
REMARK    3  A    between atoms: C_8  and  N_3 
REMARK    4  A    between atoms: C_5  and  O_7 
REMARK    5  A    between atoms: C_17  and  C_6 
REMARK    6  A    between atoms: O_7  and  C_9 
ROOT
ATOM      1  N   UNL d   1      56.676   0.536  31.874  0.00  0.00    -0.219 NA
ENDROOT
BRANCH   1   2
ATOM      2  C   UNL d   1      56.779   0.362  32.680  0.00  0.00     0.206 C 
ATOM      3  S   UNL d   1      57.510   0.088  32.944  0.00  0.00    -0.038 SA
BRANCH   2   4
ATOM      4  N   UNL d   1      56.147   0.464  33.210  0.00  0.00    -0.282 N 
ATOM      5  C   UNL d   1      56.298   0.578  34.008  0.00  0.00     0.066 A 
ATOM      6  C   UNL d   1      55.685   0.682  34.549  0.00  0.00     0.018 A 
ATOM      7  C   UNL d   1      54.895   0.671  34.278  0.00  0.00     0.003 A 
ATOM      8  C   UNL d   1      54.759   0.557  33.480  0.00  0.00     0.019 A 
ATOM      9  C   UNL d   1      55.379   0.454  32.947  0.00  0.00     0.082 A 
BRANCH   5  10
ATOM     10  C   UNL d   1      57.098   0.589  34.282  0.00  0.00     0.018 C 
ATOM     11  C   UNL d   1      57.248   0.682  35.071  0.00  0.00     0.002 C 
ENDBRANCH   5  10
ENDBRANCH   2   4
ENDBRANCH   1   2
BRANCH   1  12
ATOM     12  C   UNL d   1      57.143   0.174  31.301  0.00  0.00     0.084 A 
ATOM     13  C   UNL d   1      57.209  -0.659  31.286  0.00  0.00     0.021 A 
ATOM     14  C   UNL d   1      57.664  -1.026  30.729  0.00  0.00     0.026 A 
ATOM     15  C   UNL d   1      58.080  -0.569  30.151  0.00  0.00     0.105 A 
ATOM     16  C   UNL d   1      58.014   0.264  30.165  0.00  0.00     0.026 A 
ATOM     17  C   UNL d   1      57.547   0.626  30.739  0.00  0.00     0.021 A 
BRANCH  15  18
ATOM     18  O   UNL d   1      58.547  -0.935  29.578  0.00  0.00    -0.260 OA
BRANCH  18  19
ATOM     19  C   UNL d   1      59.310  -0.648  29.411  0.00  0.00     0.391 C 
ATOM     20  F   UNL d   1      59.409   0.090  29.054  0.00  0.00    -0.145 F 
ATOM     21  F   UNL d   1      59.978  -1.110  29.606  0.00  0.00    -0.145 F 
ENDBRANCH  18  19
ENDBRANCH  15  18
ENDBRANCH   1  12
TORSDOF 6
ENDMDL
