MODEL 1
REMARK VINA RESULT:      -6.1      0.000      0.000
REMARK  8 active torsions:
REMARK  status: ('A' for Active; 'I' for Inactive)
REMARK    1  A    between atoms: N_2  and  S_1 
REMARK    2  A    between atoms: C_3  and  S_1 
REMARK    3  A    between atoms: C_4  and  C_7 
REMARK    4  A    between atoms: O_17  and  C_4 
REMARK    5  A    between atoms: C_23  and  O_17 
REMARK    6  A    between atoms: C_18  and  C_24 
REMARK    7  A    between atoms: C_27  and  C_23 
REMARK    8  A    between atoms: C_24  and  C_27 
ROOT
ATOM      1  C   UNL d   1     -47.597  14.036  22.611  0.00  0.00     0.104 A 
ATOM      2  C   UNL d   1     -46.096  13.381  22.487  0.00  0.00     0.064 A 
ATOM      3  C   UNL d   1     -47.485  13.308  22.259  0.00  0.00     0.013 A 
ATOM      4  C   UNL d   1     -46.939  14.449  22.911  0.00  0.00     0.013 A 
ATOM      5  C   UNL d   1     -46.749  12.968  22.189  0.00  0.00     0.006 A 
ATOM      6  C   UNL d   1     -46.194  14.119  22.847  0.00  0.00     0.006 A 
ENDROOT
BRANCH   2   7
ATOM      7  C   UNL d   1     -45.348  13.037  22.417  0.00  0.00     0.300 C 
ATOM      8  O   UNL d   1     -45.164  12.418  22.952  0.00  0.00    -0.259 OA
BRANCH   7   9
ATOM      9  O   UNL d   1     -44.811  13.267  21.874  0.00  0.00    -0.271 OA
BRANCH   9  10
ATOM     10  C   UNL d   1     -44.074  12.903  21.801  0.00  0.00     0.126 C 
BRANCH  10  11
ATOM     11  C   UNL d   1     -43.477  13.195  21.305  0.00  0.00     0.027 C 
BRANCH  11  12
ATOM     12  C   UNL d   1     -42.710  12.945  21.378  0.00  0.00     0.002 C 
BRANCH  12  13
ATOM     13  C   UNL d   1     -42.082  13.408  21.080  0.00  0.00     0.003 A 
ATOM     14  C   UNL d   1     -41.479  13.634  21.582  0.00  0.00     0.021 A 
ATOM     15  C   UNL d   1     -40.859  14.088  21.298  0.00  0.00     0.099 A 
ATOM     16  N   UNL d   1     -40.841  14.320  20.498  0.00  0.00    -0.242 NA
ATOM     17  C   UNL d   1     -41.445  14.091  19.999  0.00  0.00     0.099 A 
ATOM     18  C   UNL d   1     -42.059  13.634  20.308  0.00  0.00     0.021 A 
ENDBRANCH  12  13
ENDBRANCH  11  12
ENDBRANCH  10  11
ENDBRANCH   9  10
ENDBRANCH   7   9
ENDBRANCH   2   7
BRANCH   1  19
ATOM     19  S   UNL d   1     -48.358  14.367  22.673  0.00  0.00     0.272 S 
ATOM     20  O   UNL d   1     -48.605  13.725  23.151  0.00  0.00    -0.200 OA
ATOM     21  O   UNL d   1     -48.137  15.020  22.197  0.00  0.00    -0.200 OA
BRANCH  19  22
ATOM     22  N   UNL d   1     -49.119  14.706  22.730  0.00  0.00    -0.225 N 
ATOM     23  C   UNL d   1     -49.277  15.313  23.252  0.00  0.00     0.118 A 
ATOM     24  C   UNL d   1     -50.044  15.634  23.289  0.00  0.00     0.142 A 
ATOM     25  O   UNL d   1     -50.641  15.348  22.806  0.00  0.00    -0.300 OA
ATOM     26  C   UNL d   1     -50.475  14.733  22.280  0.00  0.00     0.142 A 
ATOM     27  C   UNL d   1     -49.737  14.407  22.228  0.00  0.00     0.118 A 
ENDBRANCH  19  22
ENDBRANCH   1  19
TORSDOF 8
ENDMDL
MODEL 2
REMARK VINA RESULT:      -4.7      2.773      7.215
REMARK  8 active torsions:
REMARK  status: ('A' for Active; 'I' for Inactive)
REMARK    1  A    between atoms: N_2  and  S_1 
REMARK    2  A    between atoms: C_3  and  S_1 
REMARK    3  A    between atoms: C_4  and  C_7 
REMARK    4  A    between atoms: O_17  and  C_4 
REMARK    5  A    between atoms: C_23  and  O_17 
REMARK    6  A    between atoms: C_18  and  C_24 
REMARK    7  A    between atoms: C_27  and  C_23 
REMARK    8  A    between atoms: C_24  and  C_27 
ROOT
ATOM      1  C   UNL d   1     -41.198  14.068  20.424  0.00  0.00     0.104 A 
ATOM      2  C   UNL d   1     -42.491  13.324  21.111  0.00  0.00     0.064 A 
ATOM      3  C   UNL d   1     -41.290  14.052  21.235  0.00  0.00     0.013 A 
ATOM      4  C   UNL d   1     -41.769  13.701  19.942  0.00  0.00     0.013 A 
ATOM      5  C   UNL d   1     -41.924  13.688  21.593  0.00  0.00     0.006 A 
ATOM      6  C   UNL d   1     -42.411  13.332  20.288  0.00  0.00     0.006 A 
ENDROOT
BRANCH   2   7
ATOM      7  C   UNL d   1     -43.135  12.954  21.473  0.00  0.00     0.300 C 
ATOM      8  O   UNL d   1     -42.996  12.200  21.814  0.00  0.00    -0.259 OA
BRANCH   7   9
ATOM      9  O   UNL d   1     -43.863  13.278  21.507  0.00  0.00    -0.271 OA
BRANCH   9  10
ATOM     10  C   UNL d   1     -44.469  12.954  21.963  0.00  0.00     0.126 C 
BRANCH  10  11
ATOM     11  C   UNL d   1     -45.221  13.299  22.019  0.00  0.00     0.027 C 
BRANCH  11  12
ATOM     12  C   UNL d   1     -45.767  13.033  22.555  0.00  0.00     0.002 C 
BRANCH  12  13
ATOM     13  C   UNL d   1     -46.536  13.357  22.574  0.00  0.00     0.003 A 
ATOM     14  C   UNL d   1     -46.647  14.105  22.881  0.00  0.00     0.021 A 
ATOM     15  C   UNL d   1     -47.399  14.431  22.905  0.00  0.00     0.099 A 
ATOM     16  N   UNL d   1     -48.051  14.001  22.616  0.00  0.00    -0.242 NA
ATOM     17  C   UNL d   1     -47.936  13.253  22.310  0.00  0.00     0.099 A 
ATOM     18  C   UNL d   1     -47.170  12.946  22.297  0.00  0.00     0.021 A 
ENDBRANCH  12  13
ENDBRANCH  11  12
ENDBRANCH  10  11
ENDBRANCH   9  10
ENDBRANCH   7   9
ENDBRANCH   2   7
BRANCH   1  19
ATOM     19  S   UNL d   1     -40.542  14.446  20.077  0.00  0.00     0.272 S 
ATOM     20  O   UNL d   1     -40.632  13.982  19.386  0.00  0.00    -0.200 OA
ATOM     21  O   UNL d   1     -40.430  14.922  20.758  0.00  0.00    -0.200 OA
BRANCH  19  22
ATOM     22  N   UNL d   1     -39.883  14.830  19.738  0.00  0.00    -0.225 N 
ATOM     23  C   UNL d   1     -39.127  14.534  19.823  0.00  0.00     0.118 A 
ATOM     24  C   UNL d   1     -38.487  14.936  19.475  0.00  0.00     0.142 A 
ATOM     25  O   UNL d   1     -38.608  15.626  19.048  0.00  0.00    -0.300 OA
ATOM     26  C   UNL d   1     -39.376  15.920  18.965  0.00  0.00     0.142 A 
ATOM     27  C   UNL d   1     -40.012  15.545  19.295  0.00  0.00     0.118 A 
ENDBRANCH  19  22
ENDBRANCH   1  19
TORSDOF 8
ENDMDL
MODEL 3
REMARK VINA RESULT:      -3.8      4.547      8.505
REMARK  8 active torsions:
REMARK  status: ('A' for Active; 'I' for Inactive)
REMARK    1  A    between atoms: N_2  and  S_1 
REMARK    2  A    between atoms: C_3  and  S_1 
REMARK    3  A    between atoms: C_4  and  C_7 
REMARK    4  A    between atoms: O_17  and  C_4 
REMARK    5  A    between atoms: C_23  and  O_17 
REMARK    6  A    between atoms: C_18  and  C_24 
REMARK    7  A    between atoms: C_27  and  C_23 
REMARK    8  A    between atoms: C_24  and  C_27 
ROOT
ATOM      1  C   UNL d   1     -39.589  14.733  18.201  0.00  0.00     0.104 A 
ATOM      2  C   UNL d   1     -40.422  14.558  19.605  0.00  0.00     0.064 A 
ATOM      3  C   UNL d   1     -40.254  15.181  18.352  0.00  0.00     0.013 A 
ATOM      4  C   UNL d   1     -39.333  14.181  18.768  0.00  0.00     0.013 A 
ATOM      5  C   UNL d   1     -40.680  15.108  19.042  0.00  0.00     0.006 A 
ATOM      6  C   UNL d   1     -39.750  14.096  19.466  0.00  0.00     0.006 A 
ENDROOT
BRANCH   2   7
ATOM      7  C   UNL d   1     -40.853  14.482  20.306  0.00  0.00     0.300 C 
ATOM      8  O   UNL d   1     -40.737  15.076  20.887  0.00  0.00    -0.259 OA
BRANCH   7   9
ATOM      9  O   UNL d   1     -41.359  13.882  20.446  0.00  0.00    -0.271 OA
BRANCH   9  10
ATOM     10  C   UNL d   1     -41.921  13.910  21.049  0.00  0.00     0.126 C 
BRANCH  10  11
ATOM     11  C   UNL d   1     -42.320  13.236  21.322  0.00  0.00     0.027 C 
BRANCH  11  12
ATOM     12  C   UNL d   1     -43.075  13.069  21.084  0.00  0.00     0.002 C 
BRANCH  12  13
ATOM     13  C   UNL d   1     -43.625  12.734  21.616  0.00  0.00     0.003 A 
ATOM     14  C   UNL d   1     -43.412  12.077  22.051  0.00  0.00     0.021 A 
ATOM     15  C   UNL d   1     -43.945  11.743  22.576  0.00  0.00     0.099 A 
ATOM     16  N   UNL d   1     -44.705  12.071  22.668  0.00  0.00    -0.242 NA
ATOM     17  C   UNL d   1     -44.914  12.729  22.231  0.00  0.00     0.099 A 
ATOM     18  C   UNL d   1     -44.360  13.048  21.709  0.00  0.00     0.021 A 
ENDBRANCH  12  13
ENDBRANCH  11  12
ENDBRANCH  10  11
ENDBRANCH   9  10
ENDBRANCH   7   9
ENDBRANCH   2   7
BRANCH   1  19
ATOM     19  S   UNL d   1     -39.168  14.823  17.488  0.00  0.00     0.272 S 
ATOM     20  O   UNL d   1     -38.461  14.956  17.916  0.00  0.00    -0.200 OA
ATOM     21  O   UNL d   1     -39.862  14.693  17.036  0.00  0.00    -0.200 OA
BRANCH  19  22
ATOM     22  N   UNL d   1     -38.754  14.912  16.768  0.00  0.00    -0.225 N 
ATOM     23  C   UNL d   1     -38.483  14.265  16.350  0.00  0.00     0.118 A 
ATOM     24  C   UNL d   1     -38.074  14.381  15.636  0.00  0.00     0.142 A 
ATOM     25  O   UNL d   1     -37.940  15.136  15.347  0.00  0.00    -0.300 OA
ATOM     26  C   UNL d   1     -38.217  15.787  15.775  0.00  0.00     0.142 A 
ATOM     27  C   UNL d   1     -38.617  15.697  16.471  0.00  0.00     0.118 A 
ENDBRANCH  19  22
ENDBRANCH   1  19
TORSDOF 8
ENDMDL
MODEL 4
REMARK VINA RESULT:      -3.2      6.625      8.829
REMARK  8 active torsions:
REMARK  status: ('A' for Active; 'I' for Inactive)
REMARK    1  A    between atoms: N_2  and  S_1 
REMARK    2  A    between atoms: C_3  and  S_1 
REMARK    3  A    between atoms: C_4  and  C_7 
REMARK    4  A    between atoms: O_17  and  C_4 
REMARK    5  A    between atoms: C_23  and  O_17 
REMARK    6  A    between atoms: C_18  and  C_24 
REMARK    7  A    between atoms: C_27  and  C_23 
REMARK    8  A    between atoms: C_24  and  C_27 
ROOT
ATOM      1  C   UNL d   1     -39.543  15.020  17.659  0.00  0.00     0.104 A 
ATOM      2  C   UNL d   1     -40.303  14.931  19.112  0.00  0.00     0.064 A 
ATOM      3  C   UNL d   1     -39.887  14.324  17.910  0.00  0.00     0.013 A 
ATOM      4  C   UNL d   1     -39.580  15.692  18.149  0.00  0.00     0.013 A 
ATOM      5  C   UNL d   1     -40.267  14.261  18.627  0.00  0.00     0.006 A 
ATOM      6  C   UNL d   1     -39.959  15.644  18.871  0.00  0.00     0.006 A 
ENDROOT
BRANCH   2   7
ATOM      7  C   UNL d   1     -40.689  14.870  19.840  0.00  0.00     0.300 C 
ATOM      8  O   UNL d   1     -41.526  14.912  19.829  0.00  0.00    -0.259 OA
BRANCH   7   9
ATOM      9  O   UNL d   1     -40.304  14.775  20.532  0.00  0.00    -0.271 OA
BRANCH   9  10
ATOM     10  C   UNL d   1     -40.639  14.378  21.173  0.00  0.00     0.126 C 
BRANCH  10  11
ATOM     11  C   UNL d   1     -40.255  14.299  21.903  0.00  0.00     0.027 C 
BRANCH  11  12
ATOM     12  C   UNL d   1     -39.823  13.639  22.082  0.00  0.00     0.002 C 
BRANCH  12  13
ATOM     13  C   UNL d   1     -39.189  13.680  22.625  0.00  0.00     0.003 A 
ATOM     14  C   UNL d   1     -38.765  13.004  22.796  0.00  0.00     0.021 A 
ATOM     15  C   UNL d   1     -38.142  13.035  23.328  0.00  0.00     0.099 A 
ATOM     16  N   UNL d   1     -37.940  13.755  23.695  0.00  0.00    -0.242 NA
ATOM     17  C   UNL d   1     -38.366  14.429  23.521  0.00  0.00     0.099 A 
ATOM     18  C   UNL d   1     -38.989  14.373  22.983  0.00  0.00     0.021 A 
ENDBRANCH  12  13
ENDBRANCH  11  12
ENDBRANCH  10  11
ENDBRANCH   9  10
ENDBRANCH   7   9
ENDBRANCH   2   7
BRANCH   1  19
ATOM     19  S   UNL d   1     -39.158  15.063  16.922  0.00  0.00     0.272 S 
ATOM     20  O   UNL d   1     -39.890  14.972  16.527  0.00  0.00    -0.200 OA
ATOM     21  O   UNL d   1     -38.412  15.156  17.293  0.00  0.00    -0.200 OA
BRANCH  19  22
ATOM     22  N   UNL d   1     -38.763  15.107  16.187  0.00  0.00    -0.225 N 
ATOM     23  C   UNL d   1     -38.545  14.435  15.780  0.00  0.00     0.118 A 
ATOM     24  C   UNL d   1     -38.153  14.506  15.050  0.00  0.00     0.142 A 
ATOM     25  O   UNL d   1     -37.983  15.244  14.736  0.00  0.00    -0.300 OA
ATOM     26  C   UNL d   1     -38.206  15.922  15.154  0.00  0.00     0.142 A 
ATOM     27  C   UNL d   1     -38.588  15.875  15.865  0.00  0.00     0.118 A 
ENDBRANCH  19  22
ENDBRANCH   1  19
TORSDOF 8
ENDMDL
