MODEL 1
REMARK VINA RESULT:      -3.0      0.000      0.000
REMARK  4 active torsions:
REMARK  status: ('A' for Active; 'I' for Inactive)
REMARK    1  A    between atoms: C_2  and  C_1 
REMARK    2  A    between atoms: C_3  and  C_4 
REMARK       I    between atoms: N_12  and  C_3 
REMARK    3  A    between atoms: C_4  and  C_5 
REMARK    4  A    between atoms: C_5  and  C_11 
ROOT
ATOM      1  C   UNL d   1      28.998  16.280 -23.957  0.00  0.00     0.071 A 
ATOM      2  C   UNL d   1      29.728  16.409 -23.596  0.00  0.00     0.004 A 
ATOM      3  C   UNL d   1      30.423  16.188 -23.982  0.00  0.00     0.000 A 
ATOM      4  C   UNL d   1      28.962  15.929 -24.709  0.00  0.00     0.004 A 
ATOM      5  C   UNL d   1      29.656  15.708 -25.096  0.00  0.00    -0.000 A 
ATOM      6  C   UNL d   1      30.386  15.837 -24.735  0.00  0.00    -0.000 A 
ENDROOT
BRANCH   3   7
ATOM      7  C   UNL d   1      31.153  16.321 -23.613  0.00  0.00     0.005 C 
BRANCH   7   8
ATOM      8  C   UNL d   1      31.624  16.964 -23.852  0.00  0.00     0.062 C 
BRANCH   8   9
ATOM      9  C   UNL d   1      32.322  17.139 -23.448  0.00  0.00     0.279 C 
ATOM     10  O   UNL d   1      32.803  16.522 -23.179  0.00  0.00    -0.265 OA
ATOM     11  N   UNL d   1      32.538  17.925 -23.313  0.00  0.00    -0.205 NA
ATOM     12  C   UNL d   1      33.240  18.095 -22.906  0.00  0.00     0.123 C 
ENDBRANCH   8   9
ENDBRANCH   7   8
ENDBRANCH   3   7
BRANCH   1  13
ATOM     13  C   UNL d   1      28.303  16.499 -23.574  0.00  0.00     0.419 C 
ATOM     14  F   UNL d   1      27.955  17.296 -23.481  0.00  0.00    -0.166 F 
ATOM     15  F   UNL d   1      27.727  16.013 -23.160  0.00  0.00    -0.166 F 
ATOM     16  F   UNL d   1      27.668  16.705 -23.225  0.00  0.00    -0.166 F 
ENDBRANCH   1  13
TORSDOF 4
ENDMDL
MODEL 2
REMARK VINA RESULT:      -2.9      4.525      6.326
REMARK  4 active torsions:
REMARK  status: ('A' for Active; 'I' for Inactive)
REMARK    1  A    between atoms: C_2  and  C_1 
REMARK    2  A    between atoms: C_3  and  C_4 
REMARK       I    between atoms: N_12  and  C_3 
REMARK    3  A    between atoms: C_4  and  C_5 
REMARK    4  A    between atoms: C_5  and  C_11 
ROOT
ATOM      1  C   UNL d   1      32.500  22.316 -21.194  0.00  0.00     0.071 A 
ATOM      2  C   UNL d   1      32.688  21.769 -21.782  0.00  0.00     0.004 A 
ATOM      3  C   UNL d   1      33.025  21.045 -21.577  0.00  0.00     0.000 A 
ATOM      4  C   UNL d   1      32.649  22.138 -20.397  0.00  0.00     0.004 A 
ATOM      5  C   UNL d   1      32.985  21.413 -20.191  0.00  0.00    -0.000 A 
ATOM      6  C   UNL d   1      33.174  20.866 -20.779  0.00  0.00    -0.000 A 
ENDROOT
BRANCH   3   7
ATOM      7  C   UNL d   1      33.212  20.499 -22.173  0.00  0.00     0.005 C 
BRANCH   7   8
ATOM      8  C   UNL d   1      32.903  19.727 -22.136  0.00  0.00     0.062 C 
BRANCH   8   9
ATOM      9  C   UNL d   1      33.006  19.210 -22.770  0.00  0.00     0.279 C 
ATOM     10  O   UNL d   1      33.241  19.507 -23.505  0.00  0.00    -0.265 OA
ATOM     11  N   UNL d   1      32.876  18.400 -22.671  0.00  0.00    -0.205 NA
ATOM     12  C   UNL d   1      32.981  17.884 -23.312  0.00  0.00     0.123 C 
ENDBRANCH   8   9
ENDBRANCH   7   8
ENDBRANCH   3   7
BRANCH   1  13
ATOM     13  C   UNL d   1      32.164  23.040 -21.396  0.00  0.00     0.419 C 
ATOM     14  F   UNL d   1      31.390  23.372 -21.157  0.00  0.00    -0.166 F 
ATOM     15  F   UNL d   1      32.473  23.671 -21.892  0.00  0.00    -0.166 F 
ATOM     16  F   UNL d   1      31.851  23.702 -21.577  0.00  0.00    -0.166 F 
ENDBRANCH   1  13
TORSDOF 4
ENDMDL
MODEL 3
REMARK VINA RESULT:      -2.9      2.851      4.045
REMARK  4 active torsions:
REMARK  status: ('A' for Active; 'I' for Inactive)
REMARK    1  A    between atoms: C_2  and  C_1 
REMARK    2  A    between atoms: C_3  and  C_4 
REMARK       I    between atoms: N_12  and  C_3 
REMARK    3  A    between atoms: C_4  and  C_5 
REMARK    4  A    between atoms: C_5  and  C_11 
ROOT
ATOM      1  C   UNL d   1      32.648  17.823 -23.275  0.00  0.00     0.071 A 
ATOM      2  C   UNL d   1      31.909  17.601 -23.567  0.00  0.00     0.004 A 
ATOM      3  C   UNL d   1      31.759  16.811 -23.751  0.00  0.00     0.000 A 
ATOM      4  C   UNL d   1      33.241  17.251 -23.167  0.00  0.00     0.004 A 
ATOM      5  C   UNL d   1      33.091  16.461 -23.351  0.00  0.00    -0.000 A 
ATOM      6  C   UNL d   1      32.352  16.239 -23.643  0.00  0.00    -0.000 A 
ENDROOT
BRANCH   3   7
ATOM      7  C   UNL d   1      31.014  16.596 -24.045  0.00  0.00     0.005 C 
BRANCH   7   8
ATOM      8  C   UNL d   1      30.494  16.158 -23.564  0.00  0.00     0.062 C 
BRANCH   8   9
ATOM      9  C   UNL d   1      29.727  15.999 -23.823  0.00  0.00     0.279 C 
ATOM     10  O   UNL d   1      29.554  16.032 -24.631  0.00  0.00    -0.265 OA
ATOM     11  N   UNL d   1      29.135  15.808 -23.279  0.00  0.00    -0.205 NA
ATOM     12  C   UNL d   1      28.366  15.650 -23.545  0.00  0.00     0.123 C 
ENDBRANCH   8   9
ENDBRANCH   7   8
ENDBRANCH   3   7
BRANCH   1  13
ATOM     13  C   UNL d   1      32.800  18.610 -23.091  0.00  0.00     0.419 C 
ATOM     14  F   UNL d   1      33.078  19.253 -23.615  0.00  0.00    -0.166 F 
ATOM     15  F   UNL d   1      32.732  19.022 -22.339  0.00  0.00    -0.166 F 
ATOM     16  F   UNL d   1      32.941  19.332 -22.927  0.00  0.00    -0.166 F 
ENDBRANCH   1  13
TORSDOF 4
ENDMDL
MODEL 4
REMARK VINA RESULT:      -2.7      3.358      5.087
REMARK  4 active torsions:
REMARK  status: ('A' for Active; 'I' for Inactive)
REMARK    1  A    between atoms: C_2  and  C_1 
REMARK    2  A    between atoms: C_3  and  C_4 
REMARK       I    between atoms: N_12  and  C_3 
REMARK    3  A    between atoms: C_4  and  C_5 
REMARK    4  A    between atoms: C_5  and  C_11 
ROOT
ATOM      1  C   UNL d   1      32.844  20.546 -21.768  0.00  0.00     0.071 A 
ATOM      2  C   UNL d   1      32.860  19.737 -21.929  0.00  0.00     0.004 A 
ATOM      3  C   UNL d   1      33.058  19.472 -22.685  0.00  0.00     0.000 A 
ATOM      4  C   UNL d   1      33.027  21.093 -22.366  0.00  0.00     0.004 A 
ATOM      5  C   UNL d   1      33.225  20.828 -23.121  0.00  0.00    -0.000 A 
ATOM      6  C   UNL d   1      33.241  20.020 -23.283  0.00  0.00    -0.000 A 
ENDROOT
BRANCH   3   7
ATOM      7  C   UNL d   1      33.072  18.658 -22.840  0.00  0.00     0.005 C 
BRANCH   7   8
ATOM      8  C   UNL d   1      32.421  18.299 -23.214  0.00  0.00     0.062 C 
BRANCH   8   9
ATOM      9  C   UNL d   1      32.447  17.498 -23.412  0.00  0.00     0.279 C 
ATOM     10  O   UNL d   1      32.965  16.995 -23.009  0.00  0.00    -0.265 OA
ATOM     11  N   UNL d   1      31.960  17.201 -24.010  0.00  0.00    -0.205 NA
ATOM     12  C   UNL d   1      31.991  16.396 -24.205  0.00  0.00     0.123 C 
ENDBRANCH   8   9
ENDBRANCH   7   8
ENDBRANCH   3   7
BRANCH   1  13
ATOM     13  C   UNL d   1      32.647  20.813 -21.015  0.00  0.00     0.419 C 
ATOM     14  F   UNL d   1      31.854  20.925 -20.662  0.00  0.00    -0.166 F 
ATOM     15  F   UNL d   1      33.156  21.057 -20.367  0.00  0.00    -0.166 F 
ATOM     16  F   UNL d   1      32.460  21.058 -20.327  0.00  0.00    -0.166 F 
ENDBRANCH   1  13
TORSDOF 4
ENDMDL
MODEL 5
REMARK VINA RESULT:      -2.5      3.802      4.963
REMARK  4 active torsions:
REMARK  status: ('A' for Active; 'I' for Inactive)
REMARK    1  A    between atoms: C_2  and  C_1 
REMARK    2  A    between atoms: C_3  and  C_4 
REMARK       I    between atoms: N_12  and  C_3 
REMARK    3  A    between atoms: C_4  and  C_5 
REMARK    4  A    between atoms: C_5  and  C_11 
ROOT
ATOM      1  C   UNL d   1      32.630  18.834 -23.353  0.00  0.00     0.071 A 
ATOM      2  C   UNL d   1      32.630  19.620 -23.102  0.00  0.00     0.004 A 
ATOM      3  C   UNL d   1      32.933  19.814 -22.359  0.00  0.00     0.000 A 
ATOM      4  C   UNL d   1      32.935  18.239 -22.860  0.00  0.00     0.004 A 
ATOM      5  C   UNL d   1      33.238  18.433 -22.118  0.00  0.00    -0.000 A 
ATOM      6  C   UNL d   1      33.238  19.219 -21.866  0.00  0.00    -0.000 A 
ENDROOT
BRANCH   3   7
ATOM      7  C   UNL d   1      32.930  20.606 -22.113  0.00  0.00     0.005 C 
BRANCH   7   8
ATOM      8  C   UNL d   1      32.516  20.820 -21.424  0.00  0.00     0.062 C 
BRANCH   8   9
ATOM      9  C   UNL d   1      32.541  21.599 -21.152  0.00  0.00     0.279 C 
ATOM     10  O   UNL d   1      33.239  22.036 -21.230  0.00  0.00    -0.265 OA
ATOM     11  N   UNL d   1      31.874  21.940 -20.803  0.00  0.00    -0.205 NA
ATOM     12  C   UNL d   1      31.905  22.722 -20.532  0.00  0.00     0.123 C 
ENDBRANCH   8   9
ENDBRANCH   7   8
ENDBRANCH   3   7
BRANCH   1  13
ATOM     13  C   UNL d   1      32.328  18.638 -24.093  0.00  0.00     0.419 C 
ATOM     14  F   UNL d   1      31.527  18.355 -24.301  0.00  0.00    -0.166 F 
ATOM     15  F   UNL d   1      32.708  18.653 -24.864  0.00  0.00    -0.166 F 
ATOM     16  F   UNL d   1      32.046  18.456 -24.768  0.00  0.00    -0.166 F 
ENDBRANCH   1  13
TORSDOF 4
ENDMDL
MODEL 6
REMARK VINA RESULT:      -2.4      4.918      6.611
REMARK  4 active torsions:
REMARK  status: ('A' for Active; 'I' for Inactive)
REMARK    1  A    between atoms: C_2  and  C_1 
REMARK    2  A    between atoms: C_3  and  C_4 
REMARK       I    between atoms: N_12  and  C_3 
REMARK    3  A    between atoms: C_4  and  C_5 
REMARK    4  A    between atoms: C_5  and  C_11 
ROOT
ATOM      1  C   UNL d   1      32.416  22.889 -21.283  0.00  0.00     0.071 A 
ATOM      2  C   UNL d   1      32.618  22.090 -21.241  0.00  0.00     0.004 A 
ATOM      3  C   UNL d   1      32.956  21.717 -21.894  0.00  0.00     0.000 A 
ATOM      4  C   UNL d   1      32.554  23.317 -21.982  0.00  0.00     0.004 A 
ATOM      5  C   UNL d   1      32.892  22.943 -22.635  0.00  0.00    -0.000 A 
ATOM      6  C   UNL d   1      33.094  22.145 -22.593  0.00  0.00    -0.000 A 
ENDROOT
BRANCH   3   7
ATOM      7  C   UNL d   1      33.156  20.914 -21.845  0.00  0.00     0.005 C 
BRANCH   7   8
ATOM      8  C   UNL d   1      32.924  20.394 -22.452  0.00  0.00     0.062 C 
BRANCH   8   9
ATOM      9  C   UNL d   1      33.075  19.586 -22.385  0.00  0.00     0.279 C 
ATOM     10  O   UNL d   1      33.215  19.257 -21.639  0.00  0.00    -0.265 OA
ATOM     11  N   UNL d   1      33.086  19.107 -23.058  0.00  0.00    -0.205 NA
ATOM     12  C   UNL d   1      33.238  18.295 -22.985  0.00  0.00     0.123 C 
ENDBRANCH   8   9
ENDBRANCH   7   8
ENDBRANCH   3   7
BRANCH   1  13
ATOM     13  C   UNL d   1      32.079  23.265 -20.633  0.00  0.00     0.419 C 
ATOM     14  F   UNL d   1      31.274  23.597 -20.548  0.00  0.00    -0.166 F 
ATOM     15  F   UNL d   1      32.415  23.437 -19.861  0.00  0.00    -0.166 F 
ATOM     16  F   UNL d   1      31.764  23.610 -20.041  0.00  0.00    -0.166 F 
ENDBRANCH   1  13
TORSDOF 4
ENDMDL
MODEL 7
REMARK VINA RESULT:      -2.3      2.091      3.090
REMARK  4 active torsions:
REMARK  status: ('A' for Active; 'I' for Inactive)
REMARK    1  A    between atoms: C_2  and  C_1 
REMARK    2  A    between atoms: C_3  and  C_4 
REMARK       I    between atoms: N_12  and  C_3 
REMARK    3  A    between atoms: C_4  and  C_5 
REMARK    4  A    between atoms: C_5  and  C_11 
ROOT
ATOM      1  C   UNL d   1      31.782  17.124 -24.166  0.00  0.00     0.071 A 
ATOM      2  C   UNL d   1      32.019  17.538 -23.494  0.00  0.00     0.004 A 
ATOM      3  C   UNL d   1      32.678  18.034 -23.528  0.00  0.00     0.000 A 
ATOM      4  C   UNL d   1      32.205  17.205 -24.877  0.00  0.00     0.004 A 
ATOM      5  C   UNL d   1      32.864  17.701 -24.910  0.00  0.00    -0.000 A 
ATOM      6  C   UNL d   1      33.101  18.115 -24.238  0.00  0.00    -0.000 A 
ENDROOT
BRANCH   3   7
ATOM      7  C   UNL d   1      32.911  18.447 -22.847  0.00  0.00     0.005 C 
BRANCH   7   8
ATOM      8  C   UNL d   1      32.851  19.277 -22.831  0.00  0.00     0.062 C 
BRANCH   8   9
ATOM      9  C   UNL d   1      32.984  19.687 -22.127  0.00  0.00     0.279 C 
ATOM     10  O   UNL d   1      33.241  19.276 -21.457  0.00  0.00    -0.265 OA
ATOM     11  N   UNL d   1      32.861  20.504 -22.092  0.00  0.00    -0.205 NA
ATOM     12  C   UNL d   1      32.996  20.910 -21.382  0.00  0.00     0.123 C 
ENDBRANCH   8   9
ENDBRANCH   7   8
ENDBRANCH   3   7
BRANCH   1  13
ATOM     13  C   UNL d   1      31.125  16.629 -24.136  0.00  0.00     0.419 C 
ATOM     14  F   UNL d   1      30.289  16.813 -24.317  0.00  0.00    -0.166 F 
ATOM     15  F   UNL d   1      31.072  15.798 -23.921  0.00  0.00    -0.166 F 
ATOM     16  F   UNL d   1      30.520  16.180 -24.111  0.00  0.00    -0.166 F 
ENDBRANCH   1  13
TORSDOF 4
ENDMDL
MODEL 8
REMARK VINA RESULT:      -2.0      6.552      7.932
REMARK  4 active torsions:
REMARK  status: ('A' for Active; 'I' for Inactive)
REMARK    1  A    between atoms: C_2  and  C_1 
REMARK    2  A    between atoms: C_3  and  C_4 
REMARK       I    between atoms: N_12  and  C_3 
REMARK    3  A    between atoms: C_4  and  C_5 
REMARK    4  A    between atoms: C_5  and  C_11 
ROOT
ATOM      1  C   UNL d   1      32.421  22.121 -20.719  0.00  0.00     0.071 A 
ATOM      2  C   UNL d   1      32.573  22.382 -19.951  0.00  0.00     0.004 A 
ATOM      3  C   UNL d   1      32.774  23.170 -19.817  0.00  0.00     0.000 A 
ATOM      4  C   UNL d   1      32.471  22.653 -21.356  0.00  0.00     0.004 A 
ATOM      5  C   UNL d   1      32.672  23.441 -21.222  0.00  0.00    -0.000 A 
ATOM      6  C   UNL d   1      32.824  23.702 -20.454  0.00  0.00    -0.000 A 
ENDROOT
BRANCH   3   7
ATOM      7  C   UNL d   1      32.925  23.425 -19.042  0.00  0.00     0.005 C 
BRANCH   7   8
ATOM      8  C   UNL d   1      33.240  22.891 -18.488  0.00  0.00     0.062 C 
BRANCH   8   9
ATOM      9  C   UNL d   1      33.077  22.984 -17.684  0.00  0.00     0.279 C 
ATOM     10  O   UNL d   1      32.750  23.694 -17.414  0.00  0.00    -0.265 OA
ATOM     11  N   UNL d   1      33.240  22.372 -17.153  0.00  0.00    -0.205 NA
ATOM     12  C   UNL d   1      33.074  22.472 -16.347  0.00  0.00     0.123 C 
ENDBRANCH   8   9
ENDBRANCH   7   8
ENDBRANCH   3   7
BRANCH   1  13
ATOM     13  C   UNL d   1      32.220  21.335 -20.856  0.00  0.00     0.419 C 
ATOM     14  F   UNL d   1      31.426  20.979 -20.946  0.00  0.00    -0.166 F 
ATOM     15  F   UNL d   1      32.726  20.646 -20.951  0.00  0.00    -0.166 F 
ATOM     16  F   UNL d   1      32.030  20.617 -20.982  0.00  0.00    -0.166 F 
ENDBRANCH   1  13
TORSDOF 4
ENDMDL
