MODEL 1
REMARK VINA RESULT:      -4.5      0.000      0.000
REMARK  2 active torsions:
REMARK  status: ('A' for Active; 'I' for Inactive)
REMARK    1  A    between atoms: N_2  and  S_1 
REMARK    2  A    between atoms: C_8  and  S_1 
ROOT
ATOM      1  N   UNL d   1      57.494   0.175  31.845  0.00  0.00    -0.231 N 
ATOM      2  C   UNL d   1      57.780   0.682  32.419  0.00  0.00     0.092 A 
ATOM      3  C   UNL d   1      56.910  -0.294  32.193  0.00  0.00     0.075 A 
ATOM      4  C   UNL d   1      57.378   0.534  33.123  0.00  0.00     0.021 A 
ATOM      5  C   UNL d   1      56.838  -0.070  32.986  0.00  0.00     0.018 A 
ATOM      6  C   UNL d   1      56.437  -0.892  31.889  0.00  0.00     0.018 A 
ATOM      7  C   UNL d   1      56.293  -0.447  33.471  0.00  0.00     0.002 A 
ATOM      8  C   UNL d   1      55.887  -1.273  32.375  0.00  0.00     0.002 A 
ATOM      9  C   UNL d   1      55.815  -1.050  33.168  0.00  0.00     0.000 A 
ENDROOT
BRANCH   1  10
ATOM     10  S   UNL d   1      57.744   0.136  31.060  0.00  0.00     0.271 S 
ATOM     11  O   UNL d   1      57.079   0.576  30.831  0.00  0.00    -0.200 OA
ATOM     12  O   UNL d   1      58.404  -0.302  31.291  0.00  0.00    -0.200 OA
BRANCH  10  13
ATOM     13  C   UNL d   1      57.997   0.096  30.272  0.00  0.00     0.104 A 
ATOM     14  C   UNL d   1      57.785   0.682  29.738  0.00  0.00     0.013 A 
ATOM     15  C   UNL d   1      58.034   0.642  28.961  0.00  0.00     0.001 A 
ATOM     16  C   UNL d   1      58.504   0.008  28.709  0.00  0.00     0.000 A 
ATOM     17  C   UNL d   1      58.719  -0.580  29.239  0.00  0.00     0.001 A 
ATOM     18  C   UNL d   1      58.466  -0.539  30.024  0.00  0.00     0.013 A 
ENDBRANCH  10  13
ENDBRANCH   1  10
TORSDOF 2
ENDMDL
MODEL 2
REMARK VINA RESULT:      -3.6      1.700      3.999
REMARK  2 active torsions:
REMARK  status: ('A' for Active; 'I' for Inactive)
REMARK    1  A    between atoms: N_2  and  S_1 
REMARK    2  A    between atoms: C_8  and  S_1 
ROOT
ATOM      1  N   UNL d   1      56.287  -0.697  32.486  0.00  0.00    -0.231 N 
ATOM      2  C   UNL d   1      56.214  -1.475  32.244  0.00  0.00     0.092 A 
ATOM      3  C   UNL d   1      56.801  -0.320  31.961  0.00  0.00     0.075 A 
ATOM      4  C   UNL d   1      56.678  -1.587  31.573  0.00  0.00     0.021 A 
ATOM      5  C   UNL d   1      57.044  -0.872  31.395  0.00  0.00     0.018 A 
ATOM      6  C   UNL d   1      57.077   0.453  31.928  0.00  0.00     0.018 A 
ATOM      7  C   UNL d   1      57.562  -0.648  30.799  0.00  0.00     0.002 A 
ATOM      8  C   UNL d   1      57.599   0.681  31.328  0.00  0.00     0.002 A 
ATOM      9  C   UNL d   1      57.842   0.129  30.762  0.00  0.00     0.000 A 
ENDROOT
BRANCH   1  10
ATOM     10  S   UNL d   1      55.915  -0.351  33.135  0.00  0.00     0.271 S 
ATOM     11  O   UNL d   1      55.439   0.092  32.621  0.00  0.00    -0.200 OA
ATOM     12  O   UNL d   1      56.392  -0.794  33.644  0.00  0.00    -0.200 OA
BRANCH  10  13
ATOM     13  C   UNL d   1      55.544  -0.005  33.789  0.00  0.00     0.104 A 
ATOM     14  C   UNL d   1      54.773   0.272  33.730  0.00  0.00     0.013 A 
ATOM     15  C   UNL d   1      54.407   0.614  34.375  0.00  0.00     0.001 A 
ATOM     16  C   UNL d   1      54.813   0.682  35.094  0.00  0.00     0.000 A 
ATOM     17  C   UNL d   1      55.583   0.407  35.159  0.00  0.00     0.001 A 
ATOM     18  C   UNL d   1      55.952   0.062  34.505  0.00  0.00     0.013 A 
ENDBRANCH  10  13
ENDBRANCH   1  10
TORSDOF 2
ENDMDL
MODEL 3
REMARK VINA RESULT:      -3.2      2.277      3.558
REMARK  2 active torsions:
REMARK  status: ('A' for Active; 'I' for Inactive)
REMARK    1  A    between atoms: N_2  and  S_1 
REMARK    2  A    between atoms: C_8  and  S_1 
ROOT
ATOM      1  N   UNL d   1      58.881  -0.879  28.995  0.00  0.00    -0.231 N 
ATOM      2  C   UNL d   1      59.005  -0.276  28.457  0.00  0.00     0.092 A 
ATOM      3  C   UNL d   1      58.440  -0.569  29.620  0.00  0.00     0.075 A 
ATOM      4  C   UNL d   1      58.645   0.408  28.741  0.00  0.00     0.021 A 
ATOM      5  C   UNL d   1      58.294   0.230  29.462  0.00  0.00     0.018 A 
ATOM      6  C   UNL d   1      58.154  -0.911  30.310  0.00  0.00     0.018 A 
ATOM      7  C   UNL d   1      57.863   0.682  29.996  0.00  0.00     0.002 A 
ATOM      8  C   UNL d   1      57.720  -0.458  30.848  0.00  0.00     0.002 A 
ATOM      9  C   UNL d   1      57.574   0.341  30.691  0.00  0.00     0.000 A 
ENDROOT
BRANCH   1  10
ATOM     10  S   UNL d   1      59.147  -1.656  28.927  0.00  0.00     0.271 S 
ATOM     11  O   UNL d   1      58.460  -1.851  28.506  0.00  0.00    -0.200 OA
ATOM     12  O   UNL d   1      59.830  -1.459  29.347  0.00  0.00    -0.200 OA
BRANCH  10  13
ATOM     13  C   UNL d   1      59.417  -2.436  28.861  0.00  0.00     0.104 A 
ATOM     14  C   UNL d   1      58.934  -3.016  28.538  0.00  0.00     0.013 A 
ATOM     15  C   UNL d   1      59.201  -3.785  28.472  0.00  0.00     0.001 A 
ATOM     16  C   UNL d   1      59.962  -3.984  28.733  0.00  0.00     0.000 A 
ATOM     17  C   UNL d   1      60.448  -3.409  29.056  0.00  0.00     0.001 A 
ATOM     18  C   UNL d   1      60.177  -2.631  29.122  0.00  0.00     0.013 A 
ENDBRANCH  10  13
ENDBRANCH   1  10
TORSDOF 2
ENDMDL
MODEL 4
REMARK VINA RESULT:      -3.0      2.584      4.449
REMARK  2 active torsions:
REMARK  status: ('A' for Active; 'I' for Inactive)
REMARK    1  A    between atoms: N_2  and  S_1 
REMARK    2  A    between atoms: C_8  and  S_1 
ROOT
ATOM      1  N   UNL d   1      58.984  -2.406  28.944  0.00  0.00    -0.231 N 
ATOM      2  C   UNL d   1      58.477  -2.955  28.610  0.00  0.00     0.092 A 
ATOM      3  C   UNL d   1      59.730  -2.755  28.998  0.00  0.00     0.075 A 
ATOM      4  C   UNL d   1      58.902  -3.644  28.455  0.00  0.00     0.021 A 
ATOM      5  C   UNL d   1      59.679  -3.523  28.695  0.00  0.00     0.018 A 
ATOM      6  C   UNL d   1      60.446  -2.471  29.284  0.00  0.00     0.018 A 
ATOM      7  C   UNL d   1      60.345  -4.003  28.679  0.00  0.00     0.002 A 
ATOM      8  C   UNL d   1      61.118  -2.954  29.269  0.00  0.00     0.002 A 
ATOM      9  C   UNL d   1      61.067  -3.722  28.966  0.00  0.00     0.000 A 
ENDROOT
BRANCH   1  10
ATOM     10  S   UNL d   1      58.786  -1.642  29.184  0.00  0.00     0.271 S 
ATOM     11  O   UNL d   1      59.054  -1.349  28.456  0.00  0.00    -0.200 OA
ATOM     12  O   UNL d   1      58.520  -1.938  29.907  0.00  0.00    -0.200 OA
BRANCH  10  13
ATOM     13  C   UNL d   1      58.586  -0.876  29.427  0.00  0.00     0.104 A 
ATOM     14  C   UNL d   1      58.185  -0.757  30.133  0.00  0.00     0.013 A 
ATOM     15  C   UNL d   1      57.989  -0.001  30.372  0.00  0.00     0.001 A 
ATOM     16  C   UNL d   1      58.194   0.649  29.903  0.00  0.00     0.000 A 
ATOM     17  C   UNL d   1      58.595   0.536  29.197  0.00  0.00     0.001 A 
ATOM     18  C   UNL d   1      58.794  -0.229  28.955  0.00  0.00     0.013 A 
ENDBRANCH  10  13
ENDBRANCH   1  10
TORSDOF 2
ENDMDL
