MODEL 1
REMARK VINA RESULT:      -3.7      0.000      0.000
REMARK  3 active torsions:
REMARK  status: ('A' for Active; 'I' for Inactive)
REMARK    1  A    between atoms: C_5  and  C_1 
REMARK    2  A    between atoms: N_6  and  C_2 
REMARK       I    between atoms: C_8  and  N_6 
REMARK    3  A    between atoms: C_9  and  C_8 
ROOT
ATOM      1  C   UNL d   1      32.975  19.181 -22.805  0.00  0.00     0.231 A 
ATOM      2  C   UNL d   1      33.079  20.273 -22.043  0.00  0.00     0.297 A 
ATOM      3  O   UNL d   1      32.913  20.007 -22.806  0.00  0.00    -0.252 OA
ATOM      4  N   UNL d   1      33.177  18.947 -22.046  0.00  0.00    -0.117 NA
ATOM      5  N   UNL d   1      33.241  19.621 -21.575  0.00  0.00    -0.101 NA
ENDROOT
BRANCH   2   6
ATOM      6  N   UNL d   1      33.078  21.062 -21.803  0.00  0.00    -0.165 NA
ATOM      7  C   UNL d   1      32.509  21.335 -21.285  0.00  0.00     0.282 C 
ATOM      8  O   UNL d   1      31.926  20.824 -20.993  0.00  0.00    -0.265 OA
BRANCH   7   9
ATOM      9  C   UNL d   1      32.509  22.124 -21.045  0.00  0.00     0.060 A 
ATOM     10  C   UNL d   1      32.777  22.329 -20.302  0.00  0.00     0.034 A 
ATOM     11  C   UNL d   1      32.775  23.118 -20.066  0.00  0.00     0.140 A 
ATOM     12  F   UNL d   1      33.049  23.335 -19.307  0.00  0.00    -0.204 F 
ATOM     13  C   UNL d   1      32.502  23.702 -20.580  0.00  0.00     0.030 A 
ATOM     14  C   UNL d   1      32.231  23.489 -21.330  0.00  0.00     0.003 A 
ATOM     15  C   UNL d   1      32.235  22.695 -21.563  0.00  0.00     0.005 A 
ENDBRANCH   7   9
ENDBRANCH   2   6
BRANCH   1  16
ATOM     16  C   UNL d   1      32.853  18.688 -23.460  0.00  0.00     0.168 A 
ATOM     17  O   UNL d   1      32.454  17.975 -23.364  0.00  0.00    -0.297 OA
ATOM     18  C   UNL d   1      32.333  17.490 -24.008  0.00  0.00     0.149 A 
ATOM     19  C   UNL d   1      32.609  17.709 -24.750  0.00  0.00     0.149 A 
ATOM     20  O   UNL d   1      33.010  18.418 -24.858  0.00  0.00    -0.299 OA
ATOM     21  C   UNL d   1      33.131  18.906 -24.211  0.00  0.00     0.151 A 
ENDBRANCH   1  16
TORSDOF 3
ENDMDL
MODEL 2
REMARK VINA RESULT:      -3.0      1.492      2.217
REMARK  3 active torsions:
REMARK  status: ('A' for Active; 'I' for Inactive)
REMARK    1  A    between atoms: C_5  and  C_1 
REMARK    2  A    between atoms: N_6  and  C_2 
REMARK       I    between atoms: C_8  and  N_6 
REMARK    3  A    between atoms: C_9  and  C_8 
ROOT
ATOM      1  C   UNL d   1      32.202  17.705 -23.581  0.00  0.00     0.231 A 
ATOM      2  C   UNL d   1      32.568  18.930 -23.192  0.00  0.00     0.297 A 
ATOM      3  O   UNL d   1      31.948  18.385 -23.182  0.00  0.00    -0.252 OA
ATOM      4  N   UNL d   1      32.971  17.836 -23.831  0.00  0.00    -0.117 NA
ATOM      5  N   UNL d   1      33.197  18.591 -23.591  0.00  0.00    -0.101 NA
ENDROOT
BRANCH   2   6
ATOM      6  N   UNL d   1      32.547  19.682 -22.854  0.00  0.00    -0.165 NA
ATOM      7  C   UNL d   1      32.879  19.814 -22.120  0.00  0.00     0.282 C 
ATOM      8  O   UNL d   1      33.241  19.195 -21.704  0.00  0.00    -0.265 OA
BRANCH   7   9
ATOM      9  C   UNL d   1      32.858  20.566 -21.782  0.00  0.00     0.060 A 
ATOM     10  C   UNL d   1      33.059  21.222 -22.225  0.00  0.00     0.034 A 
ATOM     11  C   UNL d   1      33.037  21.971 -21.885  0.00  0.00     0.140 A 
ATOM     12  F   UNL d   1      33.241  22.647 -22.331  0.00  0.00    -0.204 F 
ATOM     13  C   UNL d   1      32.812  22.060 -21.096  0.00  0.00     0.030 A 
ATOM     14  C   UNL d   1      32.610  21.393 -20.653  0.00  0.00     0.003 A 
ATOM     15  C   UNL d   1      32.634  20.642 -20.999  0.00  0.00     0.005 A 
ENDBRANCH   7   9
ENDBRANCH   2   6
BRANCH   1  16
ATOM     16  C   UNL d   1      31.751  17.021 -23.700  0.00  0.00     0.168 A 
ATOM     17  O   UNL d   1      31.845  16.378 -23.196  0.00  0.00    -0.297 OA
ATOM     18  C   UNL d   1      31.401  15.704 -23.314  0.00  0.00     0.149 A 
ATOM     19  C   UNL d   1      30.862  15.664 -23.932  0.00  0.00     0.149 A 
ATOM     20  O   UNL d   1      30.760  16.300 -24.442  0.00  0.00    -0.299 OA
ATOM     21  C   UNL d   1      31.205  16.977 -24.325  0.00  0.00     0.151 A 
ENDBRANCH   1  16
TORSDOF 3
ENDMDL
MODEL 3
REMARK VINA RESULT:      -2.2      2.203      5.213
REMARK  3 active torsions:
REMARK  status: ('A' for Active; 'I' for Inactive)
REMARK    1  A    between atoms: C_5  and  C_1 
REMARK    2  A    between atoms: N_6  and  C_2 
REMARK       I    between atoms: C_8  and  N_6 
REMARK    3  A    between atoms: C_9  and  C_8 
ROOT
ATOM      1  C   UNL d   1      32.667  22.724 -19.683  0.00  0.00     0.231 A 
ATOM      2  C   UNL d   1      32.912  22.059 -20.816  0.00  0.00     0.297 A 
ATOM      3  O   UNL d   1      32.931  22.003 -19.993  0.00  0.00    -0.252 OA
ATOM      4  N   UNL d   1      32.489  23.215 -20.315  0.00  0.00    -0.117 NA
ATOM      5  N   UNL d   1      32.640  22.805 -21.013  0.00  0.00    -0.101 NA
ENDROOT
BRANCH   2   6
ATOM      6  N   UNL d   1      33.132  21.461 -21.340  0.00  0.00    -0.165 NA
ATOM      7  C   UNL d   1      32.583  20.912 -21.592  0.00  0.00     0.282 C 
ATOM      8  O   UNL d   1      31.799  20.947 -21.325  0.00  0.00    -0.265 OA
BRANCH   7   9
ATOM      9  C   UNL d   1      32.802  20.314 -22.116  0.00  0.00     0.060 A 
ATOM     10  C   UNL d   1      32.839  19.538 -21.864  0.00  0.00     0.034 A 
ATOM     11  C   UNL d   1      33.059  18.944 -22.390  0.00  0.00     0.140 A 
ATOM     12  F   UNL d   1      33.100  18.148 -22.140  0.00  0.00    -0.204 F 
ATOM     13  C   UNL d   1      33.241  19.132 -23.172  0.00  0.00     0.030 A 
ATOM     14  C   UNL d   1      33.201  19.918 -23.421  0.00  0.00     0.003 A 
ATOM     15  C   UNL d   1      32.980  20.511 -22.889  0.00  0.00     0.005 A 
ENDBRANCH   7   9
ENDBRANCH   2   6
BRANCH   1  16
ATOM     16  C   UNL d   1      32.599  22.906 -18.878  0.00  0.00     0.168 A 
ATOM     17  O   UNL d   1      33.070  22.514 -18.330  0.00  0.00    -0.297 OA
ATOM     18  C   UNL d   1      33.003  22.693 -17.537  0.00  0.00     0.149 A 
ATOM     19  C   UNL d   1      32.469  23.263 -17.284  0.00  0.00     0.149 A 
ATOM     20  O   UNL d   1      31.993  23.662 -17.822  0.00  0.00    -0.299 OA
ATOM     21  C   UNL d   1      32.059  23.482 -18.619  0.00  0.00     0.151 A 
ENDBRANCH   1  16
TORSDOF 3
ENDMDL
MODEL 4
REMARK VINA RESULT:      -2.2      1.674      2.586
REMARK  3 active torsions:
REMARK  status: ('A' for Active; 'I' for Inactive)
REMARK    1  A    between atoms: C_5  and  C_1 
REMARK    2  A    between atoms: N_6  and  C_2 
REMARK       I    between atoms: C_8  and  N_6 
REMARK    3  A    between atoms: C_9  and  C_8 
ROOT
ATOM      1  C   UNL d   1      31.978  17.207 -23.583  0.00  0.00     0.231 A 
ATOM      2  C   UNL d   1      32.652  18.195 -22.987  0.00  0.00     0.297 A 
ATOM      3  O   UNL d   1      31.934  17.788 -22.994  0.00  0.00    -0.252 OA
ATOM      4  N   UNL d   1      32.718  17.262 -23.931  0.00  0.00    -0.117 NA
ATOM      5  N   UNL d   1      33.134  17.871 -23.563  0.00  0.00    -0.101 NA
ENDROOT
BRANCH   2   6
ATOM      6  N   UNL d   1      32.841  18.819 -22.482  0.00  0.00    -0.165 NA
ATOM      7  C   UNL d   1      32.670  19.588 -22.695  0.00  0.00     0.282 C 
ATOM      8  O   UNL d   1      32.304  19.753 -23.420  0.00  0.00    -0.265 OA
BRANCH   7   9
ATOM      9  C   UNL d   1      32.859  20.212 -22.190  0.00  0.00     0.060 A 
ATOM     10  C   UNL d   1      32.948  20.082 -21.389  0.00  0.00     0.034 A 
ATOM     11  C   UNL d   1      33.137  20.707 -20.888  0.00  0.00     0.140 A 
ATOM     12  F   UNL d   1      33.230  20.582 -20.067  0.00  0.00    -0.204 F 
ATOM     13  C   UNL d   1      33.236  21.467 -21.195  0.00  0.00     0.030 A 
ATOM     14  C   UNL d   1      33.144  21.593 -22.005  0.00  0.00     0.003 A 
ATOM     15  C   UNL d   1      32.955  20.961 -22.505  0.00  0.00     0.005 A 
ENDBRANCH   7   9
ENDBRANCH   2   6
BRANCH   1  16
ATOM     16  C   UNL d   1      31.376  16.672 -23.778  0.00  0.00     0.168 A 
ATOM     17  O   UNL d   1      31.258  16.005 -23.312  0.00  0.00    -0.297 OA
ATOM     18  C   UNL d   1      30.665  15.479 -23.504  0.00  0.00     0.149 A 
ATOM     19  C   UNL d   1      30.188  15.611 -24.158  0.00  0.00     0.149 A 
ATOM     20  O   UNL d   1      30.296  16.274 -24.631  0.00  0.00    -0.299 OA
ATOM     21  C   UNL d   1      30.891  16.804 -24.439  0.00  0.00     0.151 A 
ENDBRANCH   1  16
TORSDOF 3
ENDMDL
MODEL 5
REMARK VINA RESULT:      -1.8      2.053      4.952
REMARK  3 active torsions:
REMARK  status: ('A' for Active; 'I' for Inactive)
REMARK    1  A    between atoms: C_5  and  C_1 
REMARK    2  A    between atoms: N_6  and  C_2 
REMARK       I    between atoms: C_8  and  N_6 
REMARK    3  A    between atoms: C_9  and  C_8 
ROOT
ATOM      1  C   UNL d   1      32.924  21.550 -20.764  0.00  0.00     0.231 A 
ATOM      2  C   UNL d   1      33.122  20.700 -21.776  0.00  0.00     0.297 A 
ATOM      3  O   UNL d   1      33.029  21.497 -21.584  0.00  0.00    -0.252 OA
ATOM      4  N   UNL d   1      32.953  20.789 -20.460  0.00  0.00    -0.117 NA
ATOM      5  N   UNL d   1      33.076  20.265 -21.084  0.00  0.00    -0.101 NA
ENDROOT
BRANCH   2   6
ATOM      6  N   UNL d   1      33.241  20.404 -22.536  0.00  0.00    -0.165 NA
ATOM      7  C   UNL d   1      32.843  19.736 -22.785  0.00  0.00     0.282 C 
ATOM      8  O   UNL d   1      32.316  19.347 -22.279  0.00  0.00    -0.265 OA
BRANCH   7   9
ATOM      9  C   UNL d   1      32.962  19.439 -23.545  0.00  0.00     0.060 A 
ATOM     10  C   UNL d   1      33.040  18.636 -23.667  0.00  0.00     0.034 A 
ATOM     11  C   UNL d   1      33.159  18.344 -24.428  0.00  0.00     0.140 A 
ATOM     12  F   UNL d   1      33.239  17.523 -24.560  0.00  0.00    -0.204 F 
ATOM     13  C   UNL d   1      33.199  18.862 -25.068  0.00  0.00     0.030 A 
ATOM     14  C   UNL d   1      33.120  19.674 -24.939  0.00  0.00     0.003 A 
ATOM     15  C   UNL d   1      33.001  19.963 -24.173  0.00  0.00     0.005 A 
ENDBRANCH   7   9
ENDBRANCH   2   6
BRANCH   1  16
ATOM     16  C   UNL d   1      32.810  22.251 -20.337  0.00  0.00     0.168 A 
ATOM     17  O   UNL d   1      32.545  22.926 -20.725  0.00  0.00    -0.297 OA
ATOM     18  C   UNL d   1      32.433  23.616 -20.305  0.00  0.00     0.149 A 
ATOM     19  C   UNL d   1      32.583  23.639 -19.498  0.00  0.00     0.149 A 
ATOM     20  O   UNL d   1      32.848  22.972 -19.099  0.00  0.00    -0.299 OA
ATOM     21  C   UNL d   1      32.961  22.278 -19.521  0.00  0.00     0.151 A 
ENDBRANCH   1  16
TORSDOF 3
ENDMDL
MODEL 6
REMARK VINA RESULT:      -1.3      3.575      5.180
REMARK  3 active torsions:
REMARK  status: ('A' for Active; 'I' for Inactive)
REMARK    1  A    between atoms: C_5  and  C_1 
REMARK    2  A    between atoms: N_6  and  C_2 
REMARK       I    between atoms: C_8  and  N_6 
REMARK    3  A    between atoms: C_9  and  C_8 
ROOT
ATOM      1  C   UNL d   1      29.720  15.995 -24.208  0.00  0.00     0.231 A 
ATOM      2  C   UNL d   1      30.912  16.597 -24.222  0.00  0.00     0.297 A 
ATOM      3  O   UNL d   1      30.117  16.700 -24.028  0.00  0.00    -0.252 OA
ATOM      4  N   UNL d   1      30.271  15.469 -24.510  0.00  0.00    -0.117 NA
ATOM      5  N   UNL d   1      31.007  15.840 -24.518  0.00  0.00    -0.101 NA
ENDROOT
BRANCH   2   6
ATOM      6  N   UNL d   1      31.502  17.166 -24.129  0.00  0.00    -0.165 NA
ATOM      7  C   UNL d   1      31.470  17.866 -24.549  0.00  0.00     0.282 C 
ATOM      8  O   UNL d   1      30.846  18.014 -25.073  0.00  0.00    -0.265 OA
BRANCH   7   9
ATOM      9  C   UNL d   1      32.060  18.434 -24.456  0.00  0.00     0.060 A 
ATOM     10  C   UNL d   1      32.158  18.814 -23.740  0.00  0.00     0.034 A 
ATOM     11  C   UNL d   1      32.748  19.381 -23.651  0.00  0.00     0.140 A 
ATOM     12  F   UNL d   1      32.854  19.774 -22.921  0.00  0.00    -0.204 F 
ATOM     13  C   UNL d   1      33.241  19.567 -24.286  0.00  0.00     0.030 A 
ATOM     14  C   UNL d   1      33.137  19.180 -25.008  0.00  0.00     0.003 A 
ATOM     15  C   UNL d   1      32.543  18.611 -25.092  0.00  0.00     0.005 A 
ENDBRANCH   7   9
ENDBRANCH   2   6
BRANCH   1  16
ATOM     16  C   UNL d   1      28.910  15.857 -24.100  0.00  0.00     0.168 A 
ATOM     17  O   UNL d   1      28.455  15.589 -24.730  0.00  0.00    -0.297 OA
ATOM     18  C   UNL d   1      27.657  15.454 -24.623  0.00  0.00     0.149 A 
ATOM     19  C   UNL d   1      27.308  15.583 -23.891  0.00  0.00     0.149 A 
ATOM     20  O   UNL d   1      27.753  15.851 -23.255  0.00  0.00    -0.299 OA
ATOM     21  C   UNL d   1      28.554  15.988 -23.361  0.00  0.00     0.151 A 
ENDBRANCH   1  16
TORSDOF 3
ENDMDL
