MODEL 1
REMARK VINA RESULT:      -1.4      0.000      0.000
REMARK  6 active torsions:
REMARK  status: ('A' for Active; 'I' for Inactive)
REMARK    1  A    between atoms: N_8  and  S_1 
REMARK    2  A    between atoms: C_12  and  S_1 
REMARK    3  A    between atoms: N_5  and  C_2 
REMARK    4  A    between atoms: C_4  and  O_9 
REMARK    5  A    between atoms: O_9  and  C_10 
REMARK    6  A    between atoms: C_10  and  C_16 
ROOT
ATOM      1  C   UNL d   1      30.226  16.594 -24.369  0.00  0.00     0.104 A 
ATOM      2  C   UNL d   1      31.544  17.569 -24.359  0.00  0.00     0.064 A 
ATOM      3  C   UNL d   1      30.255  17.250 -24.855  0.00  0.00     0.013 A 
ATOM      4  C   UNL d   1      30.863  16.425 -23.873  0.00  0.00     0.013 A 
ATOM      5  C   UNL d   1      30.922  17.746 -24.852  0.00  0.00     0.006 A 
ATOM      6  C   UNL d   1      31.525  16.913 -23.866  0.00  0.00     0.006 A 
ENDROOT
BRANCH   2   7
ATOM      7  C   UNL d   1      32.214  18.060 -24.350  0.00  0.00     0.300 C 
ATOM      8  O   UNL d   1      32.646  18.170 -25.034  0.00  0.00    -0.259 OA
BRANCH   7   9
ATOM      9  O   UNL d   1      32.437  18.434 -23.647  0.00  0.00    -0.271 OA
BRANCH   9  10
ATOM     10  C   UNL d   1      32.702  19.216 -23.652  0.00  0.00     0.132 A 
ATOM     11  C   UNL d   1      32.833  19.616 -22.942  0.00  0.00     0.207 A 
ATOM     12  C   UNL d   1      33.098  20.398 -22.947  0.00  0.00     0.303 A 
ATOM     13  O   UNL d   1      33.228  20.795 -22.233  0.00  0.00    -0.263 OA
ATOM     14  N   UNL d   1      33.231  20.779 -23.663  0.00  0.00    -0.206 NA
ATOM     15  C   UNL d   1      33.103  20.386 -24.368  0.00  0.00     0.087 A 
ATOM     16  C   UNL d   1      32.838  19.605 -24.363  0.00  0.00     0.046 A 
ATOM     17  C   UNL d   1      33.238  20.771 -25.096  0.00  0.00     0.021 C 
BRANCH  11  18
ATOM     18  N   UNL d   1      32.697  19.228 -22.222  0.00  0.00    -0.107 N 
ATOM     19  O   UNL d   1      32.099  19.498 -21.720  0.00  0.00    -0.531 OA
ATOM     20  O   UNL d   1      33.155  18.575 -22.010  0.00  0.00    -0.531 OA
ENDBRANCH  11  18
ENDBRANCH   9  10
ENDBRANCH   7   9
ENDBRANCH   2   7
BRANCH   1  21
ATOM     21  S   UNL d   1      29.574  16.101 -24.365  0.00  0.00     0.271 S 
ATOM     22  O   UNL d   1      29.029  15.513 -24.487  0.00  0.00    -0.200 OA
ATOM     23  O   UNL d   1      30.092  15.757 -24.889  0.00  0.00    -0.200 OA
BRANCH  21  24
ATOM     24  N   UNL d   1      28.941  16.293 -23.886  0.00  0.00    -0.229 N 
ATOM     25  C   UNL d   1      28.579  15.715 -23.422  0.00  0.00     0.092 A 
ATOM     26  C   UNL d   1      27.948  15.924 -22.950  0.00  0.00     0.020 A 
ATOM     27  C   UNL d   1      27.665  16.703 -22.929  0.00  0.00     0.003 A 
ATOM     28  C   UNL d   1      28.028  17.269 -23.391  0.00  0.00     0.020 A 
ATOM     29  C   UNL d   1      28.669  17.069 -23.874  0.00  0.00     0.092 A 
ENDBRANCH  21  24
ENDBRANCH   1  21
TORSDOF 6
ENDMDL
MODEL 2
REMARK VINA RESULT:      -1.3      2.075      5.127
REMARK  6 active torsions:
REMARK  status: ('A' for Active; 'I' for Inactive)
REMARK    1  A    between atoms: N_8  and  S_1 
REMARK    2  A    between atoms: C_12  and  S_1 
REMARK    3  A    between atoms: N_5  and  C_2 
REMARK    4  A    between atoms: C_4  and  O_9 
REMARK    5  A    between atoms: O_9  and  C_10 
REMARK    6  A    between atoms: C_10  and  C_16 
ROOT
ATOM      1  C   UNL d   1      32.662  20.063 -22.066  0.00  0.00     0.104 A 
ATOM      2  C   UNL d   1      32.376  19.067 -23.337  0.00  0.00     0.064 A 
ATOM      3  C   UNL d   1      33.240  19.938 -22.629  0.00  0.00     0.013 A 
ATOM      4  C   UNL d   1      31.932  19.685 -22.140  0.00  0.00     0.013 A 
ATOM      5  C   UNL d   1      33.098  19.434 -23.275  0.00  0.00     0.006 A 
ATOM      6  C   UNL d   1      31.787  19.185 -22.777  0.00  0.00     0.006 A 
ENDROOT
BRANCH   2   7
ATOM      7  C   UNL d   1      32.225  18.562 -23.979  0.00  0.00     0.300 C 
ATOM      8  O   UNL d   1      32.703  18.592 -24.641  0.00  0.00    -0.259 OA
BRANCH   7   9
ATOM      9  O   UNL d   1      31.591  18.032 -23.942  0.00  0.00    -0.271 OA
BRANCH   9  10
ATOM     10  C   UNL d   1      31.660  17.272 -24.256  0.00  0.00     0.132 A 
ATOM     11  C   UNL d   1      30.989  16.865 -24.514  0.00  0.00     0.207 A 
ATOM     12  C   UNL d   1      31.058  16.105 -24.828  0.00  0.00     0.303 A 
ATOM     13  O   UNL d   1      30.383  15.702 -25.085  0.00  0.00    -0.263 OA
ATOM     14  N   UNL d   1      31.798  15.752 -24.885  0.00  0.00    -0.206 NA
ATOM     15  C   UNL d   1      32.464  16.151 -24.631  0.00  0.00     0.087 A 
ATOM     16  C   UNL d   1      32.396  16.911 -24.316  0.00  0.00     0.046 A 
ATOM     17  C   UNL d   1      33.216  15.794 -24.687  0.00  0.00     0.021 C 
BRANCH  11  18
ATOM     18  N   UNL d   1      30.245  17.226 -24.455  0.00  0.00    -0.107 N 
ATOM     19  O   UNL d   1      29.997  17.746 -25.046  0.00  0.00    -0.531 OA
ATOM     20  O   UNL d   1      29.756  17.066 -23.810  0.00  0.00    -0.531 OA
ENDBRANCH  11  18
ENDBRANCH   9  10
ENDBRANCH   7   9
ENDBRANCH   2   7
BRANCH   1  21
ATOM     21  S   UNL d   1      32.794  20.557 -21.429  0.00  0.00     0.271 S 
ATOM     22  O   UNL d   1      32.971  20.887 -20.709  0.00  0.00    -0.200 OA
ATOM     23  O   UNL d   1      32.969  19.812 -21.154  0.00  0.00    -0.200 OA
BRANCH  21  24
ATOM     24  N   UNL d   1      32.667  21.358 -21.522  0.00  0.00    -0.229 N 
ATOM     25  C   UNL d   1      32.996  21.761 -22.162  0.00  0.00     0.092 A 
ATOM     26  C   UNL d   1      32.859  22.560 -22.240  0.00  0.00     0.020 A 
ATOM     27  C   UNL d   1      32.397  22.974 -21.691  0.00  0.00     0.003 A 
ATOM     28  C   UNL d   1      32.074  22.569 -21.060  0.00  0.00     0.020 A 
ATOM     29  C   UNL d   1      32.207  21.757 -20.971  0.00  0.00     0.092 A 
ENDBRANCH  21  24
ENDBRANCH   1  21
TORSDOF 6
ENDMDL
MODEL 3
REMARK VINA RESULT:      -1.2      2.325      5.330
REMARK  6 active torsions:
REMARK  status: ('A' for Active; 'I' for Inactive)
REMARK    1  A    between atoms: N_8  and  S_1 
REMARK    2  A    between atoms: C_12  and  S_1 
REMARK    3  A    between atoms: N_5  and  C_2 
REMARK    4  A    between atoms: C_4  and  O_9 
REMARK    5  A    between atoms: O_9  and  C_10 
REMARK    6  A    between atoms: C_10  and  C_16 
ROOT
ATOM      1  C   UNL d   1      32.949  20.906 -22.185  0.00  0.00     0.104 A 
ATOM      2  C   UNL d   1      32.869  19.328 -22.622  0.00  0.00     0.064 A 
ATOM      3  C   UNL d   1      32.842  20.701 -22.968  0.00  0.00     0.013 A 
ATOM      4  C   UNL d   1      33.017  20.314 -21.614  0.00  0.00     0.013 A 
ATOM      5  C   UNL d   1      32.801  19.902 -23.193  0.00  0.00     0.006 A 
ATOM      6  C   UNL d   1      32.977  19.521 -21.831  0.00  0.00     0.006 A 
ENDROOT
BRANCH   2   7
ATOM      7  C   UNL d   1      32.830  18.526 -22.838  0.00  0.00     0.300 C 
ATOM      8  O   UNL d   1      33.241  17.968 -22.405  0.00  0.00    -0.259 OA
BRANCH   7   9
ATOM      9  O   UNL d   1      32.374  18.301 -23.490  0.00  0.00    -0.271 OA
BRANCH   9  10
ATOM     10  C   UNL d   1      32.212  17.505 -23.635  0.00  0.00     0.132 A 
ATOM     11  C   UNL d   1      31.538  17.287 -24.059  0.00  0.00     0.207 A 
ATOM     12  C   UNL d   1      31.376  16.491 -24.204  0.00  0.00     0.303 A 
ATOM     13  O   UNL d   1      30.699  16.278 -24.630  0.00  0.00    -0.263 OA
ATOM     14  N   UNL d   1      31.888  15.912 -23.924  0.00  0.00    -0.206 NA
ATOM     15  C   UNL d   1      32.556  16.124 -23.503  0.00  0.00     0.087 A 
ATOM     16  C   UNL d   1      32.718  16.920 -23.359  0.00  0.00     0.046 A 
ATOM     17  C   UNL d   1      33.078  15.538 -23.218  0.00  0.00     0.021 C 
BRANCH  11  18
ATOM     18  N   UNL d   1      31.024  17.874 -24.340  0.00  0.00    -0.107 N 
ATOM     19  O   UNL d   1      31.225  18.301 -25.018  0.00  0.00    -0.531 OA
ATOM     20  O   UNL d   1      30.318  18.031 -23.944  0.00  0.00    -0.531 OA
ENDBRANCH  11  18
ENDBRANCH   9  10
ENDBRANCH   7   9
ENDBRANCH   2   7
BRANCH   1  21
ATOM     21  S   UNL d   1      32.990  21.689 -21.956  0.00  0.00     0.271 S 
ATOM     22  O   UNL d   1      33.091  22.492 -21.905  0.00  0.00    -0.200 OA
ATOM     23  O   UNL d   1      33.239  21.686 -22.730  0.00  0.00    -0.200 OA
BRANCH  21  24
ATOM     24  N   UNL d   1      32.772  21.885 -21.193  0.00  0.00    -0.229 N 
ATOM     25  C   UNL d   1      33.240  21.655 -20.553  0.00  0.00     0.092 A 
ATOM     26  C   UNL d   1      33.008  21.859 -19.800  0.00  0.00     0.020 A 
ATOM     27  C   UNL d   1      32.315  22.293 -19.664  0.00  0.00     0.003 A 
ATOM     28  C   UNL d   1      31.858  22.517 -20.302  0.00  0.00     0.020 A 
ATOM     29  C   UNL d   1      32.083  22.316 -21.072  0.00  0.00     0.092 A 
ENDBRANCH  21  24
ENDBRANCH   1  21
TORSDOF 6
ENDMDL
MODEL 4
REMARK VINA RESULT:       0.3      0.937      1.617
REMARK  6 active torsions:
REMARK  status: ('A' for Active; 'I' for Inactive)
REMARK    1  A    between atoms: N_8  and  S_1 
REMARK    2  A    between atoms: C_12  and  S_1 
REMARK    3  A    between atoms: N_5  and  C_2 
REMARK    4  A    between atoms: C_4  and  O_9 
REMARK    5  A    between atoms: O_9  and  C_10 
REMARK    6  A    between atoms: C_10  and  C_16 
ROOT
ATOM      1  C   UNL d   1      30.091  16.306 -24.411  0.00  0.00     0.104 A 
ATOM      2  C   UNL d   1      31.560  17.034 -24.350  0.00  0.00     0.064 A 
ATOM      3  C   UNL d   1      30.707  15.957 -24.002  0.00  0.00     0.013 A 
ATOM      4  C   UNL d   1      30.213  17.027 -24.793  0.00  0.00     0.013 A 
ATOM      5  C   UNL d   1      31.452  16.323 -23.970  0.00  0.00     0.006 A 
ATOM      6  C   UNL d   1      30.949  17.394 -24.763  0.00  0.00     0.006 A 
ENDROOT
BRANCH   2   7
ATOM      7  C   UNL d   1      32.302  17.407 -24.322  0.00  0.00     0.300 C 
ATOM      8  O   UNL d   1      32.976  16.961 -24.206  0.00  0.00    -0.259 OA
BRANCH   7   9
ATOM      9  O   UNL d   1      32.350  18.227 -24.413  0.00  0.00    -0.271 OA
BRANCH   9  10
ATOM     10  C   UNL d   1      32.646  18.700 -23.805  0.00  0.00     0.132 A 
ATOM     11  C   UNL d   1      32.796  19.502 -23.936  0.00  0.00     0.207 A 
ATOM     12  C   UNL d   1      33.093  19.975 -23.328  0.00  0.00     0.303 A 
ATOM     13  O   UNL d   1      33.241  20.777 -23.464  0.00  0.00    -0.263 OA
ATOM     14  N   UNL d   1      33.239  19.646 -22.589  0.00  0.00    -0.206 NA
ATOM     15  C   UNL d   1      33.092  18.853 -22.455  0.00  0.00     0.087 A 
ATOM     16  C   UNL d   1      32.796  18.380 -23.063  0.00  0.00     0.046 A 
ATOM     17  C   UNL d   1      33.241  18.518 -21.706  0.00  0.00     0.021 C 
BRANCH  11  18
ATOM     18  N   UNL d   1      32.646  19.829 -24.683  0.00  0.00    -0.107 N 
ATOM     19  O   UNL d   1      33.221  20.300 -25.043  0.00  0.00    -0.531 OA
ATOM     20  O   UNL d   1      31.928  19.684 -25.063  0.00  0.00    -0.531 OA
ENDBRANCH  11  18
ENDBRANCH   9  10
ENDBRANCH   7   9
ENDBRANCH   2   7
BRANCH   1  21
ATOM     21  S   UNL d   1      29.356  15.953 -24.448  0.00  0.00     0.271 S 
ATOM     22  O   UNL d   1      28.698  15.518 -24.637  0.00  0.00    -0.200 OA
ATOM     23  O   UNL d   1      29.763  15.651 -25.083  0.00  0.00    -0.200 OA
BRANCH  21  24
ATOM     24  N   UNL d   1      28.802  16.141 -23.877  0.00  0.00    -0.229 N 
ATOM     25  C   UNL d   1      28.510  15.558 -23.371  0.00  0.00     0.092 A 
ATOM     26  C   UNL d   1      27.959  15.763 -22.808  0.00  0.00     0.020 A 
ATOM     27  C   UNL d   1      27.687  16.542 -22.734  0.00  0.00     0.003 A 
ATOM     28  C   UNL d   1      27.980  17.113 -23.238  0.00  0.00     0.020 A 
ATOM     29  C   UNL d   1      28.541  16.917 -23.814  0.00  0.00     0.092 A 
ENDBRANCH  21  24
ENDBRANCH   1  21
TORSDOF 6
ENDMDL
