MODEL 1
REMARK VINA RESULT:      -2.9      0.000      0.000
REMARK  1 active torsions:
REMARK  status: ('A' for Active; 'I' for Inactive)
REMARK    1  A    between atoms: O_8  and  C_4 
ROOT
ATOM      1  C   UNL d   1      29.267  16.536 -24.048  0.00  0.00     0.021 A 
ATOM      2  C   UNL d   1      30.088  16.536 -24.128  0.00  0.00     0.024 A 
ATOM      3  C   UNL d   1      28.891  16.006 -23.539  0.00  0.00     0.103 A 
ATOM      4  C   UNL d   1      30.541  16.005 -23.699  0.00  0.00     0.094 A 
ATOM      5  C   UNL d   1      29.345  15.469 -23.105  0.00  0.00     0.023 A 
ATOM      6  C   UNL d   1      30.166  15.469 -23.185  0.00  0.00     0.026 A 
ATOM      7  N   UNL d   1      28.065  16.016 -23.467  0.00  0.00    -0.148 N 
ATOM      8  C   UNL d   1      28.812  17.070 -24.479  0.00  0.00     0.002 A 
ATOM      9  C   UNL d   1      30.450  17.069 -24.638  0.00  0.00     0.002 A 
ATOM     10  C   UNL d   1      29.175  17.606 -24.992  0.00  0.00     0.000 A 
ATOM     11  C   UNL d   1      29.996  17.606 -25.072  0.00  0.00     0.000 A 
ENDROOT
BRANCH   4  12
ATOM     12  O   UNL d   1      31.366  16.005 -23.780  0.00  0.00    -0.328 OA
ATOM     13  C   UNL d   1      31.818  15.453 -23.376  0.00  0.00     0.181 C 
ENDBRANCH   4  12
TORSDOF 1
ENDMDL
MODEL 2
REMARK VINA RESULT:      -2.8      7.430      7.857
REMARK  1 active torsions:
REMARK  status: ('A' for Active; 'I' for Inactive)
REMARK    1  A    between atoms: O_8  and  C_4 
ROOT
ATOM      1  C   UNL d   1      32.580  22.365 -21.007  0.00  0.00     0.021 A 
ATOM      2  C   UNL d   1      32.890  22.165 -20.269  0.00  0.00     0.024 A 
ATOM      3  C   UNL d   1      32.301  23.127 -21.156  0.00  0.00     0.103 A 
ATOM      4  C   UNL d   1      32.924  22.726 -19.673  0.00  0.00     0.094 A 
ATOM      5  C   UNL d   1      32.334  23.696 -20.558  0.00  0.00     0.023 A 
ATOM      6  C   UNL d   1      32.644  23.496 -19.820  0.00  0.00     0.026 A 
ATOM      7  N   UNL d   1      31.992  23.316 -21.902  0.00  0.00    -0.148 N 
ATOM      8  C   UNL d   1      32.546  21.800 -21.605  0.00  0.00     0.002 A 
ATOM      9  C   UNL d   1      33.164  21.401 -20.132  0.00  0.00     0.002 A 
ATOM     10  C   UNL d   1      32.821  21.033 -21.469  0.00  0.00     0.000 A 
ATOM     11  C   UNL d   1      33.131  20.833 -20.731  0.00  0.00     0.000 A 
ENDROOT
BRANCH   4  12
ATOM     12  O   UNL d   1      33.235  22.525 -18.931  0.00  0.00    -0.328 OA
ATOM     13  C   UNL d   1      33.239  23.075 -18.324  0.00  0.00     0.181 C 
ENDBRANCH   4  12
TORSDOF 1
ENDMDL
MODEL 3
REMARK VINA RESULT:      -2.7      1.391      2.038
REMARK  1 active torsions:
REMARK  status: ('A' for Active; 'I' for Inactive)
REMARK    1  A    between atoms: O_8  and  C_4 
ROOT
ATOM      1  C   UNL d   1      30.539  16.583 -24.046  0.00  0.00     0.021 A 
ATOM      2  C   UNL d   1      29.726  16.579 -24.180  0.00  0.00     0.024 A 
ATOM      3  C   UNL d   1      30.885  16.046 -23.523  0.00  0.00     0.103 A 
ATOM      4  C   UNL d   1      29.249  16.038 -23.793  0.00  0.00     0.094 A 
ATOM      5  C   UNL d   1      30.407  15.498 -23.130  0.00  0.00     0.023 A 
ATOM      6  C   UNL d   1      29.593  15.494 -23.264  0.00  0.00     0.026 A 
ATOM      7  N   UNL d   1      31.704  16.060 -23.396  0.00  0.00    -0.148 N 
ATOM      8  C   UNL d   1      31.018  17.128 -24.436  0.00  0.00     0.002 A 
ATOM      9  C   UNL d   1      29.394  17.120 -24.704  0.00  0.00     0.002 A 
ATOM     10  C   UNL d   1      30.685  17.671 -24.962  0.00  0.00     0.000 A 
ATOM     11  C   UNL d   1      29.871  17.667 -25.097  0.00  0.00     0.000 A 
ENDROOT
BRANCH   4  12
ATOM     12  O   UNL d   1      28.431  16.033 -23.928  0.00  0.00    -0.328 OA
ATOM     13  C   UNL d   1      27.961  15.454 -23.589  0.00  0.00     0.181 C 
ENDBRANCH   4  12
TORSDOF 1
ENDMDL
MODEL 4
REMARK VINA RESULT:      -2.7      6.513      6.948
REMARK  1 active torsions:
REMARK  status: ('A' for Active; 'I' for Inactive)
REMARK    1  A    between atoms: O_8  and  C_4 
ROOT
ATOM      1  C   UNL d   1      32.581  22.775 -21.680  0.00  0.00     0.021 A 
ATOM      2  C   UNL d   1      32.865  22.111 -22.079  0.00  0.00     0.024 A 
ATOM      3  C   UNL d   1      32.250  22.705 -20.927  0.00  0.00     0.103 A 
ATOM      4  C   UNL d   1      32.820  21.371 -21.730  0.00  0.00     0.094 A 
ATOM      5  C   UNL d   1      32.202  21.961 -20.571  0.00  0.00     0.023 A 
ATOM      6  C   UNL d   1      32.486  21.298 -20.971  0.00  0.00     0.026 A 
ATOM      7  N   UNL d   1      31.968  23.380 -20.536  0.00  0.00    -0.148 N 
ATOM      8  C   UNL d   1      32.628  23.517 -22.032  0.00  0.00     0.002 A 
ATOM      9  C   UNL d   1      33.193  22.193 -22.829  0.00  0.00     0.002 A 
ATOM     10  C   UNL d   1      32.957  23.600 -22.785  0.00  0.00     0.000 A 
ATOM     11  C   UNL d   1      33.241  22.937 -23.185  0.00  0.00     0.000 A 
ENDROOT
BRANCH   4  12
ATOM     12  O   UNL d   1      33.105  20.704 -22.131  0.00  0.00    -0.328 OA
ATOM     13  C   UNL d   1      33.083  19.968 -21.772  0.00  0.00     0.181 C 
ENDBRANCH   4  12
TORSDOF 1
ENDMDL
MODEL 5
REMARK VINA RESULT:      -2.7      1.369      2.578
REMARK  1 active torsions:
REMARK  status: ('A' for Active; 'I' for Inactive)
REMARK    1  A    between atoms: O_8  and  C_4 
ROOT
ATOM      1  C   UNL d   1      30.648  16.725 -24.165  0.00  0.00     0.021 A 
ATOM      2  C   UNL d   1      30.144  16.189 -23.790  0.00  0.00     0.024 A 
ATOM      3  C   UNL d   1      30.344  17.343 -24.619  0.00  0.00     0.103 A 
ATOM      4  C   UNL d   1      29.333  16.268 -23.865  0.00  0.00     0.094 A 
ATOM      5  C   UNL d   1      29.526  17.426 -24.698  0.00  0.00     0.023 A 
ATOM      6  C   UNL d   1      29.023  16.890 -24.323  0.00  0.00     0.026 A 
ATOM      7  N   UNL d   1      30.860  17.875 -24.991  0.00  0.00    -0.148 N 
ATOM      8  C   UNL d   1      31.463  16.645 -24.088  0.00  0.00     0.002 A 
ATOM      9  C   UNL d   1      30.459  15.577 -23.340  0.00  0.00     0.002 A 
ATOM     10  C   UNL d   1      31.780  16.030 -23.636  0.00  0.00     0.000 A 
ATOM     11  C   UNL d   1      31.277  15.495 -23.261  0.00  0.00     0.000 A 
ENDROOT
BRANCH   4  12
ATOM     12  O   UNL d   1      28.827  15.730 -23.488  0.00  0.00    -0.328 OA
ATOM     13  C   UNL d   1      28.015  15.791 -23.585  0.00  0.00     0.181 C 
ENDBRANCH   4  12
TORSDOF 1
ENDMDL
MODEL 6
REMARK VINA RESULT:      -2.6      1.741      2.668
REMARK  1 active torsions:
REMARK  status: ('A' for Active; 'I' for Inactive)
REMARK    1  A    between atoms: O_8  and  C_4 
ROOT
ATOM      1  C   UNL d   1      31.673  16.752 -23.732  0.00  0.00     0.021 A 
ATOM      2  C   UNL d   1      31.270  17.328 -24.163  0.00  0.00     0.024 A 
ATOM      3  C   UNL d   1      31.319  16.026 -23.560  0.00  0.00     0.103 A 
ATOM      4  C   UNL d   1      30.508  17.184 -24.427  0.00  0.00     0.094 A 
ATOM      5  C   UNL d   1      30.551  15.878 -23.824  0.00  0.00     0.023 A 
ATOM      6  C   UNL d   1      30.147  16.453 -24.255  0.00  0.00     0.026 A 
ATOM      7  N   UNL d   1      31.735  15.456 -23.126  0.00  0.00    -0.148 N 
ATOM      8  C   UNL d   1      32.439  16.898 -23.468  0.00  0.00     0.002 A 
ATOM      9  C   UNL d   1      31.634  18.047 -24.329  0.00  0.00     0.002 A 
ATOM     10  C   UNL d   1      32.806  17.620 -23.634  0.00  0.00     0.000 A 
ATOM     11  C   UNL d   1      32.402  18.196 -24.065  0.00  0.00     0.000 A 
ENDROOT
BRANCH   4  12
ATOM     12  O   UNL d   1      30.102  17.762 -24.860  0.00  0.00    -0.328 OA
ATOM     13  C   UNL d   1      29.328  17.632 -25.096  0.00  0.00     0.181 C 
ENDBRANCH   4  12
TORSDOF 1
ENDMDL
MODEL 7
REMARK VINA RESULT:      -2.6      6.730      7.399
REMARK  1 active torsions:
REMARK  status: ('A' for Active; 'I' for Inactive)
REMARK    1  A    between atoms: O_8  and  C_4 
ROOT
ATOM      1  C   UNL d   1      32.500  22.292 -21.238  0.00  0.00     0.021 A 
ATOM      2  C   UNL d   1      32.863  22.237 -21.977  0.00  0.00     0.024 A 
ATOM      3  C   UNL d   1      32.148  22.997 -20.991  0.00  0.00     0.103 A 
ATOM      4  C   UNL d   1      32.877  22.887 -22.476  0.00  0.00     0.094 A 
ATOM      5  C   UNL d   1      32.161  23.654 -21.491  0.00  0.00     0.023 A 
ATOM      6  C   UNL d   1      32.523  23.599 -22.230  0.00  0.00     0.026 A 
ATOM      7  N   UNL d   1      31.787  23.040 -20.245  0.00  0.00    -0.148 N 
ATOM      8  C   UNL d   1      32.487  21.640 -20.737  0.00  0.00     0.002 A 
ATOM      9  C   UNL d   1      33.210  21.530 -22.211  0.00  0.00     0.002 A 
ATOM     10  C   UNL d   1      32.836  20.928 -20.972  0.00  0.00     0.000 A 
ATOM     11  C   UNL d   1      33.198  20.873 -21.711  0.00  0.00     0.000 A 
ENDROOT
BRANCH   4  12
ATOM     12  O   UNL d   1      33.241  22.831 -23.219  0.00  0.00    -0.328 OA
ATOM     13  C   UNL d   1      33.224  23.469 -23.733  0.00  0.00     0.181 C 
ENDBRANCH   4  12
TORSDOF 1
ENDMDL
MODEL 8
REMARK VINA RESULT:      -2.6      7.371      7.758
REMARK  1 active torsions:
REMARK  status: ('A' for Active; 'I' for Inactive)
REMARK    1  A    between atoms: O_8  and  C_4 
ROOT
ATOM      1  C   UNL d   1      32.556  22.913 -20.361  0.00  0.00     0.021 A 
ATOM      2  C   UNL d   1      32.895  22.202 -20.116  0.00  0.00     0.024 A 
ATOM      3  C   UNL d   1      32.210  22.982 -21.107  0.00  0.00     0.103 A 
ATOM      4  C   UNL d   1      32.892  21.553 -20.615  0.00  0.00     0.094 A 
ATOM      5  C   UNL d   1      32.205  22.330 -21.614  0.00  0.00     0.023 A 
ATOM      6  C   UNL d   1      32.544  21.619 -21.369  0.00  0.00     0.026 A 
ATOM      7  N   UNL d   1      31.872  23.702 -21.342  0.00  0.00    -0.148 N 
ATOM      8  C   UNL d   1      32.559  23.565 -19.858  0.00  0.00     0.002 A 
ATOM      9  C   UNL d   1      33.236  22.146 -19.370  0.00  0.00     0.002 A 
ATOM     10  C   UNL d   1      32.902  23.510 -19.108  0.00  0.00     0.000 A 
ATOM     11  C   UNL d   1      33.241  22.798 -18.863  0.00  0.00     0.000 A 
ENDROOT
BRANCH   4  12
ATOM     12  O   UNL d   1      33.232  20.838 -20.370  0.00  0.00    -0.328 OA
ATOM     13  C   UNL d   1      33.239  20.192 -20.873  0.00  0.00     0.181 C 
ENDBRANCH   4  12
TORSDOF 1
ENDMDL
MODEL 9
REMARK VINA RESULT:      -2.5      6.721      7.306
REMARK  1 active torsions:
REMARK  status: ('A' for Active; 'I' for Inactive)
REMARK    1  A    between atoms: O_8  and  C_4 
ROOT
ATOM      1  C   UNL d   1      32.733  22.008 -21.242  0.00  0.00     0.021 A 
ATOM      2  C   UNL d   1      32.727  22.663 -21.745  0.00  0.00     0.024 A 
ATOM      3  C   UNL d   1      32.989  21.271 -21.511  0.00  0.00     0.103 A 
ATOM      4  C   UNL d   1      32.976  22.585 -22.521  0.00  0.00     0.094 A 
ATOM      5  C   UNL d   1      33.241  21.189 -22.293  0.00  0.00     0.023 A 
ATOM      6  C   UNL d   1      33.234  21.843 -22.796  0.00  0.00     0.026 A 
ATOM      7  N   UNL d   1      32.991  20.621 -20.996  0.00  0.00    -0.148 N 
ATOM      8  C   UNL d   1      32.483  22.087 -20.462  0.00  0.00     0.002 A 
ATOM      9  C   UNL d   1      32.470  23.392 -21.465  0.00  0.00     0.002 A 
ATOM     10  C   UNL d   1      32.224  22.820 -20.180  0.00  0.00     0.000 A 
ATOM     11  C   UNL d   1      32.218  23.474 -20.683  0.00  0.00     0.000 A 
ENDROOT
BRANCH   4  12
ATOM     12  O   UNL d   1      32.969  23.243 -23.026  0.00  0.00    -0.328 OA
ATOM     13  C   UNL d   1      33.221  23.167 -23.803  0.00  0.00     0.181 C 
ENDBRANCH   4  12
TORSDOF 1
ENDMDL
