MODEL 1
REMARK VINA RESULT:      10.3      0.000      0.000
REMARK  2 active torsions:
REMARK  status: ('A' for Active; 'I' for Inactive)
REMARK    1  A    between atoms: C_11  and  C_1 
REMARK    2  A    between atoms: C_13  and  C_11 
ROOT
ATOM      1  C   UNL d   1      57.903  49.704  50.002  0.00  0.00     0.058 A 
ATOM      2  C   UNL d   1      56.746  49.701  50.708  0.00  0.00    -0.008 A 
ATOM      3  C   UNL d   1      56.473  49.701  50.308  0.00  0.00    -0.008 A 
ATOM      4  C   UNL d   1      56.889  49.702  49.112  0.00  0.00     0.045 A 
ATOM      5  C   UNL d   1      57.226  49.702  50.369  0.00  0.00    -0.019 A 
ATOM      6  C   UNL d   1      57.551  49.703  50.800  0.00  0.00    -0.019 A 
ATOM      7  C   UNL d   1      57.685  49.704  49.206  0.00  0.00     0.021 A 
ATOM      8  C   UNL d   1      56.033  49.699  51.140  0.00  0.00    -0.001 A 
ATOM      9  C   UNL d   1      56.262  49.701  49.550  0.00  0.00    -0.022 A 
ATOM     10  C   UNL d   1      56.524  49.701  49.894  0.00  0.00    -0.022 A 
ENDROOT
BRANCH   1  11
ATOM     11  C   UNL d   1      58.688  49.705  49.748  0.00  0.00     0.004 C 
BRANCH  11  12
ATOM     12  C   UNL d   1      59.289  49.593  50.302  0.00  0.00     0.118 C 
ATOM     13  N   UNL d   1      60.082  49.700  50.077  0.00  0.00    -0.147 N 
ENDBRANCH  11  12
ENDBRANCH   1  11
TORSDOF 2
ENDMDL
MODEL 2
REMARK VINA RESULT:      11.3      1.492      3.239
REMARK  2 active torsions:
REMARK  status: ('A' for Active; 'I' for Inactive)
REMARK    1  A    between atoms: C_11  and  C_1 
REMARK    2  A    between atoms: C_13  and  C_11 
ROOT
ATOM      1  C   UNL d   1      59.226  49.704  50.632  0.00  0.00     0.058 A 
ATOM      2  C   UNL d   1      60.200  49.705  51.575  0.00  0.00    -0.008 A 
ATOM      3  C   UNL d   1      60.554  49.704  51.244  0.00  0.00    -0.008 A 
ATOM      4  C   UNL d   1      60.410  49.701  49.986  0.00  0.00     0.045 A 
ATOM      5  C   UNL d   1      59.805  49.705  51.138  0.00  0.00    -0.019 A 
ATOM      6  C   UNL d   1      59.394  49.706  51.487  0.00  0.00    -0.019 A 
ATOM      7  C   UNL d   1      59.612  49.702  49.903  0.00  0.00     0.021 A 
ATOM      8  C   UNL d   1      60.800  49.706  52.152  0.00  0.00    -0.001 A 
ATOM      9  C   UNL d   1      60.926  49.702  50.550  0.00  0.00    -0.022 A 
ATOM     10  C   UNL d   1      60.595  49.703  50.829  0.00  0.00    -0.022 A 
ENDROOT
BRANCH   1  11
ATOM     11  C   UNL d   1      58.515  49.704  50.212  0.00  0.00     0.004 C 
BRANCH  11  12
ATOM     12  C   UNL d   1      57.803  49.695  50.628  0.00  0.00     0.118 C 
ATOM     13  N   UNL d   1      57.083  49.686  50.214  0.00  0.00    -0.147 N 
ENDBRANCH  11  12
ENDBRANCH   1  11
TORSDOF 2
ENDMDL
