MODEL 1
REMARK VINA RESULT:      34.6      0.000      0.000
REMARK  6 active torsions:
REMARK  status: ('A' for Active; 'I' for Inactive)
REMARK    1  A    between atoms: N_3  and  S_1 
REMARK    2  A    between atoms: C_9  and  S_1 
REMARK    3  A    between atoms: C_2  and  N_3 
REMARK    4  A    between atoms: N_5  and  C_10 
REMARK    5  A    between atoms: C_19  and  C_8 
REMARK    6  A    between atoms: O_20  and  C_19 
ROOT
ATOM      1  S   UNL d   1     -55.009-101.929 -42.430  0.00  0.00     0.287 S 
ATOM      2  O   UNL d   1     -54.711-101.383 -41.864  0.00  0.00    -0.198 OA
ATOM      3  O   UNL d   1     -55.307-102.483 -42.992  0.00  0.00    -0.198 OA
ENDROOT
BRANCH   1   4
ATOM      4  N   UNL d   1     -54.876-102.558 -41.872  0.00  0.00    -0.130 NA
BRANCH   4   5
ATOM      5  C   UNL d   1     -54.834-102.387 -41.069  0.00  0.00     0.227 A 
ATOM      6  S   UNL d   1     -54.810-102.878 -40.395  0.00  0.00    -0.023 SA
ATOM      7  C   UNL d   1     -54.768-102.374 -39.722  0.00  0.00     0.159 A 
ATOM      8  N   UNL d   1     -54.768-101.604 -39.985  0.00  0.00    -0.137 NA
ATOM      9  N   UNL d   1     -54.809-101.615 -40.820  0.00  0.00    -0.120 NA
BRANCH   7  10
ATOM     10  C   UNL d   1     -54.734-102.629 -38.929  0.00  0.00     0.144 C 
BRANCH  10  11
ATOM     11  O   UNL d   1     -55.010-102.101 -38.317  0.00  0.00    -0.324 OA
ATOM     12  C   UNL d   1     -54.884-102.286 -37.500  0.00  0.00     0.182 C 
ENDBRANCH  10  11
ENDBRANCH   7  10
ENDBRANCH   4   5
ENDBRANCH   1   4
BRANCH   1  13
ATOM     13  C   UNL d   1     -55.143-101.307 -42.986  0.00  0.00     0.105 A 
ATOM     14  C   UNL d   1     -55.625-101.432 -43.606  0.00  0.00     0.015 A 
ATOM     15  C   UNL d   1     -55.768-100.837 -44.160  0.00  0.00     0.024 A 
ATOM     16  C   UNL d   1     -55.402-100.105 -44.062  0.00  0.00     0.127 A 
ATOM     17  C   UNL d   1     -54.897 -99.965 -43.418  0.00  0.00     0.024 A 
ATOM     18  C   UNL d   1     -54.777-100.573 -42.890  0.00  0.00     0.015 A 
BRANCH  16  19
ATOM     19  N   UNL d   1     -55.536 -99.482 -44.619  0.00  0.00    -0.114 N 
ATOM     20  O   UNL d   1     -56.282 -99.160 -44.702  0.00  0.00    -0.532 OA
ATOM     21  O   UNL d   1     -54.918 -99.192 -45.085  0.00  0.00    -0.532 OA
ENDBRANCH  16  19
ENDBRANCH   1  13
TORSDOF 6
ENDMDL
