MODEL 1
REMARK VINA RESULT:      -2.5      0.000      0.000
REMARK  1 active torsions:
REMARK  status: ('A' for Active; 'I' for Inactive)
REMARK    1  A    between atoms: C_4  and  N_1 
ROOT
ATOM      1  N   UNL d   1      29.674  16.489 -23.932  0.00  0.00    -0.240 N 
ATOM      2  C   UNL d   1      29.320  16.016 -23.351  0.00  0.00     0.267 A 
ATOM      3  C   UNL d   1      29.076  16.957 -24.270  0.00  0.00     0.267 A 
ATOM      4  C   UNL d   1      28.366  16.770 -23.898  0.00  0.00     0.066 A 
ATOM      5  C   UNL d   1      28.512  16.190 -23.330  0.00  0.00     0.066 A 
ATOM      6  O   UNL d   1      29.712  15.462 -22.873  0.00  0.00    -0.267 OA
ATOM      7  O   UNL d   1      29.189  17.508 -24.872  0.00  0.00    -0.267 OA
ENDROOT
BRANCH   1   8
ATOM      8  C   UNL d   1      30.473  16.494 -24.138  0.00  0.00     0.097 A 
ATOM      9  C   UNL d   1      30.749  15.977 -24.716  0.00  0.00     0.156 A 
ATOM     10  F   UNL d   1      30.226  15.455 -25.088  0.00  0.00    -0.203 F 
ATOM     11  C   UNL d   1      31.547  15.979 -24.926  0.00  0.00     0.031 A 
ATOM     12  C   UNL d   1      32.062  16.504 -24.549  0.00  0.00     0.002 A 
ATOM     13  C   UNL d   1      31.782  17.021 -23.969  0.00  0.00     0.002 A 
ATOM     14  C   UNL d   1      30.982  17.013 -23.766  0.00  0.00     0.020 A 
ENDBRANCH   1   8
TORSDOF 1
ENDMDL
MODEL 2
REMARK VINA RESULT:      -2.4      1.987      2.869
REMARK  1 active torsions:
REMARK  status: ('A' for Active; 'I' for Inactive)
REMARK    1  A    between atoms: C_4  and  N_1 
ROOT
ATOM      1  N   UNL d   1      31.794  16.983 -23.994  0.00  0.00    -0.240 N 
ATOM      2  C   UNL d   1      30.974  16.942 -24.097  0.00  0.00     0.267 A 
ATOM      3  C   UNL d   1      32.041  16.254 -23.680  0.00  0.00     0.267 A 
ATOM      4  C   UNL d   1      31.378  15.776 -23.595  0.00  0.00     0.066 A 
ATOM      5  C   UNL d   1      30.716  16.197 -23.851  0.00  0.00     0.066 A 
ATOM      6  O   UNL d   1      30.494  17.550 -24.398  0.00  0.00    -0.267 OA
ATOM      7  O   UNL d   1      32.820  16.058 -23.492  0.00  0.00    -0.267 OA
ENDROOT
BRANCH   1   8
ATOM      8  C   UNL d   1      32.278  17.628 -24.169  0.00  0.00     0.097 A 
ATOM      9  C   UNL d   1      32.440  18.188 -23.586  0.00  0.00     0.156 A 
ATOM     10  F   UNL d   1      32.117  18.101 -22.829  0.00  0.00    -0.203 F 
ATOM     11  C   UNL d   1      32.923  18.834 -23.756  0.00  0.00     0.031 A 
ATOM     12  C   UNL d   1      33.241  18.912 -24.515  0.00  0.00     0.002 A 
ATOM     13  C   UNL d   1      33.077  18.349 -25.097  0.00  0.00     0.002 A 
ATOM     14  C   UNL d   1      32.593  17.706 -24.918  0.00  0.00     0.020 A 
ENDBRANCH   1   8
TORSDOF 1
ENDMDL
MODEL 3
REMARK VINA RESULT:      -2.3      1.471      2.784
REMARK  1 active torsions:
REMARK  status: ('A' for Active; 'I' for Inactive)
REMARK    1  A    between atoms: C_4  and  N_1 
ROOT
ATOM      1  N   UNL d   1      31.493  16.538 -24.121  0.00  0.00    -0.240 N 
ATOM      2  C   UNL d   1      31.964  16.092 -24.635  0.00  0.00     0.267 A 
ATOM      3  C   UNL d   1      31.980  17.117 -23.777  0.00  0.00     0.267 A 
ATOM      4  C   UNL d   1      32.739  17.022 -24.079  0.00  0.00     0.066 A 
ATOM      5  C   UNL d   1      32.734  16.391 -24.610  0.00  0.00     0.066 A 
ATOM      6  O   UNL d   1      31.703  15.453 -25.097  0.00  0.00    -0.267 OA
ATOM      7  O   UNL d   1      31.733  17.681 -23.229  0.00  0.00    -0.267 OA
ENDROOT
BRANCH   1   8
ATOM      8  C   UNL d   1      30.688  16.429 -23.976  0.00  0.00     0.097 A 
ATOM      9  C   UNL d   1      30.446  15.925 -23.371  0.00  0.00     0.156 A 
ATOM     10  F   UNL d   1      31.010  15.530 -22.911  0.00  0.00    -0.203 F 
ATOM     11  C   UNL d   1      29.642  15.813 -23.222  0.00  0.00     0.031 A 
ATOM     12  C   UNL d   1      29.086  16.212 -23.686  0.00  0.00     0.002 A 
ATOM     13  C   UNL d   1      29.332  16.716 -24.292  0.00  0.00     0.002 A 
ATOM     14  C   UNL d   1      30.138  16.823 -24.434  0.00  0.00     0.020 A 
ENDBRANCH   1   8
TORSDOF 1
ENDMDL
