MODEL 1
REMARK VINA RESULT:      -8.2      0.000      0.000
REMARK  5 active torsions:
REMARK  status: ('A' for Active; 'I' for Inactive)
REMARK    1  A    between atoms: C_11  and  N_1 
REMARK    2  A    between atoms: S_8  and  C_4 
REMARK    3  A    between atoms: C_6  and  S_8 
REMARK    4  A    between atoms: C_9  and  C_7 
REMARK    5  A    between atoms: N_10  and  C_13 
ROOT
ATOM      1  N   UNL d   1     -47.930  12.318  23.350  0.00  0.00    -0.241 N 
ATOM      2  C   UNL d   1     -48.617  11.874  23.446  0.00  0.00     0.268 A 
ATOM      3  C   UNL d   1     -48.139  13.099  23.267  0.00  0.00     0.273 A 
ATOM      4  C   UNL d   1     -48.971  13.145  23.311  0.00  0.00     0.092 A 
ATOM      5  C   UNL d   1     -49.252  12.384  23.421  0.00  0.00     0.072 A 
ATOM      6  O   UNL d   1     -48.685  11.057  23.549  0.00  0.00    -0.267 OA
ATOM      7  O   UNL d   1     -47.630  13.729  23.160  0.00  0.00    -0.266 OA
ENDROOT
BRANCH   1   8
ATOM      8  C   UNL d   1     -47.170  11.990  23.346  0.00  0.00     0.070 A 
ATOM      9  C   UNL d   1     -46.557  12.397  22.996  0.00  0.00     0.019 A 
ATOM     10  C   UNL d   1     -45.784  12.062  22.991  0.00  0.00     0.019 A 
ATOM     11  C   UNL d   1     -45.657  11.335  23.336  0.00  0.00     0.064 A 
ATOM     12  C   UNL d   1     -46.291  10.916  23.697  0.00  0.00     0.019 A 
ATOM     13  C   UNL d   1     -47.045  11.259  23.693  0.00  0.00     0.019 A 
BRANCH  11  14
ATOM     14  N   UNL d   1     -44.903  11.019  23.326  0.00  0.00    -0.300 N 
ATOM     15  C   UNL d   1     -44.744  10.281  23.698  0.00  0.00     0.107 A 
ATOM     16  C   UNL d   1     -43.975   9.975  23.679  0.00  0.00     0.142 A 
ATOM     17  O   UNL d   1     -43.359  10.372  23.306  0.00  0.00    -0.300 OA
ATOM     18  C   UNL d   1     -43.517  11.109  22.934  0.00  0.00     0.142 A 
ATOM     19  C   UNL d   1     -44.292  11.420  22.952  0.00  0.00     0.107 A 
ENDBRANCH  11  14
ENDBRANCH   1   8
BRANCH   4  20
ATOM     20  S   UNL d   1     -49.443  13.820  23.256  0.00  0.00    -0.063 SA
BRANCH  20  21
ATOM     21  C   UNL d   1     -49.986  13.914  22.640  0.00  0.00     0.117 A 
ATOM     22  C   UNL d   1     -50.313  14.657  22.479  0.00  0.00     0.088 A 
ATOM     23  C   UNL d   1     -50.848  14.741  21.869  0.00  0.00     0.010 A 
ATOM     24  C   UNL d   1     -51.064  14.103  21.418  0.00  0.00     0.021 A 
ATOM     25  C   UNL d   1     -50.750  13.363  21.564  0.00  0.00     0.100 A 
ATOM     26  N   UNL d   1     -50.203  13.273  22.187  0.00  0.00    -0.237 NA
BRANCH  22  27
ATOM     27  C   UNL d   1     -50.093  15.311  22.940  0.00  0.00     0.213 C 
ATOM     28  O   UNL d   1     -50.493  15.460  23.645  0.00  0.00    -0.644 OA
ATOM     29  O   UNL d   1     -49.478  15.804  22.689  0.00  0.00    -0.644 OA
ENDBRANCH  22  27
ENDBRANCH  20  21
ENDBRANCH   4  20
TORSDOF 5
ENDMDL
MODEL 2
REMARK VINA RESULT:      -7.2      8.990     10.739
REMARK  5 active torsions:
REMARK  status: ('A' for Active; 'I' for Inactive)
REMARK    1  A    between atoms: C_11  and  N_1 
REMARK    2  A    between atoms: S_8  and  C_4 
REMARK    3  A    between atoms: C_6  and  S_8 
REMARK    4  A    between atoms: C_9  and  C_7 
REMARK    5  A    between atoms: N_10  and  C_13 
ROOT
ATOM      1  N   UNL d   1     -39.169  14.531  19.681  0.00  0.00    -0.241 N 
ATOM      2  C   UNL d   1     -39.854  14.861  19.996  0.00  0.00     0.268 A 
ATOM      3  C   UNL d   1     -38.763  14.161  20.279  0.00  0.00     0.273 A 
ATOM      4  C   UNL d   1     -39.200  14.260  20.982  0.00  0.00     0.092 A 
ATOM      5  C   UNL d   1     -39.869  14.693  20.793  0.00  0.00     0.072 A 
ATOM      6  O   UNL d   1     -40.441  15.290  19.604  0.00  0.00    -0.267 OA
ATOM      7  O   UNL d   1     -38.052  13.762  20.209  0.00  0.00    -0.266 OA
ENDROOT
BRANCH   1   8
ATOM      8  C   UNL d   1     -38.961  14.588  18.881  0.00  0.00     0.070 A 
ATOM      9  C   UNL d   1     -39.213  14.016  18.358  0.00  0.00     0.019 A 
ATOM     10  C   UNL d   1     -39.001  14.074  17.544  0.00  0.00     0.019 A 
ATOM     11  C   UNL d   1     -38.548  14.701  17.289  0.00  0.00     0.064 A 
ATOM     12  C   UNL d   1     -38.289  15.290  17.831  0.00  0.00     0.019 A 
ATOM     13  C   UNL d   1     -38.505  15.218  18.627  0.00  0.00     0.019 A 
BRANCH  11  14
ATOM     14  N   UNL d   1     -38.348  14.747  16.497  0.00  0.00    -0.300 N 
ATOM     15  C   UNL d   1     -38.324  15.491  16.107  0.00  0.00     0.107 A 
ATOM     16  C   UNL d   1     -38.120  15.522  15.304  0.00  0.00     0.142 A 
ATOM     17  O   UNL d   1     -37.940  14.843  14.876  0.00  0.00    -0.300 OA
ATOM     18  C   UNL d   1     -37.963  14.099  15.267  0.00  0.00     0.142 A 
ATOM     19  C   UNL d   1     -38.169  14.066  16.076  0.00  0.00     0.107 A 
ENDBRANCH  11  14
ENDBRANCH   1   8
BRANCH   4  20
ATOM     20  S   UNL d   1     -39.013  13.983  21.737  0.00  0.00    -0.063 SA
BRANCH  20  21
ATOM     21  C   UNL d   1     -38.810  14.504  22.346  0.00  0.00     0.117 A 
ATOM     22  C   UNL d   1     -38.637  14.217  23.103  0.00  0.00     0.088 A 
ATOM     23  C   UNL d   1     -38.438  14.738  23.698  0.00  0.00     0.010 A 
ATOM     24  C   UNL d   1     -38.406  15.536  23.556  0.00  0.00     0.021 A 
ATOM     25  C   UNL d   1     -38.573  15.835  22.814  0.00  0.00     0.100 A 
ATOM     26  N   UNL d   1     -38.778  15.305  22.203  0.00  0.00    -0.237 NA
BRANCH  22  27
ATOM     27  C   UNL d   1     -38.670  13.402  23.250  0.00  0.00     0.213 C 
ATOM     28  O   UNL d   1     -39.393  13.054  23.439  0.00  0.00    -0.644 OA
ATOM     29  O   UNL d   1     -37.980  12.947  23.206  0.00  0.00    -0.644 OA
ENDBRANCH  22  27
ENDBRANCH  20  21
ENDBRANCH   4  20
TORSDOF 5
ENDMDL
MODEL 3
REMARK VINA RESULT:      -7.0      1.395      1.669
REMARK  5 active torsions:
REMARK  status: ('A' for Active; 'I' for Inactive)
REMARK    1  A    between atoms: C_11  and  N_1 
REMARK    2  A    between atoms: S_8  and  C_4 
REMARK    3  A    between atoms: C_6  and  S_8 
REMARK    4  A    between atoms: C_9  and  C_7 
REMARK    5  A    between atoms: N_10  and  C_13 
ROOT
ATOM      1  N   UNL d   1     -47.255  13.182  22.704  0.00  0.00    -0.241 N 
ATOM      2  C   UNL d   1     -47.710  12.593  23.055  0.00  0.00     0.268 A 
ATOM      3  C   UNL d   1     -47.720  13.840  22.603  0.00  0.00     0.273 A 
ATOM      4  C   UNL d   1     -48.480  13.661  22.896  0.00  0.00     0.092 A 
ATOM      5  C   UNL d   1     -48.459  12.890  23.172  0.00  0.00     0.072 A 
ATOM      6  O   UNL d   1     -47.479  11.828  23.266  0.00  0.00    -0.267 OA
ATOM      7  O   UNL d   1     -47.490  14.552  22.274  0.00  0.00    -0.266 OA
ENDROOT
BRANCH   1   8
ATOM      8  C   UNL d   1     -46.458  13.084  22.501  0.00  0.00     0.070 A 
ATOM      9  C   UNL d   1     -46.262  12.808  21.760  0.00  0.00     0.019 A 
ATOM     10  C   UNL d   1     -45.451  12.708  21.553  0.00  0.00     0.019 A 
ATOM     11  C   UNL d   1     -44.871  12.889  22.096  0.00  0.00     0.064 A 
ATOM     12  C   UNL d   1     -45.076  13.174  22.861  0.00  0.00     0.019 A 
ATOM     13  C   UNL d   1     -45.877  13.266  23.048  0.00  0.00     0.019 A 
BRANCH  11  14
ATOM     14  N   UNL d   1     -44.087  12.788  21.886  0.00  0.00    -0.300 N 
ATOM     15  C   UNL d   1     -43.636  12.158  22.211  0.00  0.00     0.107 A 
ATOM     16  C   UNL d   1     -42.843  12.069  21.988  0.00  0.00     0.142 A 
ATOM     17  O   UNL d   1     -42.483  12.582  21.455  0.00  0.00    -0.300 OA
ATOM     18  C   UNL d   1     -42.934  13.212  21.129  0.00  0.00     0.142 A 
ATOM     19  C   UNL d   1     -43.734  13.303  21.353  0.00  0.00     0.107 A 
ENDBRANCH  11  14
ENDBRANCH   1   8
BRANCH   4  20
ATOM     20  S   UNL d   1     -49.143  14.153  22.916  0.00  0.00    -0.063 SA
BRANCH  20  21
ATOM     21  C   UNL d   1     -49.786  14.023  22.412  0.00  0.00     0.117 A 
ATOM     22  C   UNL d   1     -50.433  14.540  22.419  0.00  0.00     0.088 A 
ATOM     23  C   UNL d   1     -51.064  14.405  21.919  0.00  0.00     0.010 A 
ATOM     24  C   UNL d   1     -51.064  13.769  21.415  0.00  0.00     0.021 A 
ATOM     25  C   UNL d   1     -50.433  13.251  21.398  0.00  0.00     0.100 A 
ATOM     26  N   UNL d   1     -49.787  13.385  21.907  0.00  0.00    -0.237 NA
BRANCH  22  27
ATOM     27  C   UNL d   1     -50.435  15.190  22.933  0.00  0.00     0.213 C 
ATOM     28  O   UNL d   1     -50.728  15.099  23.698  0.00  0.00    -0.644 OA
ATOM     29  O   UNL d   1     -50.143  15.921  22.675  0.00  0.00    -0.644 OA
ENDBRANCH  22  27
ENDBRANCH  20  21
ENDBRANCH   4  20
TORSDOF 5
ENDMDL
