MODEL 1
REMARK VINA RESULT:       4.4      0.000      0.000
REMARK  3 active torsions:
REMARK  status: ('A' for Active; 'I' for Inactive)
REMARK    1  A    between atoms: C_6  and  C_5 
REMARK    2  A    between atoms: C_7  and  C_6 
REMARK    3  A    between atoms: O_11  and  C_7 
ROOT
ATOM      1  N   UNL d   1      14.268  11.861  -0.350  0.00  0.00    -0.163 NA
ATOM      2  C   UNL d   1      14.930  11.861  -0.846  0.00  0.00     0.313 A 
ATOM      3  C   UNL d   1      13.593  11.831  -0.822  0.00  0.00     0.288 A 
ATOM      4  S   UNL d   1      14.656  11.830  -1.622  0.00  0.00    -0.021 SA
ATOM      5  C   UNL d   1      13.839  11.812  -1.609  0.00  0.00     0.097 A 
ATOM      6  O   UNL d   1      15.717  11.886  -0.601  0.00  0.00    -0.258 OA
ATOM      7  O   UNL d   1      12.810  11.821  -0.552  0.00  0.00    -0.265 OA
ENDROOT
BRANCH   5   8
ATOM      8  C   UNL d   1      13.339  11.780  -2.264  0.00  0.00     0.080 C 
BRANCH   8   9
ATOM      9  C   UNL d   1      13.506  12.231  -2.930  0.00  0.00     0.297 C 
ATOM     10  O   UNL d   1      13.643  13.044  -2.855  0.00  0.00    -0.259 OA
BRANCH   9  11
ATOM     11  O   UNL d   1      13.538  11.885  -3.672  0.00  0.00    -0.296 OA
ATOM     12  C   UNL d   1      12.942  12.021  -4.219  0.00  0.00     0.185 C 
ENDBRANCH   9  11
ENDBRANCH   8   9
ENDBRANCH   5   8
TORSDOF 3
ENDMDL
