MODEL 1
REMARK VINA RESULT:       7.1      0.000      0.000
REMARK  4 active torsions:
REMARK  status: ('A' for Active; 'I' for Inactive)
REMARK    1  A    between atoms: N_5  and  C_1 
REMARK    2  A    between atoms: C_10  and  C_2 
REMARK    3  A    between atoms: C_12  and  N_3 
REMARK       I    between atoms: C_8  and  N_5 
REMARK    4  A    between atoms: C_9  and  C_8 
ROOT
ATOM      1  C   UNL d   1      29.623  17.599 -24.164  0.00  0.00     0.170 A 
ATOM      2  C   UNL d   1      29.965  18.286 -24.471  0.00  0.00     0.076 A 
ATOM      3  N   UNL d   1      28.798  17.511 -24.167  0.00  0.00    -0.212 N 
ATOM      4  N   UNL d   1      28.325  18.113 -24.477  0.00  0.00    -0.161 NA
ATOM      5  C   UNL d   1      29.483  18.886 -24.781  0.00  0.00     0.218 A 
ATOM      6  C   UNL d   1      28.666  18.800 -24.784  0.00  0.00     0.140 A 
ATOM      7  O   UNL d   1      29.825  19.574 -25.088  0.00  0.00    -0.285 OA
ATOM      8  C   UNL d   1      28.193  19.406 -25.096  0.00  0.00     0.026 C 
ENDROOT
BRANCH   1   9
ATOM      9  N   UNL d   1      30.094  17.005 -23.858  0.00  0.00    -0.188 NA
ATOM     10  C   UNL d   1      30.447  16.259 -23.928  0.00  0.00     0.286 C 
ATOM     11  O   UNL d   1      30.317  15.821 -24.612  0.00  0.00    -0.265 OA
BRANCH  10  12
ATOM     12  C   UNL d   1      30.915  15.968 -23.324  0.00  0.00     0.087 A 
ATOM     13  S   UNL d   1      31.690  15.686 -23.391  0.00  0.00    -0.082 SA
ATOM     14  C   UNL d   1      31.937  15.453 -22.641  0.00  0.00     0.036 A 
ATOM     15  C   UNL d   1      31.330  15.584 -22.108  0.00  0.00     0.008 A 
ATOM     16  C   UNL d   1      30.690  15.907 -22.531  0.00  0.00     0.012 A 
ENDBRANCH  10  12
ENDBRANCH   1   9
BRANCH   2  17
ATOM     17  C   UNL d   1      30.781  18.377 -24.470  0.00  0.00     0.006 A 
ATOM     18  C   UNL d   1      31.226  18.090 -25.097  0.00  0.00     0.001 A 
ATOM     19  C   UNL d   1      32.052  18.182 -25.096  0.00  0.00     0.011 A 
ATOM     20  C   UNL d   1      32.419  18.561 -24.464  0.00  0.00     0.058 A 
ATOM     21  C   UNL d   1      31.970  18.851 -23.829  0.00  0.00     0.011 A 
ATOM     22 CL   UNL d   1      33.239  18.650 -24.466  0.00  0.00    -0.082 Cl
ATOM     23  C   UNL d   1      31.152  18.757 -23.838  0.00  0.00     0.001 A 
ENDBRANCH   2  17
BRANCH   3  24
ATOM     24  C   UNL d   1      28.456  16.827 -23.862  0.00  0.00     0.085 A 
ATOM     25  C   UNL d   1      28.180  16.243 -24.377  0.00  0.00     0.019 A 
ATOM     26  C   UNL d   1      27.835  15.552 -24.067  0.00  0.00     0.002 A 
ATOM     27  C   UNL d   1      27.769  15.454 -23.257  0.00  0.00     0.000 A 
ATOM     28  C   UNL d   1      28.048  16.046 -22.746  0.00  0.00     0.002 A 
ATOM     29  C   UNL d   1      28.390  16.729 -23.052  0.00  0.00     0.019 A 
ENDBRANCH   3  24
TORSDOF 4
ENDMDL
MODEL 2
REMARK VINA RESULT:       7.1      1.639      3.231
REMARK  4 active torsions:
REMARK  status: ('A' for Active; 'I' for Inactive)
REMARK    1  A    between atoms: N_5  and  C_1 
REMARK    2  A    between atoms: C_10  and  C_2 
REMARK    3  A    between atoms: C_12  and  N_3 
REMARK       I    between atoms: C_8  and  N_5 
REMARK    4  A    between atoms: C_9  and  C_8 
ROOT
ATOM      1  C   UNL d   1      31.220  17.675 -24.153  0.00  0.00     0.170 A 
ATOM      2  C   UNL d   1      30.829  18.341 -24.445  0.00  0.00     0.076 A 
ATOM      3  N   UNL d   1      32.050  17.641 -24.175  0.00  0.00    -0.212 N 
ATOM      4  N   UNL d   1      32.476  18.275 -24.489  0.00  0.00    -0.161 NA
ATOM      5  C   UNL d   1      31.263  18.974 -24.758  0.00  0.00     0.218 A 
ATOM      6  C   UNL d   1      32.084  18.941 -24.780  0.00  0.00     0.140 A 
ATOM      7  O   UNL d   1      30.871  19.641 -25.050  0.00  0.00    -0.285 OA
ATOM      8  C   UNL d   1      32.510  19.579 -25.096  0.00  0.00     0.026 C 
ENDROOT
BRANCH   1   9
ATOM      9  N   UNL d   1      30.796  17.049 -23.843  0.00  0.00    -0.188 NA
ATOM     10  C   UNL d   1      30.499  16.279 -23.910  0.00  0.00     0.286 C 
ATOM     11  O   UNL d   1      30.656  15.849 -24.594  0.00  0.00    -0.265 OA
BRANCH  10  12
ATOM     12  C   UNL d   1      30.056  15.956 -23.302  0.00  0.00     0.087 A 
ATOM     13  S   UNL d   1      30.325  15.762 -22.544  0.00  0.00    -0.082 SA
ATOM     14  C   UNL d   1      29.687  15.455 -22.124  0.00  0.00     0.036 A 
ATOM     15  C   UNL d   1      29.026  15.453 -22.606  0.00  0.00     0.008 A 
ATOM     16  C   UNL d   1      29.253  15.766 -23.343  0.00  0.00     0.012 A 
ENDBRANCH  10  12
ENDBRANCH   1   9
BRANCH   2  17
ATOM     17  C   UNL d   1      30.008  18.379 -24.425  0.00  0.00     0.006 A 
ATOM     18  C   UNL d   1      29.625  18.613 -23.738  0.00  0.00     0.001 A 
ATOM     19  C   UNL d   1      28.795  18.651 -23.718  0.00  0.00     0.011 A 
ATOM     20  C   UNL d   1      28.362  18.453 -24.389  0.00  0.00     0.058 A 
ATOM     21  C   UNL d   1      28.748  18.216 -25.085  0.00  0.00     0.011 A 
ATOM     22 CL   UNL d   1      27.538  18.491 -24.366  0.00  0.00    -0.082 Cl
ATOM     23  C   UNL d   1      29.571  18.181 -25.096  0.00  0.00     0.001 A 
ENDBRANCH   2  17
BRANCH   3  24
ATOM     24  C   UNL d   1      32.442  16.978 -23.885  0.00  0.00     0.085 A 
ATOM     25  C   UNL d   1      32.619  16.351 -24.394  0.00  0.00     0.019 A 
ATOM     26  C   UNL d   1      33.015  15.682 -24.100  0.00  0.00     0.002 A 
ATOM     27  C   UNL d   1      33.228  15.645 -23.310  0.00  0.00     0.000 A 
ATOM     28  C   UNL d   1      33.047  16.278 -22.805  0.00  0.00     0.002 A 
ATOM     29  C   UNL d   1      32.655  16.941 -23.095  0.00  0.00     0.019 A 
ENDBRANCH   3  24
TORSDOF 4
ENDMDL
