MODEL 1
REMARK VINA RESULT:      -6.7      0.000      0.000
REMARK  7 active torsions:
REMARK  status: ('A' for Active; 'I' for Inactive)
REMARK    1  A    between atoms: C_14  and  N_1 
REMARK    2  A    between atoms: C_2  and  C_5 
REMARK    3  A    between atoms: C_6  and  C_2 
REMARK    4  A    between atoms: C_7  and  C_3 
REMARK    5  A    between atoms: C_5  and  C_7 
REMARK    6  A    between atoms: O_15  and  C_6 
REMARK    7  A    between atoms: C_18  and  O_15 
ROOT
ATOM      1  C   UNL d   1     -46.127  13.296  22.761  0.00  0.00     0.132 C 
ATOM      2  C   UNL d   1     -46.093  14.109  22.680  0.00  0.00     0.106 C 
ATOM      3  N   UNL d   1     -46.067  14.904  22.603  0.00  0.00    -0.191 NA
ENDROOT
BRANCH   1   4
ATOM      4  C   UNL d   1     -46.818  12.918  23.006  0.00  0.00     0.017 C 
BRANCH   4   5
ATOM      5  C   UNL d   1     -47.509  13.110  22.673  0.00  0.00     0.018 C 
BRANCH   5   6
ATOM      6  C   UNL d   1     -48.198  12.743  22.926  0.00  0.00     0.064 A 
ATOM      7  N   UNL d   1     -48.949  13.030  22.675  0.00  0.00    -0.305 N 
ATOM      8  C   UNL d   1     -49.641  12.649  22.939  0.00  0.00     0.064 A 
ATOM      9  C   UNL d   1     -49.598  11.998  23.440  0.00  0.00     0.016 A 
ATOM     10  C   UNL d   1     -50.374  12.938  22.688  0.00  0.00     0.018 A 
ATOM     11  C   UNL d   1     -48.852  11.712  23.690  0.00  0.00     0.003 A 
ATOM     12  C   UNL d   1     -50.287  11.631  23.693  0.00  0.00     0.001 A 
ATOM     13  C   UNL d   1     -48.163  12.079  23.437  0.00  0.00     0.018 A 
ATOM     14  C   UNL d   1     -51.030  11.910  23.449  0.00  0.00     0.000 A 
ATOM     15  C   UNL d   1     -51.064  12.571  22.941  0.00  0.00     0.002 A 
BRANCH   7  16
ATOM     16  C   UNL d   1     -49.001  13.684  22.172  0.00  0.00     0.080 C 
ATOM     17  C   UNL d   1     -49.161  13.564  21.363  0.00  0.00     0.021 C 
ENDBRANCH   7  16
ENDBRANCH   5   6
ENDBRANCH   4   5
ENDBRANCH   1   4
BRANCH   1  18
ATOM     18  C   UNL d   1     -45.465  12.878  22.593  0.00  0.00     0.310 C 
ATOM     19  O   UNL d   1     -45.284  12.237  23.031  0.00  0.00    -0.258 OA
BRANCH  18  20
ATOM     20  O   UNL d   1     -45.023  13.066  22.052  0.00  0.00    -0.271 OA
BRANCH  20  21
ATOM     21  C   UNL d   1     -44.272  12.638  21.906  0.00  0.00     0.126 C 
ATOM     22  C   UNL d   1     -43.741  12.870  21.306  0.00  0.00     0.029 C 
ENDBRANCH  20  21
ENDBRANCH  18  20
ENDBRANCH   1  18
TORSDOF 7
ENDMDL
MODEL 2
REMARK VINA RESULT:      -6.5      2.177      4.251
REMARK  7 active torsions:
REMARK  status: ('A' for Active; 'I' for Inactive)
REMARK    1  A    between atoms: C_14  and  N_1 
REMARK    2  A    between atoms: C_2  and  C_5 
REMARK    3  A    between atoms: C_6  and  C_2 
REMARK    4  A    between atoms: C_7  and  C_3 
REMARK    5  A    between atoms: C_5  and  C_7 
REMARK    6  A    between atoms: O_15  and  C_6 
REMARK    7  A    between atoms: C_18  and  O_15 
ROOT
ATOM      1  C   UNL d   1     -49.764  13.310  22.681  0.00  0.00     0.132 C 
ATOM      2  C   UNL d   1     -49.878  13.285  21.871  0.00  0.00     0.106 C 
ATOM      3  N   UNL d   1     -49.984  13.256  21.080  0.00  0.00    -0.191 NA
ENDROOT
BRANCH   1   4
ATOM      4  C   UNL d   1     -49.177  12.860  23.046  0.00  0.00     0.017 C 
BRANCH   4   5
ATOM      5  C   UNL d   1     -48.415  13.022  22.907  0.00  0.00     0.018 C 
BRANCH   5   6
ATOM      6  C   UNL d   1     -47.840  12.471  23.102  0.00  0.00     0.064 A 
ATOM      7  N   UNL d   1     -47.032  12.616  22.916  0.00  0.00    -0.305 N 
ATOM      8  C   UNL d   1     -46.457  12.048  23.119  0.00  0.00     0.064 A 
ATOM      9  C   UNL d   1     -46.672  11.350  23.498  0.00  0.00     0.016 A 
ATOM     10  C   UNL d   1     -45.666  12.200  22.932  0.00  0.00     0.018 A 
ATOM     11  C   UNL d   1     -47.474  11.205  23.683  0.00  0.00     0.003 A 
ATOM     12  C   UNL d   1     -46.096  10.798  23.693  0.00  0.00     0.001 A 
ATOM     13  C   UNL d   1     -48.050  11.757  23.488  0.00  0.00     0.018 A 
ATOM     14  C   UNL d   1     -45.297  10.936  23.512  0.00  0.00     0.000 A 
ATOM     15  C   UNL d   1     -45.090  11.648  23.127  0.00  0.00     0.002 A 
BRANCH   7  16
ATOM     16  C   UNL d   1     -46.809  13.316  22.535  0.00  0.00     0.080 C 
ATOM     17  C   UNL d   1     -46.605  13.981  22.993  0.00  0.00     0.021 C 
ENDBRANCH   7  16
ENDBRANCH   5   6
ENDBRANCH   4   5
ENDBRANCH   1   4
BRANCH   1  18
ATOM     18  C   UNL d   1     -50.243  13.789  23.109  0.00  0.00     0.310 C 
ATOM     19  O   UNL d   1     -50.740  13.469  23.644  0.00  0.00    -0.258 OA
BRANCH  18  20
ATOM     20  O   UNL d   1     -50.238  14.506  23.024  0.00  0.00    -0.271 OA
BRANCH  20  21
ATOM     21  C   UNL d   1     -50.456  15.046  23.680  0.00  0.00     0.126 C 
ATOM     22  C   UNL d   1     -50.265  15.858  23.667  0.00  0.00     0.029 C 
ENDBRANCH  20  21
ENDBRANCH  18  20
ENDBRANCH   1  18
TORSDOF 7
ENDMDL
MODEL 3
REMARK VINA RESULT:      -5.9      1.361      1.851
REMARK  7 active torsions:
REMARK  status: ('A' for Active; 'I' for Inactive)
REMARK    1  A    between atoms: C_14  and  N_1 
REMARK    2  A    between atoms: C_2  and  C_5 
REMARK    3  A    between atoms: C_6  and  C_2 
REMARK    4  A    between atoms: C_7  and  C_3 
REMARK    5  A    between atoms: C_5  and  C_7 
REMARK    6  A    between atoms: O_15  and  C_6 
REMARK    7  A    between atoms: C_18  and  O_15 
ROOT
ATOM      1  C   UNL d   1     -46.271  13.006  22.942  0.00  0.00     0.132 C 
ATOM      2  C   UNL d   1     -46.199  12.285  23.324  0.00  0.00     0.106 C 
ATOM      3  N   UNL d   1     -46.136  11.583  23.698  0.00  0.00    -0.191 NA
ENDROOT
BRANCH   1   4
ATOM      4  C   UNL d   1     -46.985  13.418  22.935  0.00  0.00     0.017 C 
BRANCH   4   5
ATOM      5  C   UNL d   1     -47.633  13.074  22.639  0.00  0.00     0.018 C 
BRANCH   5   6
ATOM      6  C   UNL d   1     -48.330  13.502  22.583  0.00  0.00     0.064 A 
ATOM      7  N   UNL d   1     -48.954  13.235  22.085  0.00  0.00    -0.305 N 
ATOM      8  C   UNL d   1     -49.658  13.678  22.036  0.00  0.00     0.064 A 
ATOM      9  C   UNL d   1     -49.748  14.372  22.469  0.00  0.00     0.016 A 
ATOM     10  C   UNL d   1     -50.265  13.407  21.544  0.00  0.00     0.018 A 
ATOM     11  C   UNL d   1     -49.129  14.639  22.964  0.00  0.00     0.003 A 
ATOM     12  C   UNL d   1     -50.446  14.800  22.413  0.00  0.00     0.001 A 
ATOM     13  C   UNL d   1     -48.431  14.211  23.020  0.00  0.00     0.018 A 
ATOM     14  C   UNL d   1     -51.064  14.541  21.923  0.00  0.00     0.000 A 
ATOM     15  C   UNL d   1     -50.964  13.836  21.488  0.00  0.00     0.002 A 
BRANCH   7  16
ATOM     16  C   UNL d   1     -48.871  12.538  21.646  0.00  0.00     0.080 C 
ATOM     17  C   UNL d   1     -49.193  11.830  21.943  0.00  0.00     0.021 C 
ENDBRANCH   7  16
ENDBRANCH   5   6
ENDBRANCH   4   5
ENDBRANCH   1   4
BRANCH   1  18
ATOM     18  C   UNL d   1     -45.622  13.297  22.575  0.00  0.00     0.310 C 
ATOM     19  O   UNL d   1     -45.446  14.072  22.646  0.00  0.00    -0.258 OA
BRANCH  18  20
ATOM     20  O   UNL d   1     -45.188  12.876  22.179  0.00  0.00    -0.271 OA
BRANCH  20  21
ATOM     21  C   UNL d   1     -44.472  13.198  21.787  0.00  0.00     0.126 C 
ATOM     22  C   UNL d   1     -43.905  12.704  21.426  0.00  0.00     0.029 C 
ENDBRANCH  20  21
ENDBRANCH  18  20
ENDBRANCH   1  18
TORSDOF 7
ENDMDL
MODEL 4
REMARK VINA RESULT:      -5.6      1.398      2.331
REMARK  7 active torsions:
REMARK  status: ('A' for Active; 'I' for Inactive)
REMARK    1  A    between atoms: C_14  and  N_1 
REMARK    2  A    between atoms: C_2  and  C_5 
REMARK    3  A    between atoms: C_6  and  C_2 
REMARK    4  A    between atoms: C_7  and  C_3 
REMARK    5  A    between atoms: C_5  and  C_7 
REMARK    6  A    between atoms: O_15  and  C_6 
REMARK    7  A    between atoms: C_18  and  O_15 
ROOT
ATOM      1  C   UNL d   1     -45.253  12.078  22.863  0.00  0.00     0.132 C 
ATOM      2  C   UNL d   1     -45.473  11.413  23.284  0.00  0.00     0.106 C 
ATOM      3  N   UNL d   1     -45.694  10.766  23.697  0.00  0.00    -0.191 NA
ENDROOT
BRANCH   1   4
ATOM      4  C   UNL d   1     -45.752  12.732  22.803  0.00  0.00     0.017 C 
BRANCH   4   5
ATOM      5  C   UNL d   1     -46.520  12.626  22.646  0.00  0.00     0.018 C 
BRANCH   5   6
ATOM      6  C   UNL d   1     -47.024  13.272  22.629  0.00  0.00     0.064 A 
ATOM      7  N   UNL d   1     -47.799  13.199  22.308  0.00  0.00    -0.305 N 
ATOM      8  C   UNL d   1     -48.303  13.862  22.297  0.00  0.00     0.064 A 
ATOM      9  C   UNL d   1     -48.050  14.586  22.596  0.00  0.00     0.016 A 
ATOM     10  C   UNL d   1     -49.062  13.780  21.979  0.00  0.00     0.018 A 
ATOM     11  C   UNL d   1     -47.280  14.661  22.915  0.00  0.00     0.003 A 
ATOM     12  C   UNL d   1     -48.555  15.233  22.579  0.00  0.00     0.001 A 
ATOM     13  C   UNL d   1     -46.775  14.014  22.932  0.00  0.00     0.018 A 
ATOM     14  C   UNL d   1     -49.320  15.166  22.264  0.00  0.00     0.000 A 
ATOM     15  C   UNL d   1     -49.567  14.427  21.963  0.00  0.00     0.002 A 
BRANCH   7  16
ATOM     16  C   UNL d   1     -48.061  12.474  22.006  0.00  0.00     0.080 C 
ATOM     17  C   UNL d   1     -48.423  11.927  22.518  0.00  0.00     0.021 C 
ENDBRANCH   7  16
ENDBRANCH   5   6
ENDBRANCH   4   5
ENDBRANCH   1   4
BRANCH   1  18
ATOM     18  C   UNL d   1     -44.534  12.073  22.509  0.00  0.00     0.310 C 
ATOM     19  O   UNL d   1     -43.991  11.534  22.732  0.00  0.00    -0.258 OA
BRANCH  18  20
ATOM     20  O   UNL d   1     -44.363  12.547  21.990  0.00  0.00    -0.271 OA
BRANCH  20  21
ATOM     21  C   UNL d   1     -43.535  12.647  21.718  0.00  0.00     0.126 C 
ATOM     22  C   UNL d   1     -43.343  13.095  21.041  0.00  0.00     0.029 C 
ENDBRANCH  20  21
ENDBRANCH  18  20
ENDBRANCH   1  18
TORSDOF 7
ENDMDL
MODEL 5
REMARK VINA RESULT:      -5.5      7.999      9.889
REMARK  7 active torsions:
REMARK  status: ('A' for Active; 'I' for Inactive)
REMARK    1  A    between atoms: C_14  and  N_1 
REMARK    2  A    between atoms: C_2  and  C_5 
REMARK    3  A    between atoms: C_6  and  C_2 
REMARK    4  A    between atoms: C_7  and  C_3 
REMARK    5  A    between atoms: C_5  and  C_7 
REMARK    6  A    between atoms: O_15  and  C_6 
REMARK    7  A    between atoms: C_18  and  O_15 
ROOT
ATOM      1  C   UNL d   1     -39.677  14.584  17.534  0.00  0.00     0.132 C 
ATOM      2  C   UNL d   1     -40.384  14.891  17.259  0.00  0.00     0.106 C 
ATOM      3  N   UNL d   1     -41.074  15.195  16.997  0.00  0.00    -0.191 NA
ENDROOT
BRANCH   1   4
ATOM      4  C   UNL d   1     -39.327  14.866  18.225  0.00  0.00     0.017 C 
BRANCH   4   5
ATOM      5  C   UNL d   1     -39.712  14.806  18.913  0.00  0.00     0.018 C 
BRANCH   5   6
ATOM      6  C   UNL d   1     -39.359  15.076  19.602  0.00  0.00     0.064 A 
ATOM      7  N   UNL d   1     -39.604  14.778  20.351  0.00  0.00    -0.305 N 
ATOM      8  C   UNL d   1     -39.238  15.060  21.044  0.00  0.00     0.064 A 
ATOM      9  C   UNL d   1     -38.641  15.625  21.003  0.00  0.00     0.016 A 
ATOM     10  C   UNL d   1     -39.485  14.762  21.774  0.00  0.00     0.018 A 
ATOM     11  C   UNL d   1     -38.396  15.922  20.260  0.00  0.00     0.003 A 
ATOM     12  C   UNL d   1     -38.287  15.896  21.693  0.00  0.00     0.001 A 
ATOM     13  C   UNL d   1     -38.750  15.651  19.570  0.00  0.00     0.018 A 
ATOM     14  C   UNL d   1     -38.526  15.605  22.433  0.00  0.00     0.000 A 
ATOM     15  C   UNL d   1     -39.132  15.033  22.464  0.00  0.00     0.002 A 
BRANCH   7  16
ATOM     16  C   UNL d   1     -40.204  14.210  20.400  0.00  0.00     0.080 C 
ATOM     17  C   UNL d   1     -40.961  14.439  20.660  0.00  0.00     0.021 C 
ENDBRANCH   7  16
ENDBRANCH   5   6
ENDBRANCH   4   5
ENDBRANCH   1   4
BRANCH   1  18
ATOM     18  C   UNL d   1     -39.336  13.998  17.108  0.00  0.00     0.310 C 
ATOM     19  O   UNL d   1     -39.481  13.238  17.300  0.00  0.00    -0.258 OA
BRANCH  18  20
ATOM     20  O   UNL d   1     -38.898  14.139  16.551  0.00  0.00    -0.271 OA
BRANCH  20  21
ATOM     21  C   UNL d   1     -38.368  13.524  16.219  0.00  0.00     0.126 C 
ATOM     22  C   UNL d   1     -37.961  13.632  15.499  0.00  0.00     0.029 C 
ENDBRANCH  20  21
ENDBRANCH  18  20
ENDBRANCH   1  18
TORSDOF 7
ENDMDL
MODEL 6
REMARK VINA RESULT:      -4.6      2.060      4.514
REMARK  7 active torsions:
REMARK  status: ('A' for Active; 'I' for Inactive)
REMARK    1  A    between atoms: C_14  and  N_1 
REMARK    2  A    between atoms: C_2  and  C_5 
REMARK    3  A    between atoms: C_6  and  C_2 
REMARK    4  A    between atoms: C_7  and  C_3 
REMARK    5  A    between atoms: C_5  and  C_7 
REMARK    6  A    between atoms: O_15  and  C_6 
REMARK    7  A    between atoms: C_18  and  O_15 
ROOT
ATOM      1  C   UNL d   1     -49.998  14.352  22.667  0.00  0.00     0.132 C 
ATOM      2  C   UNL d   1     -50.416  14.743  22.084  0.00  0.00     0.106 C 
ATOM      3  N   UNL d   1     -50.819  15.128  21.511  0.00  0.00    -0.191 NA
ENDROOT
BRANCH   1   4
ATOM      4  C   UNL d   1     -49.175  14.399  22.710  0.00  0.00     0.017 C 
BRANCH   4   5
ATOM      5  C   UNL d   1     -48.731  13.924  22.259  0.00  0.00     0.018 C 
BRANCH   5   6
ATOM      6  C   UNL d   1     -47.914  13.946  22.328  0.00  0.00     0.064 A 
ATOM      7  N   UNL d   1     -47.446  13.313  22.028  0.00  0.00    -0.305 N 
ATOM      8  C   UNL d   1     -46.617  13.347  22.104  0.00  0.00     0.064 A 
ATOM      9  C   UNL d   1     -46.254  13.990  22.467  0.00  0.00     0.016 A 
ATOM     10  C   UNL d   1     -46.165  12.721  21.806  0.00  0.00     0.018 A 
ATOM     11  C   UNL d   1     -46.718  14.619  22.765  0.00  0.00     0.003 A 
ATOM     12  C   UNL d   1     -45.436  14.011  22.536  0.00  0.00     0.001 A 
ATOM     13  C   UNL d   1     -47.536  14.597  22.696  0.00  0.00     0.018 A 
ATOM     14  C   UNL d   1     -44.969  13.390  22.242  0.00  0.00     0.000 A 
ATOM     15  C   UNL d   1     -45.347  12.743  21.875  0.00  0.00     0.002 A 
BRANCH   7  16
ATOM     16  C   UNL d   1     -47.804  12.664  21.661  0.00  0.00     0.080 C 
ATOM     17  C   UNL d   1     -48.026  12.720  20.861  0.00  0.00     0.021 C 
ENDBRANCH   7  16
ENDBRANCH   5   6
ENDBRANCH   4   5
ENDBRANCH   1   4
BRANCH   1  18
ATOM     18  C   UNL d   1     -50.414  13.920  23.197  0.00  0.00     0.310 C 
ATOM     19  O   UNL d   1     -50.916  14.288  23.695  0.00  0.00    -0.258 OA
BRANCH  18  20
ATOM     20  O   UNL d   1     -50.348  13.201  23.237  0.00  0.00    -0.271 OA
BRANCH  20  21
ATOM     21  C   UNL d   1     -51.019  12.693  23.485  0.00  0.00     0.126 C 
ATOM     22  C   UNL d   1     -50.915  11.892  23.691  0.00  0.00     0.029 C 
ENDBRANCH  20  21
ENDBRANCH  18  20
ENDBRANCH   1  18
TORSDOF 7
ENDMDL
