MODEL 1
REMARK VINA RESULT:      -9.7      0.000      0.000
REMARK  6 active torsions:
REMARK  status: ('A' for Active; 'I' for Inactive)
REMARK    1  A    between atoms: C_19  and  N_1 
REMARK    2  A    between atoms: S_12  and  C_2 
REMARK       I    between atoms: N_7  and  C_10 
REMARK    3  A    between atoms: C_10  and  C_23 
REMARK    4  A    between atoms: C_23  and  S_12 
REMARK    5  A    between atoms: O_26  and  C_17 
REMARK    6  A    between atoms: O_27  and  C_18 
ROOT
ATOM      1  S   UNL d   1      52.587  33.061  53.471  0.00  0.00    -0.044 SA
ENDROOT
BRANCH   1   2
ATOM      2  C   UNL d   1      52.813  32.271  53.448  0.00  0.00     0.183 A 
ATOM      3  N   UNL d   1      53.540  32.038  53.769  0.00  0.00    -0.254 N 
ATOM      4  C   UNL d   1      53.769  31.246  53.748  0.00  0.00     0.271 A 
ATOM      5  C   UNL d   1      53.271  30.681  53.405  0.00  0.00     0.115 A 
ATOM      6  O   UNL d   1      54.501  31.018  54.072  0.00  0.00    -0.266 OA
ATOM      7  C   UNL d   1      52.542  30.918  53.084  0.00  0.00     0.192 A 
ATOM      8  C   UNL d   1      53.343  29.864  53.302  0.00  0.00     0.130 A 
ATOM      9  N   UNL d   1      52.172  30.243  52.785  0.00  0.00    -0.128 NA
ATOM     10  N   UNL d   1      52.315  31.707  53.106  0.00  0.00    -0.201 NA
ATOM     11  N   UNL d   1      52.660  29.604  52.919  0.00  0.00    -0.145 NA
BRANCH   3  12
ATOM     12  C   UNL d   1      54.036  32.600  54.111  0.00  0.00     0.069 A 
ATOM     13  C   UNL d   1      54.573  33.014  53.641  0.00  0.00     0.018 A 
ATOM     14  C   UNL d   1      55.074  33.581  53.986  0.00  0.00     0.002 A 
ATOM     15  C   UNL d   1      55.032  33.728  54.796  0.00  0.00     0.000 A 
ATOM     16  C   UNL d   1      54.496  33.315  55.262  0.00  0.00     0.002 A 
ATOM     17  C   UNL d   1      53.995  32.748  54.917  0.00  0.00     0.018 A 
ENDBRANCH   3  12
ENDBRANCH   1   2
BRANCH   1  18
ATOM     18  C   UNL d   1      51.935  33.316  53.033  0.00  0.00     0.099 C 
BRANCH  18  19
ATOM     19  C   UNL d   1      51.411  33.860  53.355  0.00  0.00     0.271 C 
ATOM     20  N   UNL d   1      50.751  34.109  52.921  0.00  0.00    -0.272 N 
ATOM     21  C   UNL d   1      50.223  34.656  53.244  0.00  0.00     0.083 A 
ATOM     22  C   UNL d   1      50.621  33.809  52.166  0.00  0.00     0.083 A 
ATOM     23  C   UNL d   1      49.569  34.900  52.810  0.00  0.00     0.020 A 
ATOM     24  C   UNL d   1      49.046  35.444  53.133  0.00  0.00     0.028 A 
ATOM     25  C   UNL d   1      49.439  34.600  52.055  0.00  0.00     0.005 A 
ATOM     26  C   UNL d   1      48.385  35.693  52.699  0.00  0.00     0.116 A 
ATOM     27  C   UNL d   1      48.255  35.393  51.944  0.00  0.00     0.116 A 
ATOM     28  C   UNL d   1      48.786  34.844  51.623  0.00  0.00     0.026 A 
ATOM     29  C   UNL d   1      49.964  34.056  51.733  0.00  0.00     0.019 A 
ATOM     30  O   UNL d   1      51.546  34.158  54.111  0.00  0.00    -0.266 OA
BRANCH  26  31
ATOM     31  O   UNL d   1      47.857  36.240  53.022  0.00  0.00    -0.326 OA
ATOM     32  C   UNL d   1      47.971  36.531  53.783  0.00  0.00     0.181 C 
ENDBRANCH  26  31
BRANCH  27  33
ATOM     33  O   UNL d   1      47.595  35.635  51.499  0.00  0.00    -0.326 OA
ATOM     34  C   UNL d   1      47.366  35.211  50.832  0.00  0.00     0.181 C 
ENDBRANCH  27  33
ENDBRANCH  18  19
ENDBRANCH   1  18
TORSDOF 6
ENDMDL
MODEL 2
REMARK VINA RESULT:      -9.1      1.077      2.605
REMARK  6 active torsions:
REMARK  status: ('A' for Active; 'I' for Inactive)
REMARK    1  A    between atoms: C_19  and  N_1 
REMARK    2  A    between atoms: S_12  and  C_2 
REMARK       I    between atoms: N_7  and  C_10 
REMARK    3  A    between atoms: C_10  and  C_23 
REMARK    4  A    between atoms: C_23  and  S_12 
REMARK    5  A    between atoms: O_26  and  C_17 
REMARK    6  A    between atoms: O_27  and  C_18 
ROOT
ATOM      1  S   UNL d   1      52.331  33.227  53.171  0.00  0.00    -0.044 SA
ENDROOT
BRANCH   1   2
ATOM      2  C   UNL d   1      52.985  33.237  53.670  0.00  0.00     0.183 A 
ATOM      3  N   UNL d   1      53.388  32.534  53.841  0.00  0.00    -0.254 N 
ATOM      4  C   UNL d   1      54.044  32.542  54.341  0.00  0.00     0.271 A 
ATOM      5  C   UNL d   1      54.301  33.255  54.673  0.00  0.00     0.115 A 
ATOM      6  O   UNL d   1      54.445  31.832  54.510  0.00  0.00    -0.266 OA
ATOM      7  C   UNL d   1      53.895  33.959  54.499  0.00  0.00     0.192 A 
ATOM      8  C   UNL d   1      54.926  33.439  55.183  0.00  0.00     0.130 A 
ATOM      9  N   UNL d   1      54.275  34.570  54.904  0.00  0.00    -0.128 NA
ATOM     10  N   UNL d   1      53.242  33.950  54.001  0.00  0.00    -0.201 NA
ATOM     11  N   UNL d   1      54.901  34.252  55.319  0.00  0.00    -0.145 NA
BRANCH   3  12
ATOM     12  C   UNL d   1      53.132  31.825  53.511  0.00  0.00     0.069 A 
ATOM     13  C   UNL d   1      52.529  31.395  53.876  0.00  0.00     0.018 A 
ATOM     14  C   UNL d   1      52.271  30.678  53.542  0.00  0.00     0.002 A 
ATOM     15  C   UNL d   1      52.617  30.399  52.848  0.00  0.00     0.000 A 
ATOM     16  C   UNL d   1      53.217  30.828  52.486  0.00  0.00     0.002 A 
ATOM     17  C   UNL d   1      53.476  31.545  52.820  0.00  0.00     0.018 A 
ENDBRANCH   3  12
ENDBRANCH   1   2
BRANCH   1  18
ATOM     18  C   UNL d   1      51.792  33.851  53.186  0.00  0.00     0.099 C 
BRANCH  18  19
ATOM     19  C   UNL d   1      51.253  33.942  52.572  0.00  0.00     0.271 C 
ATOM     20  N   UNL d   1      50.543  34.350  52.700  0.00  0.00    -0.272 N 
ATOM     21  C   UNL d   1      50.000  34.443  52.085  0.00  0.00     0.083 A 
ATOM     22  C   UNL d   1      50.380  34.665  53.443  0.00  0.00     0.083 A 
ATOM     23  C   UNL d   1      49.298  34.848  52.216  0.00  0.00     0.020 A 
ATOM     24  C   UNL d   1      48.759  34.939  51.603  0.00  0.00     0.028 A 
ATOM     25  C   UNL d   1      49.135  35.163  52.959  0.00  0.00     0.005 A 
ATOM     26  C   UNL d   1      48.049  35.347  51.730  0.00  0.00     0.116 A 
ATOM     27  C   UNL d   1      47.886  35.662  52.473  0.00  0.00     0.116 A 
ATOM     28  C   UNL d   1      48.433  35.568  53.088  0.00  0.00     0.026 A 
ATOM     29  C   UNL d   1      49.674  35.072  53.571  0.00  0.00     0.019 A 
ATOM     30  O   UNL d   1      51.420  33.626  51.831  0.00  0.00    -0.266 OA
BRANCH  26  31
ATOM     31  O   UNL d   1      47.506  35.439  51.115  0.00  0.00    -0.326 OA
ATOM     32  C   UNL d   1      47.263  34.790  50.672  0.00  0.00     0.181 C 
ENDBRANCH  26  31
BRANCH  27  33
ATOM     33  O   UNL d   1      47.177  36.073  52.613  0.00  0.00    -0.326 OA
ATOM     34  C   UNL d   1      47.080  36.510  53.303  0.00  0.00     0.181 C 
ENDBRANCH  27  33
ENDBRANCH  18  19
ENDBRANCH   1  18
TORSDOF 6
ENDMDL
