MODEL 1
REMARK VINA RESULT:      73.1      0.000      0.000
REMARK  5 active torsions:
REMARK  status: ('A' for Active; 'I' for Inactive)
REMARK    1  A    between atoms: C_11  and  N_3 
REMARK    2  A    between atoms: C_10  and  C_4 
REMARK    3  A    between atoms: C_15  and  C_11 
REMARK    4  A    between atoms: N_13  and  C_16 
REMARK    5  A    between atoms: C_16  and  C_15 
ROOT
ATOM      1  C   UNL d   1     -52.544  25.229  33.314  0.00  0.00     0.137 A 
ATOM      2  N   UNL d   1     -52.586  24.395  33.317  0.00  0.00    -0.259 N 
ATOM      3  N   UNL d   1     -51.744  25.431  33.312  0.00  0.00    -0.287 N 
ATOM      4  C   UNL d   1     -53.233  25.676  33.313  0.00  0.00     0.054 A 
ATOM      5  C   UNL d   1     -53.327  24.022  33.320  0.00  0.00     0.266 A 
ATOM      6  C   UNL d   1     -51.818  24.094  33.317  0.00  0.00     0.084 A 
ATOM      7  C   UNL d   1     -51.290  24.743  33.314  0.00  0.00     0.082 A 
ATOM      8  C   UNL d   1     -53.970  25.305  33.315  0.00  0.00     0.009 A 
ATOM      9  C   UNL d   1     -54.025  24.476  33.319  0.00  0.00     0.061 A 
ATOM     10  O   UNL d   1     -53.376  23.193  33.323  0.00  0.00    -0.267 OA
ATOM     11  C   UNL d   1     -51.520  23.328  33.320  0.00  0.00     0.019 A 
ATOM     12  C   UNL d   1     -54.666  25.757  33.314  0.00  0.00     0.000 C 
ATOM     13  C   UNL d   1     -50.485  24.600  33.313  0.00  0.00     0.019 A 
ATOM     14  C   UNL d   1     -50.710  23.203  33.319  0.00  0.00     0.002 A 
ATOM     15  C   UNL d   1     -50.187  23.846  33.316  0.00  0.00     0.002 A 
ENDROOT
BRANCH   3  16
ATOM     16  C   UNL d   1     -51.219  26.064  33.308  0.00  0.00     0.125 C 
BRANCH  16  17
ATOM     17  C   UNL d   1     -50.919  26.354  34.020  0.00  0.00     0.231 C 
ATOM     18  O   UNL d   1     -50.106  26.453  34.120  0.00  0.00    -0.283 OA
BRANCH  17  19
ATOM     19  C   UNL d   1     -51.433  26.548  34.635  0.00  0.00     0.124 C 
BRANCH  19  20
ATOM     20  N   UNL d   1     -51.136  26.711  35.385  0.00  0.00    -0.300 N 
ATOM     21  C   UNL d   1     -51.423  26.294  36.035  0.00  0.00     0.080 A 
ATOM     22  C   UNL d   1     -51.130  26.453  36.791  0.00  0.00     0.019 A 
ATOM     23  C   UNL d   1     -50.549  27.031  36.894  0.00  0.00     0.003 A 
ATOM     24  C   UNL d   1     -50.262  27.448  36.244  0.00  0.00     0.019 A 
ATOM     25  C   UNL d   1     -50.253  27.194  37.643  0.00  0.00     0.000 C 
ATOM     26  C   UNL d   1     -50.554  27.289  35.487  0.00  0.00     0.080 A 
ENDBRANCH  19  20
ENDBRANCH  17  19
ENDBRANCH  16  17
ENDBRANCH   3  16
BRANCH   4  27
ATOM     27  C   UNL d   1     -53.192  26.495  33.309  0.00  0.00     0.125 C 
ATOM     28  N   UNL d   1     -53.869  26.957  33.385  0.00  0.00    -0.146 N 
ENDBRANCH   4  27
TORSDOF 5
ENDMDL
