MODEL 1
REMARK VINA RESULT:      20.9      0.000      0.000
REMARK  0 active torsions:
REMARK  status: ('A' for Active; 'I' for Inactive)
ROOT
ATOM      1  N   UNL d   1      59.367  49.707  49.480  0.00  0.00    -0.208 NA
ATOM      2  C   UNL d   1      60.106  49.707  49.846  0.00  0.00     0.279 A 
ATOM      3  C   UNL d   1      59.476  49.706  51.130  0.00  0.00     0.006 A 
ATOM      4  C   UNL d   1      60.161  49.707  50.669  0.00  0.00     0.058 A 
ATOM      5  C   UNL d   1      58.678  49.707  49.941  0.00  0.00     0.085 A 
ATOM      6  C   UNL d   1      58.739  49.706  50.769  0.00  0.00     0.018 A 
ATOM      7  O   UNL d   1      60.791  49.707  49.383  0.00  0.00    -0.265 OA
ATOM      8  C   UNL d   1      59.532  49.706  51.945  0.00  0.00     0.000 A 
ATOM      9  C   UNL d   1      60.891  49.707  51.036  0.00  0.00     0.005 A 
ATOM     10  C   UNL d   1      58.058  49.706  51.230  0.00  0.00     0.002 A 
ATOM     11  C   UNL d   1      57.937  49.706  49.581  0.00  0.00     0.019 A 
ATOM     12  C   UNL d   1      60.261  49.706  52.304  0.00  0.00     0.000 A 
ATOM     13  C   UNL d   1      60.947  49.706  51.855  0.00  0.00     0.000 A 
ATOM     14  C   UNL d   1      57.312  49.706  50.865  0.00  0.00     0.000 A 
ATOM     15  C   UNL d   1      57.251  49.706  50.042  0.00  0.00     0.002 A 
ENDROOT
TORSDOF 0
ENDMDL
MODEL 2
REMARK VINA RESULT:      23.5      1.215      1.767
REMARK  0 active torsions:
REMARK  status: ('A' for Active; 'I' for Inactive)
ROOT
ATOM      1  N   UNL d   1      58.282  49.708  51.761  0.00  0.00    -0.208 NA
ATOM      2  C   UNL d   1      59.103  49.708  51.839  0.00  0.00     0.279 A 
ATOM      3  C   UNL d   1      59.245  49.707  50.415  0.00  0.00     0.006 A 
ATOM      4  C   UNL d   1      59.584  49.707  51.169  0.00  0.00     0.058 A 
ATOM      5  C   UNL d   1      57.940  49.707  51.005  0.00  0.00     0.085 A 
ATOM      6  C   UNL d   1      58.428  49.707  50.334  0.00  0.00     0.018 A 
ATOM      7  O   UNL d   1      59.442  49.708  52.593  0.00  0.00    -0.265 OA
ATOM      8  C   UNL d   1      59.722  49.707  49.752  0.00  0.00     0.000 A 
ATOM      9  C   UNL d   1      60.397  49.707  51.242  0.00  0.00     0.005 A 
ATOM     10  C   UNL d   1      58.092  49.707  49.583  0.00  0.00     0.002 A 
ATOM     11  C   UNL d   1      57.120  49.707  50.921  0.00  0.00     0.019 A 
ATOM     12  C   UNL d   1      60.531  49.707  49.832  0.00  0.00     0.000 A 
ATOM     13  C   UNL d   1      60.877  49.707  50.575  0.00  0.00     0.000 A 
ATOM     14  C   UNL d   1      57.266  49.707  49.500  0.00  0.00     0.000 A 
ATOM     15  C   UNL d   1      56.781  49.707  50.168  0.00  0.00     0.002 A 
ENDROOT
TORSDOF 0
ENDMDL
