MODEL 1
REMARK VINA RESULT:      28.5      0.000      0.000
REMARK  3 active torsions:
REMARK  status: ('A' for Active; 'I' for Inactive)
REMARK       I    between atoms: C_2  and  N_1 
REMARK    1  A    between atoms: C_6  and  C_2 
REMARK    2  A    between atoms: O_14  and  C_9 
REMARK    3  A    between atoms: O_16  and  C_11 
ROOT
ATOM      1  C   UNL d   1     -54.880-101.531 -38.429  0.00  0.00     0.060 A 
ATOM      2  C   UNL d   1     -54.922-101.137 -37.708  0.00  0.00     0.031 A 
ATOM      3  C   UNL d   1     -54.992-101.559 -37.007  0.00  0.00     0.116 A 
ATOM      4  C   UNL d   1     -55.021-102.387 -37.026  0.00  0.00     0.116 A 
ATOM      5  C   UNL d   1     -54.909-102.359 -38.448  0.00  0.00     0.007 A 
ATOM      6  C   UNL d   1     -54.979-102.786 -37.745  0.00  0.00     0.026 A 
ENDROOT
BRANCH   1   7
ATOM      7  C   UNL d   1     -54.810-101.105 -39.129  0.00  0.00     0.280 C 
ATOM      8  N   UNL d   1     -54.811-101.500 -39.849  0.00  0.00    -0.195 N 
ATOM      9  N   UNL d   1     -54.745-101.148 -40.599  0.00  0.00    -0.163 NA
ATOM     10  C   UNL d   1     -54.877-102.313 -39.957  0.00  0.00     0.088 A 
ATOM     11  C   UNL d   1     -54.771-101.746 -41.167  0.00  0.00     0.103 A 
ATOM     12  C   UNL d   1     -54.723-101.642 -41.987  0.00  0.00     0.022 C 
ATOM     13  C   UNL d   1     -54.852-102.465 -40.775  0.00  0.00     0.040 A 
ATOM     14  C   UNL d   1     -54.954-102.880 -39.359  0.00  0.00     0.021 C 
ATOM     15  O   UNL d   1     -54.740-100.283 -39.107  0.00  0.00    -0.265 OA
ENDBRANCH   1   7
BRANCH   3  16
ATOM     16  O   UNL d   1     -55.034-101.161 -36.288  0.00  0.00    -0.326 OA
ATOM     17  C   UNL d   1     -54.752-100.388 -36.227  0.00  0.00     0.181 C 
ENDBRANCH   3  16
BRANCH   4  18
ATOM     18  O   UNL d   1     -55.091-102.810 -36.325  0.00  0.00    -0.326 OA
ATOM     19  C   UNL d   1     -54.727-102.540 -35.638  0.00  0.00     0.181 C 
ENDBRANCH   4  18
TORSDOF 3
ENDMDL
