MODEL 1
REMARK VINA RESULT:      -7.6      0.000      0.000
REMARK  2 active torsions:
REMARK  status: ('A' for Active; 'I' for Inactive)
REMARK    1  A    between atoms: C_6  and  C_1 
REMARK    2  A    between atoms: O_12  and  C_9 
ROOT
ATOM      1  C   UNL d   1     -49.042  14.673  22.939  0.00  0.00     0.123 A 
ATOM      2  C   UNL d   1     -49.254  13.915  23.188  0.00  0.00     0.305 A 
ATOM      3  O   UNL d   1     -48.690  13.343  23.267  0.00  0.00    -0.271 OA
ATOM      4  C   UNL d   1     -48.270  14.837  22.777  0.00  0.00     0.012 A 
ATOM      5  C   UNL d   1     -47.878  13.501  23.101  0.00  0.00     0.125 A 
ATOM      6  C   UNL d   1     -47.666  14.258  22.852  0.00  0.00     0.025 A 
ATOM      7  O   UNL d   1     -50.027  13.746  23.352  0.00  0.00    -0.259 OA
ATOM      8  C   UNL d   1     -47.292  12.922  23.179  0.00  0.00     0.117 A 
ATOM      9  C   UNL d   1     -46.873  14.416  22.689  0.00  0.00     0.002 A 
ATOM     10  C   UNL d   1     -46.282  13.841  22.765  0.00  0.00     0.002 A 
ATOM     11  C   UNL d   1     -46.494  13.084  23.014  0.00  0.00     0.026 A 
ENDROOT
BRANCH   1  12
ATOM     12  C   UNL d   1     -49.599  15.269  22.851  0.00  0.00     0.302 C 
ATOM     13  O   UNL d   1     -50.000  15.386  22.115  0.00  0.00    -0.263 OA
ATOM     14  N   UNL d   1     -49.756  15.751  23.506  0.00  0.00    -0.102 N 
ENDBRANCH   1  12
BRANCH   8  15
ATOM     15  O   UNL d   1     -47.502  12.173  23.425  0.00  0.00    -0.326 OA
ATOM     16  C   UNL d   1     -46.932  11.632  23.618  0.00  0.00     0.181 C 
ENDBRANCH   8  15
TORSDOF 2
ENDMDL
MODEL 2
REMARK VINA RESULT:      -7.5      1.420      2.989
REMARK  2 active torsions:
REMARK  status: ('A' for Active; 'I' for Inactive)
REMARK    1  A    between atoms: C_6  and  C_1 
REMARK    2  A    between atoms: O_12  and  C_9 
ROOT
ATOM      1  C   UNL d   1     -47.154  13.586  22.955  0.00  0.00     0.123 A 
ATOM      2  C   UNL d   1     -47.664  12.961  23.126  0.00  0.00     0.305 A 
ATOM      3  O   UNL d   1     -48.464  13.077  23.118  0.00  0.00    -0.271 OA
ATOM      4  C   UNL d   1     -47.458  14.312  22.781  0.00  0.00     0.012 A 
ATOM      5  C   UNL d   1     -48.796  13.831  22.937  0.00  0.00     0.125 A 
ATOM      6  C   UNL d   1     -48.286  14.456  22.766  0.00  0.00     0.025 A 
ATOM      7  O   UNL d   1     -47.364  12.232  23.302  0.00  0.00    -0.259 OA
ATOM      8  C   UNL d   1     -49.613  13.961  22.927  0.00  0.00     0.117 A 
ATOM      9  C   UNL d   1     -48.607  15.195  22.589  0.00  0.00     0.002 A 
ATOM     10  C   UNL d   1     -49.424  15.331  22.577  0.00  0.00     0.002 A 
ATOM     11  C   UNL d   1     -49.934  14.706  22.748  0.00  0.00     0.026 A 
ENDROOT
BRANCH   1  12
ATOM     12  C   UNL d   1     -46.339  13.490  22.958  0.00  0.00     0.302 C 
ATOM     13  O   UNL d   1     -45.895  13.557  23.675  0.00  0.00    -0.263 OA
ATOM     14  N   UNL d   1     -45.967  13.326  22.236  0.00  0.00    -0.102 N 
ENDBRANCH   1  12
BRANCH   8  15
ATOM     15  O   UNL d   1     -50.117  13.342  23.096  0.00  0.00    -0.326 OA
ATOM     16  C   UNL d   1     -50.918  13.455  23.089  0.00  0.00     0.181 C 
ENDBRANCH   8  15
TORSDOF 2
ENDMDL
MODEL 3
REMARK VINA RESULT:      -7.5      1.777      3.116
REMARK  2 active torsions:
REMARK  status: ('A' for Active; 'I' for Inactive)
REMARK    1  A    between atoms: C_6  and  C_1 
REMARK    2  A    between atoms: O_12  and  C_9 
ROOT
ATOM      1  C   UNL d   1     -47.142  13.270  23.042  0.00  0.00     0.123 A 
ATOM      2  C   UNL d   1     -47.726  13.827  22.869  0.00  0.00     0.305 A 
ATOM      3  O   UNL d   1     -48.506  13.631  22.943  0.00  0.00    -0.271 OA
ATOM      4  C   UNL d   1     -47.355  12.532  23.284  0.00  0.00     0.012 A 
ATOM      5  C   UNL d   1     -48.744  12.862  23.196  0.00  0.00     0.125 A 
ATOM      6  C   UNL d   1     -48.160  12.305  23.369  0.00  0.00     0.025 A 
ATOM      7  O   UNL d   1     -47.517  14.568  22.625  0.00  0.00    -0.259 OA
ATOM      8  C   UNL d   1     -49.540  12.652  23.275  0.00  0.00     0.117 A 
ATOM      9  C   UNL d   1     -48.389  11.552  23.617  0.00  0.00     0.002 A 
ATOM     10  C   UNL d   1     -49.184  11.336  23.698  0.00  0.00     0.002 A 
ATOM     11  C   UNL d   1     -49.767  11.893  23.525  0.00  0.00     0.026 A 
ENDROOT
BRANCH   1  12
ATOM     12  C   UNL d   1     -46.344  13.448  22.973  0.00  0.00     0.302 C 
ATOM     13  O   UNL d   1     -45.901  13.730  23.638  0.00  0.00    -0.263 OA
ATOM     14  N   UNL d   1     -45.987  13.342  22.234  0.00  0.00    -0.102 N 
ENDBRANCH   1  12
BRANCH   8  15
ATOM     15  O   UNL d   1     -50.117  13.203  23.104  0.00  0.00    -0.326 OA
ATOM     16  C   UNL d   1     -50.900  13.006  23.166  0.00  0.00     0.181 C 
ENDBRANCH   8  15
TORSDOF 2
ENDMDL
MODEL 4
REMARK VINA RESULT:      -7.3      1.772      2.396
REMARK  2 active torsions:
REMARK  status: ('A' for Active; 'I' for Inactive)
REMARK    1  A    between atoms: C_6  and  C_1 
REMARK    2  A    between atoms: O_12  and  C_9 
ROOT
ATOM      1  C   UNL d   1     -49.028  12.233  22.923  0.00  0.00     0.123 A 
ATOM      2  C   UNL d   1     -48.346  11.791  22.783  0.00  0.00     0.305 A 
ATOM      3  O   UNL d   1     -47.634  12.164  22.692  0.00  0.00    -0.271 OA
ATOM      4  C   UNL d   1     -48.980  13.037  22.968  0.00  0.00     0.012 A 
ATOM      5  C   UNL d   1     -47.569  13.003  22.737  0.00  0.00     0.125 A 
ATOM      6  C   UNL d   1     -48.251  13.445  22.877  0.00  0.00     0.025 A 
ATOM      7  O   UNL d   1     -48.388  10.986  22.736  0.00  0.00    -0.259 OA
ATOM      8  C   UNL d   1     -46.845  13.394  22.646  0.00  0.00     0.117 A 
ATOM      9  C   UNL d   1     -48.192  14.267  22.923  0.00  0.00     0.002 A 
ATOM     10  C   UNL d   1     -47.470  14.664  22.832  0.00  0.00     0.002 A 
ATOM     11  C   UNL d   1     -46.788  14.221  22.692  0.00  0.00     0.026 A 
ENDROOT
BRANCH   1  12
ATOM     12  C   UNL d   1     -49.760  11.876  23.017  0.00  0.00     0.302 C 
ATOM     13  O   UNL d   1     -49.929  11.401  23.698  0.00  0.00    -0.263 OA
ATOM     14  N   UNL d   1     -50.328  11.995  22.427  0.00  0.00    -0.102 N 
ENDBRANCH   1  12
BRANCH   8  15
ATOM     15  O   UNL d   1     -46.171  12.956  22.508  0.00  0.00    -0.326 OA
ATOM     16  C   UNL d   1     -45.480  13.325  22.305  0.00  0.00     0.181 C 
ENDBRANCH   8  15
TORSDOF 2
ENDMDL
