MODEL 1
REMARK VINA RESULT:      35.1      0.000      0.000
REMARK  4 active torsions:
REMARK  status: ('A' for Active; 'I' for Inactive)
REMARK    1  A    between atoms: C_4  and  C_3 
REMARK    2  A    between atoms: C_5  and  C_4 
REMARK    3  A    between atoms: C_9  and  C_5 
REMARK    4  A    between atoms: C_13  and  C_9 
ROOT
ATOM      1  N   UNL d   1      13.099  12.994  -4.786  0.00  0.00    -0.234 NA
ATOM      2  C   UNL d   1      13.080  12.556  -4.087  0.00  0.00     0.138 A 
ATOM      3  C   UNL d   1      13.342  12.893  -3.380  0.00  0.00     0.029 A 
ATOM      4  C   UNL d   1      13.380  13.770  -4.779  0.00  0.00     0.082 A 
ATOM      5  C   UNL d   1      13.642  14.108  -4.072  0.00  0.00     0.018 A 
ATOM      6  C   UNL d   1      13.605  13.647  -3.420  0.00  0.00     0.004 A 
ATOM      7  C   UNL d   1      13.905  14.861  -4.111  0.00  0.00     0.002 A 
ATOM      8  C   UNL d   1      13.399  14.209  -5.477  0.00  0.00     0.019 A 
ATOM      9 CL   UNL d   1      12.800  11.780  -4.094  0.00  0.00    -0.061 Cl
ATOM     10  C   UNL d   1      13.941  15.322  -4.763  0.00  0.00     0.000 A 
ATOM     11  C   UNL d   1      13.679  14.984  -5.470  0.00  0.00     0.002 A 
ATOM     12  C   UNL d   1      14.199  16.053  -4.790  0.00  0.00     0.000 C 
ENDROOT
BRANCH   3  13
ATOM     13  C   UNL d   1      13.305  12.433  -2.728  0.00  0.00     0.006 C 
BRANCH  13  14
ATOM     14  C   UNL d   1      13.640  11.972  -2.132  0.00  0.00     0.042 C 
BRANCH  14  15
ATOM     15  C   UNL d   1      13.648  11.998  -1.314  0.00  0.00     0.196 C 
ATOM     16  O   UNL d   1      12.975  11.780  -0.886  0.00  0.00    -0.287 OA
BRANCH  15  17
ATOM     17  C   UNL d   1      14.315  12.238  -0.910  0.00  0.00     0.039 A 
ATOM     18  C   UNL d   1      15.021  11.819  -0.970  0.00  0.00     0.003 A 
ATOM     19  C   UNL d   1      15.683  12.079  -0.553  0.00  0.00     0.000 A 
ATOM     20  C   UNL d   1      15.649  12.755  -0.075  0.00  0.00     0.000 A 
ATOM     21  C   UNL d   1      14.950  13.172  -0.014  0.00  0.00     0.000 A 
ATOM     22  C   UNL d   1      14.281  12.911  -0.434  0.00  0.00     0.003 A 
ENDBRANCH  15  17
ENDBRANCH  14  15
ENDBRANCH  13  14
ENDBRANCH   3  13
TORSDOF 4
ENDMDL
MODEL 2
REMARK VINA RESULT:      37.2      1.528      2.322
REMARK  4 active torsions:
REMARK  status: ('A' for Active; 'I' for Inactive)
REMARK    1  A    between atoms: C_4  and  C_3 
REMARK    2  A    between atoms: C_5  and  C_4 
REMARK    3  A    between atoms: C_9  and  C_5 
REMARK    4  A    between atoms: C_13  and  C_9 
ROOT
ATOM      1  N   UNL d   1      13.030  11.905  -2.863  0.00  0.00    -0.234 NA
ATOM      2  C   UNL d   1      13.354  12.155  -2.146  0.00  0.00     0.138 A 
ATOM      3  C   UNL d   1      13.891  12.782  -2.134  0.00  0.00     0.029 A 
ATOM      4  C   UNL d   1      13.241  12.280  -3.566  0.00  0.00     0.082 A 
ATOM      5  C   UNL d   1      13.779  12.907  -3.554  0.00  0.00     0.018 A 
ATOM      6  C   UNL d   1      14.068  13.117  -2.838  0.00  0.00     0.004 A 
ATOM      7  C   UNL d   1      13.955  13.242  -4.257  0.00  0.00     0.002 A 
ATOM      8  C   UNL d   1      12.917  12.030  -4.282  0.00  0.00     0.019 A 
ATOM      9 CL   UNL d   1      13.142  11.779  -1.444  0.00  0.00    -0.061 Cl
ATOM     10  C   UNL d   1      13.666  13.033  -4.972  0.00  0.00     0.000 A 
ATOM     11  C   UNL d   1      13.129  12.406  -4.984  0.00  0.00     0.002 A 
ATOM     12  C   UNL d   1      13.845  13.365  -5.649  0.00  0.00     0.000 C 
ENDROOT
BRANCH   3  13
ATOM     13  C   UNL d   1      14.181  12.991  -1.419  0.00  0.00     0.006 C 
BRANCH  13  14
ATOM     14  C   UNL d   1      14.610  12.853  -0.728  0.00  0.00     0.042 C 
BRANCH  14  15
ATOM     15  C   UNL d   1      15.228  13.228  -0.344  0.00  0.00     0.196 C 
ATOM     16  O   UNL d   1      15.841  12.782  -0.016  0.00  0.00    -0.287 OA
BRANCH  15  17
ATOM     17  C   UNL d   1      15.249  14.040  -0.280  0.00  0.00     0.039 A 
ATOM     18  C   UNL d   1      14.558  14.487  -0.315  0.00  0.00     0.003 A 
ATOM     19  C   UNL d   1      14.602  15.308  -0.248  0.00  0.00     0.000 A 
ATOM     20  C   UNL d   1      15.330  15.689  -0.145  0.00  0.00     0.000 A 
ATOM     21  C   UNL d   1      16.016  15.249  -0.109  0.00  0.00     0.000 A 
ATOM     22  C   UNL d   1      15.974  14.421  -0.177  0.00  0.00     0.003 A 
ENDBRANCH  15  17
ENDBRANCH  14  15
ENDBRANCH  13  14
ENDBRANCH   3  13
TORSDOF 4
ENDMDL
