MODEL 1
REMARK VINA RESULT:      57.5      0.000      0.000
REMARK  7 active torsions:
REMARK  status: ('A' for Active; 'I' for Inactive)
REMARK    1  A    between atoms: C_23  and  C_3 
REMARK    2  A    between atoms: S_18  and  C_5 
REMARK    3  A    between atoms: C_11  and  C_16 
REMARK       I    between atoms: N_14  and  C_11 
REMARK    4  A    between atoms: C_17  and  N_14 
REMARK    5  A    between atoms: C_16  and  C_21 
REMARK    6  A    between atoms: C_21  and  S_18 
REMARK    7  A    between atoms: O_24  and  C_22 
ROOT
ATOM      1  C   UNL d   1     -50.148  24.947  33.311  0.00  0.00     0.092 A 
ATOM      2  C   UNL d   1     -51.549  24.686  33.310  0.00  0.00     0.057 A 
ATOM      3  C   UNL d   1     -50.772  24.411  33.311  0.00  0.00     0.016 A 
ATOM      4  N   UNL d   1     -51.075  26.033  33.310  0.00  0.00    -0.239 NA
ATOM      5  C   UNL d   1     -50.299  25.758  33.311  0.00  0.00     0.120 A 
ATOM      6  C   UNL d   1     -51.700  25.497  33.309  0.00  0.00     0.081 A 
ATOM      7  C   UNL d   1     -52.173  24.150  33.309  0.00  0.00     0.193 A 
ATOM      8  C   UNL d   1     -49.359  24.670  33.312  0.00  0.00     0.103 C 
ATOM      9  N   UNL d   1     -48.576  24.384  33.313  0.00  0.00    -0.191 NA
ATOM     10  C   UNL d   1     -53.109  25.235  33.308  0.00  0.00     0.042 A 
ATOM     11  C   UNL d   1     -52.958  24.424  33.308  0.00  0.00     0.019 A 
ATOM     12  C   UNL d   1     -52.475  25.772  33.308  0.00  0.00    -0.003 A 
ATOM     13  O   UNL d   1     -52.022  23.340  33.309  0.00  0.00    -0.287 OA
ATOM     14  C   UNL d   1     -53.526  25.954  33.307  0.00  0.00     0.009 C 
ATOM     15  C   UNL d   1     -53.740  24.707  33.307  0.00  0.00     0.009 C 
ENDROOT
BRANCH   3  16
ATOM     16  C   UNL d   1     -50.622  23.601  33.311  0.00  0.00     0.001 C 
ATOM     17  C   UNL d   1     -49.985  23.300  33.739  0.00  0.00     0.000 C 
ENDBRANCH   3  16
BRANCH   5  18
ATOM     18  S   UNL d   1     -49.662  26.296  33.311  0.00  0.00    -0.067 SA
BRANCH  18  19
ATOM     19  C   UNL d   1     -49.599  26.864  33.908  0.00  0.00     0.042 C 
BRANCH  19  20
ATOM     20  C   UNL d   1     -49.221  27.582  33.753  0.00  0.00     0.070 C 
BRANCH  20  21
ATOM     21  C   UNL d   1     -48.824  27.981  34.372  0.00  0.00     0.280 C 
ATOM     22  N   UNL d   1     -48.594  28.765  34.266  0.00  0.00    -0.208 NA
ATOM     23  O   UNL d   1     -48.667  27.585  35.079  0.00  0.00    -0.265 OA
BRANCH  22  24
ATOM     24  C   UNL d   1     -48.194  29.167  34.886  0.00  0.00     0.087 A 
ATOM     25  C   UNL d   1     -48.104  29.986  34.847  0.00  0.00     0.043 A 
ATOM     26  C   UNL d   1     -47.712  30.377  35.457  0.00  0.00     0.096 A 
ATOM     27  C   UNL d   1     -47.407  29.960  36.109  0.00  0.00     0.024 A 
ATOM     28  C   UNL d   1     -47.500  29.141  36.144  0.00  0.00     0.004 A 
ATOM     29  C   UNL d   1     -47.893  28.739  35.535  0.00  0.00     0.019 A 
BRANCH  26  30
ATOM     30  O   UNL d   1     -47.621  31.196  35.418  0.00  0.00    -0.328 OA
ATOM     31  C   UNL d   1     -47.495  31.561  34.685  0.00  0.00     0.181 C 
ENDBRANCH  26  30
ENDBRANCH  22  24
ENDBRANCH  20  21
ENDBRANCH  19  20
ENDBRANCH  18  19
ENDBRANCH   5  18
TORSDOF 7
ENDMDL
