MODEL 1
REMARK VINA RESULT:      76.6      0.000      0.000
REMARK  8 active torsions:
REMARK  status: ('A' for Active; 'I' for Inactive)
REMARK    1  A    between atoms: C_6  and  C_1 
REMARK    2  A    between atoms: C_7  and  C_2 
REMARK    3  A    between atoms: C_14  and  N_4 
REMARK    4  A    between atoms: C_8  and  C_6 
REMARK    5  A    between atoms: C_9  and  C_8 
REMARK    6  A    between atoms: C_12  and  C_9 
REMARK    7  A    between atoms: C_10  and  C_11 
REMARK    8  A    between atoms: C_11  and  C_14 
ROOT
ATOM      1  C   UNL d   1     -49.120  28.125  35.731  0.00  0.00     0.039 A 
ATOM      2  C   UNL d   1     -48.578  28.598  36.101  0.00  0.00     0.103 A 
ATOM      3  N   UNL d   1     -48.545  28.621  36.909  0.00  0.00    -0.165 NA
ATOM      4  N   UNL d   1     -49.602  27.693  36.977  0.00  0.00    -0.227 N 
ATOM      5  C   UNL d   1     -49.635  27.670  36.169  0.00  0.00     0.102 A 
ENDROOT
BRANCH   1   6
ATOM      6  C   UNL d   1     -49.159  28.096  34.908  0.00  0.00     0.006 C 
BRANCH   6   7
ATOM      7  C   UNL d   1     -49.476  27.435  34.525  0.00  0.00     0.042 C 
BRANCH   7   8
ATOM      8  C   UNL d   1     -49.803  27.506  33.761  0.00  0.00     0.196 C 
ATOM      9  O   UNL d   1     -49.635  28.176  33.310  0.00  0.00    -0.287 OA
BRANCH   8  10
ATOM     10  C   UNL d   1     -50.251  26.820  33.647  0.00  0.00     0.039 A 
ATOM     11  C   UNL d   1     -49.882  26.087  33.548  0.00  0.00     0.004 A 
ATOM     12  C   UNL d   1     -50.329  25.400  33.434  0.00  0.00     0.011 A 
ATOM     13  C   UNL d   1     -51.156  25.445  33.419  0.00  0.00     0.058 A 
ATOM     14  C   UNL d   1     -51.524  26.190  33.520  0.00  0.00     0.011 A 
ATOM     15 CL   UNL d   1     -51.606  24.761  33.306  0.00  0.00    -0.082 Cl
ATOM     16  C   UNL d   1     -51.080  26.876  33.633  0.00  0.00     0.004 A 
ENDBRANCH   8  10
ENDBRANCH   7   8
ENDBRANCH   6   7
ENDBRANCH   1   6
BRANCH   2  17
ATOM     17  C   UNL d   1     -48.058  29.056  35.666  0.00  0.00     0.020 A 
ATOM     18  C   UNL d   1     -48.225  29.835  35.516  0.00  0.00     0.008 A 
ATOM     19  C   UNL d   1     -47.699  30.289  35.079  0.00  0.00     0.035 A 
ATOM     20 BR   UNL d   1     -47.875  31.076  34.931  0.00  0.00    -0.049 Br
ATOM     21  C   UNL d   1     -47.020  29.959  34.802  0.00  0.00     0.007 A 
ATOM     22  C   UNL d   1     -46.856  29.173  34.955  0.00  0.00     0.001 A 
ATOM     23  C   UNL d   1     -47.373  28.723  35.386  0.00  0.00     0.002 A 
ENDBRANCH   2  17
BRANCH   4  24
ATOM     24  C   UNL d   1     -50.011  27.331  37.580  0.00  0.00     0.107 C 
BRANCH  24  25
ATOM     25  C   UNL d   1     -50.770  27.198  37.268  0.00  0.00     0.091 C 
BRANCH  25  26
ATOM     26  C   UNL d   1     -51.164  26.762  37.850  0.00  0.00     0.213 C 
ATOM     27  O   UNL d   1     -51.229  27.057  38.634  0.00  0.00    -0.644 OA
ATOM     28  O   UNL d   1     -51.495  26.036  37.661  0.00  0.00    -0.644 OA
ENDBRANCH  25  26
ENDBRANCH  24  25
ENDBRANCH   4  24
TORSDOF 8
ENDMDL
MODEL 2
REMARK VINA RESULT:      76.9      2.797      4.600
REMARK  8 active torsions:
REMARK  status: ('A' for Active; 'I' for Inactive)
REMARK    1  A    between atoms: C_6  and  C_1 
REMARK    2  A    between atoms: C_7  and  C_2 
REMARK    3  A    between atoms: C_14  and  N_4 
REMARK    4  A    between atoms: C_8  and  C_6 
REMARK    5  A    between atoms: C_9  and  C_8 
REMARK    6  A    between atoms: C_12  and  C_9 
REMARK    7  A    between atoms: C_10  and  C_11 
REMARK    8  A    between atoms: C_11  and  C_14 
ROOT
ATOM      1  C   UNL d   1     -51.378  25.660  34.651  0.00  0.00     0.039 A 
ATOM      2  C   UNL d   1     -51.048  25.861  33.941  0.00  0.00     0.103 A 
ATOM      3  N   UNL d   1     -51.120  25.364  33.307  0.00  0.00    -0.165 NA
ATOM      4  N   UNL d   1     -51.856  24.461  34.098  0.00  0.00    -0.227 N 
ATOM      5  C   UNL d   1     -51.784  24.958  34.732  0.00  0.00     0.102 A 
ENDROOT
BRANCH   1   6
ATOM      6  C   UNL d   1     -51.309  26.162  35.302  0.00  0.00     0.006 C 
BRANCH   6   7
ATOM      7  C   UNL d   1     -51.584  25.926  36.045  0.00  0.00     0.042 C 
BRANCH   7   8
ATOM      8  C   UNL d   1     -51.575  26.458  36.688  0.00  0.00     0.196 C 
ATOM      9  O   UNL d   1     -51.296  27.226  36.572  0.00  0.00    -0.287 OA
BRANCH   8  10
ATOM     10  C   UNL d   1     -51.877  26.034  37.331  0.00  0.00     0.039 A 
ATOM     11  C   UNL d   1     -52.664  26.129  37.566  0.00  0.00     0.004 A 
ATOM     12  C   UNL d   1     -52.967  25.705  38.209  0.00  0.00     0.011 A 
ATOM     13  C   UNL d   1     -52.478  25.181  38.624  0.00  0.00     0.058 A 
ATOM     14  C   UNL d   1     -51.682  25.089  38.381  0.00  0.00     0.011 A 
ATOM     15 CL   UNL d   1     -52.777  24.756  39.266  0.00  0.00    -0.082 Cl
ATOM     16  C   UNL d   1     -51.378  25.511  37.740  0.00  0.00     0.004 A 
ENDBRANCH   8  10
ENDBRANCH   7   8
ENDBRANCH   6   7
ENDBRANCH   1   6
BRANCH   2  17
ATOM     17  C   UNL d   1     -50.640  26.564  33.854  0.00  0.00     0.020 A 
ATOM     18  C   UNL d   1     -51.027  27.238  33.624  0.00  0.00     0.008 A 
ATOM     19  C   UNL d   1     -50.610  27.940  33.539  0.00  0.00     0.035 A 
ATOM     20 BR   UNL d   1     -51.010  28.618  33.307  0.00  0.00    -0.049 Br
ATOM     21  C   UNL d   1     -49.819  27.956  33.683  0.00  0.00     0.007 A 
ATOM     22  C   UNL d   1     -49.433  27.274  33.914  0.00  0.00     0.001 A 
ATOM     23  C   UNL d   1     -49.841  26.580  33.999  0.00  0.00     0.002 A 
ENDBRANCH   2  17
BRANCH   4  24
ATOM     24  C   UNL d   1     -52.207  23.739  33.970  0.00  0.00     0.107 C 
BRANCH  24  25
ATOM     25  C   UNL d   1     -52.816  23.896  33.426  0.00  0.00     0.091 C 
BRANCH  25  26
ATOM     26  C   UNL d   1     -53.485  23.529  33.746  0.00  0.00     0.213 C 
ATOM     27  O   UNL d   1     -53.460  23.194  34.517  0.00  0.00    -0.644 OA
ATOM     28  O   UNL d   1     -54.178  23.492  33.310  0.00  0.00    -0.644 OA
ENDBRANCH  25  26
ENDBRANCH  24  25
ENDBRANCH   4  24
TORSDOF 8
ENDMDL
MODEL 3
REMARK VINA RESULT:      77.7      2.310      4.544
REMARK  8 active torsions:
REMARK  status: ('A' for Active; 'I' for Inactive)
REMARK    1  A    between atoms: C_6  and  C_1 
REMARK    2  A    between atoms: C_7  and  C_2 
REMARK    3  A    between atoms: C_14  and  N_4 
REMARK    4  A    between atoms: C_8  and  C_6 
REMARK    5  A    between atoms: C_9  and  C_8 
REMARK    6  A    between atoms: C_12  and  C_9 
REMARK    7  A    between atoms: C_10  and  C_11 
REMARK    8  A    between atoms: C_11  and  C_14 
ROOT
ATOM      1  C   UNL d   1     -50.080  27.113  35.043  0.00  0.00     0.039 A 
ATOM      2  C   UNL d   1     -50.059  26.893  34.265  0.00  0.00     0.103 A 
ATOM      3  N   UNL d   1     -49.443  27.125  33.796  0.00  0.00    -0.165 NA
ATOM      4  N   UNL d   1     -48.864  27.799  34.888  0.00  0.00    -0.227 N 
ATOM      5  C   UNL d   1     -49.481  27.568  35.357  0.00  0.00     0.102 A 
ENDROOT
BRANCH   1   6
ATOM      6  C   UNL d   1     -50.705  26.881  35.528  0.00  0.00     0.006 C 
BRANCH   6   7
ATOM      7  C   UNL d   1     -50.568  26.657  36.312  0.00  0.00     0.042 C 
BRANCH   7   8
ATOM      8  C   UNL d   1     -50.883  27.105  36.941  0.00  0.00     0.196 C 
ATOM      9  O   UNL d   1     -50.736  27.916  36.973  0.00  0.00    -0.287 OA
BRANCH   8  10
ATOM     10  C   UNL d   1     -51.300  26.566  37.410  0.00  0.00     0.039 A 
ATOM     11  C   UNL d   1     -52.098  26.409  37.263  0.00  0.00     0.004 A 
ATOM     12  C   UNL d   1     -52.515  25.869  37.732  0.00  0.00     0.011 A 
ATOM     13  C   UNL d   1     -52.132  25.482  38.356  0.00  0.00     0.058 A 
ATOM     14  C   UNL d   1     -51.324  25.646  38.500  0.00  0.00     0.011 A 
ATOM     15 CL   UNL d   1     -52.546  24.944  38.826  0.00  0.00    -0.082 Cl
ATOM     16  C   UNL d   1     -50.905  26.183  38.034  0.00  0.00     0.004 A 
ENDBRANCH   8  10
ENDBRANCH   7   8
ENDBRANCH   6   7
ENDBRANCH   1   6
BRANCH   2  17
ATOM     17  C   UNL d   1     -50.657  26.437  33.944  0.00  0.00     0.020 A 
ATOM     18  C   UNL d   1     -50.534  25.652  33.786  0.00  0.00     0.008 A 
ATOM     19  C   UNL d   1     -51.140  25.201  33.463  0.00  0.00     0.035 A 
ATOM     20 BR   UNL d   1     -51.008  24.407  33.306  0.00  0.00    -0.049 Br
ATOM     21  C   UNL d   1     -51.852  25.540  33.307  0.00  0.00     0.007 A 
ATOM     22  C   UNL d   1     -51.971  26.332  33.469  0.00  0.00     0.001 A 
ATOM     23  C   UNL d   1     -51.377  26.780  33.786  0.00  0.00     0.002 A 
ENDBRANCH   2  17
BRANCH   4  24
ATOM     24  C   UNL d   1     -48.189  28.239  35.000  0.00  0.00     0.107 C 
BRANCH  24  25
ATOM     25  C   UNL d   1     -48.423  28.855  35.506  0.00  0.00     0.091 C 
BRANCH  25  26
ATOM     26  C   UNL d   1     -47.781  29.377  35.515  0.00  0.00     0.213 C 
ATOM     27  O   UNL d   1     -47.259  29.401  36.173  0.00  0.00    -0.644 OA
ATOM     28  O   UNL d   1     -47.651  29.874  34.876  0.00  0.00    -0.644 OA
ENDBRANCH  25  26
ENDBRANCH  24  25
ENDBRANCH   4  24
TORSDOF 8
ENDMDL
MODEL 4
REMARK VINA RESULT:      78.3      1.117      1.733
REMARK  8 active torsions:
REMARK  status: ('A' for Active; 'I' for Inactive)
REMARK    1  A    between atoms: C_6  and  C_1 
REMARK    2  A    between atoms: C_7  and  C_2 
REMARK    3  A    between atoms: C_14  and  N_4 
REMARK    4  A    between atoms: C_8  and  C_6 
REMARK    5  A    between atoms: C_9  and  C_8 
REMARK    6  A    between atoms: C_12  and  C_9 
REMARK    7  A    between atoms: C_10  and  C_11 
REMARK    8  A    between atoms: C_11  and  C_14 
ROOT
ATOM      1  C   UNL d   1     -50.345  27.136  35.751  0.00  0.00     0.039 A 
ATOM      2  C   UNL d   1     -49.812  27.618  36.120  0.00  0.00     0.103 A 
ATOM      3  N   UNL d   1     -49.896  27.787  36.907  0.00  0.00    -0.165 NA
ATOM      4  N   UNL d   1     -51.053  26.987  36.955  0.00  0.00    -0.227 N 
ATOM      5  C   UNL d   1     -50.969  26.818  36.168  0.00  0.00     0.102 A 
ENDROOT
BRANCH   1   6
ATOM      6  C   UNL d   1     -50.266  26.959  34.949  0.00  0.00     0.006 C 
BRANCH   6   7
ATOM      7  C   UNL d   1     -50.657  26.307  34.622  0.00  0.00     0.042 C 
BRANCH   7   8
ATOM      8  C   UNL d   1     -50.746  26.240  33.795  0.00  0.00     0.196 C 
ATOM      9  O   UNL d   1     -50.451  26.836  33.307  0.00  0.00    -0.287 OA
BRANCH   8  10
ATOM     10  C   UNL d   1     -51.144  25.525  33.673  0.00  0.00     0.039 A 
ATOM     11  C   UNL d   1     -51.962  25.513  33.558  0.00  0.00     0.004 A 
ATOM     12  C   UNL d   1     -52.361  24.798  33.435  0.00  0.00     0.011 A 
ATOM     13  C   UNL d   1     -51.938  24.086  33.428  0.00  0.00     0.058 A 
ATOM     14  C   UNL d   1     -51.109  24.105  33.545  0.00  0.00     0.011 A 
ATOM     15 CL   UNL d   1     -52.333  23.371  33.306  0.00  0.00    -0.082 Cl
ATOM     16  C   UNL d   1     -50.709  24.816  33.667  0.00  0.00     0.004 A 
ENDBRANCH   8  10
ENDBRANCH   7   8
ENDBRANCH   6   7
ENDBRANCH   1   6
BRANCH   2  17
ATOM     17  C   UNL d   1     -49.184  27.939  35.707  0.00  0.00     0.020 A 
ATOM     18  C   UNL d   1     -48.709  28.499  36.052  0.00  0.00     0.008 A 
ATOM     19  C   UNL d   1     -48.080  28.817  35.631  0.00  0.00     0.035 A 
ATOM     20 BR   UNL d   1     -47.604  29.382  35.987  0.00  0.00    -0.049 Br
ATOM     21  C   UNL d   1     -47.938  28.573  34.878  0.00  0.00     0.007 A 
ATOM     22  C   UNL d   1     -48.420  28.009  34.534  0.00  0.00     0.001 A 
ATOM     23  C   UNL d   1     -49.040  27.693  34.947  0.00  0.00     0.002 A 
ENDBRANCH   2  17
BRANCH   4  24
ATOM     24  C   UNL d   1     -51.586  26.780  37.533  0.00  0.00     0.107 C 
BRANCH  24  25
ATOM     25  C   UNL d   1     -51.453  25.969  37.660  0.00  0.00     0.091 C 
BRANCH  25  26
ATOM     26  C   UNL d   1     -52.074  25.727  38.150  0.00  0.00     0.213 C 
ATOM     27  O   UNL d   1     -52.872  25.875  37.931  0.00  0.00    -0.644 OA
ATOM     28  O   UNL d   1     -51.912  25.340  38.854  0.00  0.00    -0.644 OA
ENDBRANCH  25  26
ENDBRANCH  24  25
ENDBRANCH   4  24
TORSDOF 8
ENDMDL
