MODEL 1
REMARK VINA RESULT:      62.2      0.000      0.000
REMARK  4 active torsions:
REMARK  status: ('A' for Active; 'I' for Inactive)
REMARK    1  A    between atoms: C_10  and  C_2 
REMARK    2  A    between atoms: C_9  and  C_4 
REMARK    3  A    between atoms: C_8  and  N_6 
REMARK    4  A    between atoms: N_7  and  C_9 
ROOT
ATOM      1  N   UNL d   1     -48.730  28.457  34.797  0.00  0.00    -0.301 N 
ATOM      2  N   UNL d   1     -49.612  27.484  33.804  0.00  0.00    -0.297 N 
ATOM      3  C   UNL d   1     -49.237  28.788  34.237  0.00  0.00     0.100 A 
ATOM      4  C   UNL d   1     -48.664  27.641  34.861  0.00  0.00     0.100 A 
ATOM      5  C   UNL d   1     -49.678  28.301  33.740  0.00  0.00     0.100 A 
ATOM      6  C   UNL d   1     -49.106  27.151  34.364  0.00  0.00     0.100 A 
ENDROOT
BRANCH   2   7
ATOM      7  C   UNL d   1     -50.051  26.993  33.309  0.00  0.00     0.127 C 
BRANCH   7   8
ATOM      8  C   UNL d   1     -50.609  26.485  33.635  0.00  0.00     0.222 A 
ATOM      9  N   UNL d   1     -51.033  26.598  34.339  0.00  0.00    -0.119 NA
ATOM     10  N   UNL d   1     -51.529  25.948  34.448  0.00  0.00    -0.121 NA
ATOM     11  C   UNL d   1     -51.414  25.431  33.812  0.00  0.00     0.204 A 
ATOM     12  O   UNL d   1     -50.847  25.760  33.309  0.00  0.00    -0.267 OA
BRANCH  11  13
ATOM     13  C   UNL d   1     -51.803  24.710  33.703  0.00  0.00     0.043 A 
ATOM     14  C   UNL d   1     -52.618  24.694  33.589  0.00  0.00     0.004 A 
ATOM     15  C   UNL d   1     -53.006  23.974  33.481  0.00  0.00     0.000 A 
ATOM     16  C   UNL d   1     -52.578  23.271  33.486  0.00  0.00     0.000 A 
ATOM     17  C   UNL d   1     -51.751  23.292  33.602  0.00  0.00     0.000 A 
ATOM     18  C   UNL d   1     -51.374  24.014  33.709  0.00  0.00     0.004 A 
ENDBRANCH  11  13
ENDBRANCH   7   8
ENDBRANCH   2   7
BRANCH   1  19
ATOM     19  C   UNL d   1     -48.289  28.944  35.295  0.00  0.00     0.064 A 
ATOM     20  C   UNL d   1     -48.492  29.012  36.092  0.00  0.00     0.020 A 
ATOM     21  C   UNL d   1     -48.048  29.501  36.589  0.00  0.00     0.031 A 
ATOM     22  C   UNL d   1     -47.400  29.922  36.291  0.00  0.00     0.140 A 
ATOM     23  C   UNL d   1     -47.206  29.846  35.492  0.00  0.00     0.031 A 
ATOM     24  F   UNL d   1     -46.932  30.419  36.751  0.00  0.00    -0.204 F 
ATOM     25  C   UNL d   1     -47.648  29.359  34.995  0.00  0.00     0.020 A 
ENDBRANCH   1  19
TORSDOF 4
ENDMDL
