MODEL 1
REMARK VINA RESULT:      25.4      0.000      0.000
REMARK  6 active torsions:
REMARK  status: ('A' for Active; 'I' for Inactive)
REMARK    1  A    between atoms: C_4  and  C_1 
REMARK    2  A    between atoms: C_3  and  C_7 
REMARK    3  A    between atoms: O_18  and  C_3 
REMARK    4  A    between atoms: C_9  and  C_4 
REMARK    5  A    between atoms: O_13  and  C_9 
REMARK    6  A    between atoms: C_15  and  O_13 
ROOT
ATOM      1  C   UNL d   1      14.457  12.824  -0.566  0.00  0.00     0.165 C 
ENDROOT
BRANCH   1   2
ATOM      2  C   UNL d   1      14.697  12.245  -1.087  0.00  0.00     0.223 C 
ATOM      3  O   UNL d   1      15.359  11.781  -0.923  0.00  0.00    -0.284 OA
BRANCH   2   4
ATOM      4  C   UNL d   1      14.256  12.128  -1.803  0.00  0.00     0.080 A 
ATOM      5  C   UNL d   1      13.473  11.911  -1.752  0.00  0.00     0.202 A 
ATOM      6  C   UNL d   1      13.025  11.792  -2.454  0.00  0.00     0.084 A 
ATOM      7  O   UNL d   1      13.129  11.812  -1.003  0.00  0.00    -0.286 OA
ATOM      8  C   UNL d   1      13.398  11.899  -3.182  0.00  0.00     0.199 A 
ATOM      9  C   UNL d   1      14.195  12.119  -3.225  0.00  0.00     0.042 A 
ATOM     10  O   UNL d   1      12.950  11.779  -3.884  0.00  0.00    -0.286 OA
ATOM     11  C   UNL d   1      14.617  12.231  -2.538  0.00  0.00     0.010 A 
ENDBRANCH   2   4
ENDBRANCH   1   2
BRANCH   1  12
ATOM     12  O   UNL d   1      15.008  13.248  -0.129  0.00  0.00    -0.302 OA
BRANCH  12  13
ATOM     13  C   UNL d   1      15.097  14.062  -0.251  0.00  0.00     0.100 A 
ATOM     14  C   UNL d   1      15.829  14.421  -0.126  0.00  0.00     0.025 A 
ATOM     15  C   UNL d   1      15.918  15.215  -0.245  0.00  0.00     0.007 A 
ATOM     16  C   UNL d   1      15.271  15.688  -0.496  0.00  0.00     0.063 A 
ATOM     17  C   UNL d   1      14.539  15.329  -0.621  0.00  0.00     0.007 A 
ATOM     18  C   UNL d   1      14.458  14.499  -0.494  0.00  0.00     0.025 A 
BRANCH  16  19
ATOM     19  C   UNL d   1      15.374  16.509  -0.616  0.00  0.00     0.296 C 
ATOM     20  O   UNL d   1      15.902  16.943  -0.154  0.00  0.00    -0.259 OA
BRANCH  19  21
ATOM     21  O   UNL d   1      14.926  16.878  -1.218  0.00  0.00    -0.296 OA
ATOM     22  C   UNL d   1      15.211  17.545  -1.610  0.00  0.00     0.185 C 
ENDBRANCH  19  21
ENDBRANCH  16  19
ENDBRANCH  12  13
ENDBRANCH   1  12
TORSDOF 6
ENDMDL
