MODEL 1
REMARK VINA RESULT:      43.7      0.000      0.000
REMARK  6 active torsions:
REMARK  status: ('A' for Active; 'I' for Inactive)
REMARK    1  A    between atoms: C_7  and  C_1 
REMARK    2  A    between atoms: C_9  and  N_10 
REMARK       I    between atoms: N_10  and  C_11 
REMARK    3  A    between atoms: C_11  and  C_19 
REMARK    4  A    between atoms: S_15  and  C_12 
REMARK    5  A    between atoms: O_24  and  C_13 
REMARK    6  A    between atoms: C_19  and  S_15 
ROOT
ATOM      1  S   UNL d   1      45.234 -12.398  39.721  0.00  0.00    -0.061 SA
ENDROOT
BRANCH   1   2
ATOM      2  C   UNL d   1      45.250 -12.454  40.559  0.00  0.00     0.133 A 
ATOM      3  C   UNL d   1      44.603 -12.192  40.997  0.00  0.00     0.029 A 
ATOM      4  C   UNL d   1      44.616 -12.246  41.818  0.00  0.00     0.024 A 
ATOM      5  C   UNL d   1      45.274 -12.562  42.202  0.00  0.00     0.111 A 
ATOM      6  N   UNL d   1      45.920 -12.823  41.765  0.00  0.00    -0.147 NA
ATOM      7  N   UNL d   1      45.909 -12.770  40.944  0.00  0.00    -0.141 NA
BRANCH   5   8
ATOM      8  C   UNL d   1      45.285 -12.615  43.024  0.00  0.00     0.068 A 
ATOM      9  C   UNL d   1      44.806 -13.076  43.523  0.00  0.00     0.089 A 
ATOM     10  N   UNL d   1      45.035 -12.935  44.304  0.00  0.00    -0.238 NA
ATOM     11  C   UNL d   1      44.204 -13.589  43.281  0.00  0.00     0.021 C 
ATOM     12  C   UNL d   1      45.652 -12.389  44.287  0.00  0.00     0.111 A 
ATOM     13  S   UNL d   1      45.809 -12.190  43.501  0.00  0.00    -0.065 SA
ATOM     14  C   UNL d   1      46.058 -12.082  44.955  0.00  0.00     0.028 C 
ENDBRANCH   5   8
ENDBRANCH   1   2
BRANCH   1  15
ATOM     15  C   UNL d   1      44.683 -12.836  39.292  0.00  0.00     0.099 C 
BRANCH  15  16
ATOM     16  C   UNL d   1      44.927 -13.253  38.624  0.00  0.00     0.286 C 
ATOM     17  N   UNL d   1      44.605 -14.002  38.458  0.00  0.00    -0.206 NA
ATOM     18  O   UNL d   1      45.497 -12.926  38.115  0.00  0.00    -0.265 OA
BRANCH  17  19
ATOM     19  C   UNL d   1      44.849 -14.419  37.791  0.00  0.00     0.107 A 
ATOM     20  C   UNL d   1      44.315 -14.913  37.391  0.00  0.00     0.112 A 
ATOM     21  C   UNL d   1      44.558 -15.330  36.723  0.00  0.00     0.026 A 
ATOM     22  C   UNL d   1      45.337 -15.257  36.449  0.00  0.00     0.002 A 
ATOM     23  C   UNL d   1      45.871 -14.763  36.850  0.00  0.00     0.002 A 
ATOM     24  C   UNL d   1      45.628 -14.346  37.517  0.00  0.00     0.021 A 
ATOM     25  C   UNL d   1      46.647 -14.688  36.581  0.00  0.00     0.000 C 
BRANCH  20  26
ATOM     26  O   UNL d   1      43.539 -14.986  37.663  0.00  0.00    -0.327 OA
ATOM     27  C   UNL d   1      43.088 -15.641  37.451  0.00  0.00     0.181 C 
ENDBRANCH  20  26
ENDBRANCH  17  19
ENDBRANCH  15  16
ENDBRANCH   1  15
TORSDOF 6
ENDMDL
MODEL 2
REMARK VINA RESULT:      46.1      4.452      6.855
REMARK  6 active torsions:
REMARK  status: ('A' for Active; 'I' for Inactive)
REMARK    1  A    between atoms: C_7  and  C_1 
REMARK    2  A    between atoms: C_9  and  N_10 
REMARK       I    between atoms: N_10  and  C_11 
REMARK    3  A    between atoms: C_11  and  C_19 
REMARK    4  A    between atoms: S_15  and  C_12 
REMARK    5  A    between atoms: O_24  and  C_13 
REMARK    6  A    between atoms: C_19  and  S_15 
ROOT
ATOM      1  S   UNL d   1      45.649 -18.125  40.203  0.00  0.00    -0.061 SA
ENDROOT
BRANCH   1   2
ATOM      2  C   UNL d   1      45.546 -17.577  39.574  0.00  0.00     0.133 A 
ATOM      3  C   UNL d   1      44.786 -17.337  39.365  0.00  0.00     0.029 A 
ATOM      4  C   UNL d   1      44.681 -16.801  38.749  0.00  0.00     0.024 A 
ATOM      5  C   UNL d   1      45.335 -16.505  38.342  0.00  0.00     0.111 A 
ATOM      6  N   UNL d   1      46.093 -16.745  38.551  0.00  0.00    -0.147 NA
ATOM      7  N   UNL d   1      46.200 -17.281  39.167  0.00  0.00    -0.141 NA
BRANCH   5   8
ATOM      8  C   UNL d   1      45.228 -15.969  37.726  0.00  0.00     0.068 A 
ATOM      9  C   UNL d   1      44.815 -16.071  37.013  0.00  0.00     0.089 A 
ATOM     10  N   UNL d   1      44.870 -15.370  36.579  0.00  0.00    -0.238 NA
ATOM     11  C   UNL d   1      44.415 -16.756  36.775  0.00  0.00     0.021 C 
ATOM     12  C   UNL d   1      45.316 -14.838  37.024  0.00  0.00     0.111 A 
ATOM     13  S   UNL d   1      45.538 -15.203  37.730  0.00  0.00    -0.065 SA
ATOM     14  C   UNL d   1      45.515 -14.053  36.801  0.00  0.00     0.028 C 
ENDBRANCH   5   8
ENDBRANCH   1   2
BRANCH   1  15
ATOM     15  C   UNL d   1      46.381 -18.181  40.581  0.00  0.00     0.099 C 
BRANCH  15  16
ATOM     16  C   UNL d   1      46.423 -18.512  41.334  0.00  0.00     0.286 C 
ATOM     17  N   UNL d   1      46.246 -18.049  42.004  0.00  0.00    -0.206 NA
ATOM     18  O   UNL d   1      46.643 -19.307  41.429  0.00  0.00    -0.265 OA
BRANCH  17  19
ATOM     19  C   UNL d   1      46.288 -18.379  42.757  0.00  0.00     0.107 A 
ATOM     20  C   UNL d   1      46.174 -17.901  43.427  0.00  0.00     0.112 A 
ATOM     21  C   UNL d   1      46.216 -18.231  44.181  0.00  0.00     0.026 A 
ATOM     22  C   UNL d   1      46.373 -19.040  44.273  0.00  0.00     0.002 A 
ATOM     23  C   UNL d   1      46.487 -19.516  43.602  0.00  0.00     0.002 A 
ATOM     24  C   UNL d   1      46.445 -19.187  42.848  0.00  0.00     0.021 A 
ATOM     25  C   UNL d   1      46.644 -20.321  43.690  0.00  0.00     0.000 C 
BRANCH  20  26
ATOM     26  O   UNL d   1      46.018 -17.096  43.336  0.00  0.00    -0.327 OA
ATOM     27  C   UNL d   1      46.244 -16.564  43.922  0.00  0.00     0.181 C 
ENDBRANCH  20  26
ENDBRANCH  17  19
ENDBRANCH  15  16
ENDBRANCH   1  15
TORSDOF 6
ENDMDL
