MODEL 1
REMARK VINA RESULT:      -6.4      0.000      0.000
REMARK  4 active torsions:
REMARK  status: ('A' for Active; 'I' for Inactive)
REMARK    1  A    between atoms: N_9  and  C_3 
REMARK    2  A    between atoms: C_11  and  C_5 
REMARK    3  A    between atoms: C_15  and  C_10 
REMARK    4  A    between atoms: C_18  and  C_15 
ROOT
ATOM      1  N   UNL d   1     -48.792  14.494  22.948  0.00  0.00    -0.196 N 
ATOM      2  C   UNL d   1     -48.209  13.896  22.985  0.00  0.00     0.167 A 
ATOM      3  C   UNL d   1     -49.562  14.298  23.137  0.00  0.00     0.152 A 
ATOM      4  N   UNL d   1     -47.806  15.430  22.539  0.00  0.00    -0.163 NA
ATOM      5  C   UNL d   1     -47.439  14.070  22.801  0.00  0.00     0.055 A 
ATOM      6  C   UNL d   1     -47.223  14.833  22.576  0.00  0.00     0.104 A 
ATOM      7  N   UNL d   1     -48.425  13.133  23.210  0.00  0.00    -0.227 NA
ATOM      8  C   UNL d   1     -49.784  13.552  23.359  0.00  0.00     0.057 A 
ATOM      9  C   UNL d   1     -49.201  12.954  23.396  0.00  0.00     0.086 A 
ATOM     10  C   UNL d   1     -46.450  15.014  22.390  0.00  0.00     0.023 C 
ENDROOT
BRANCH   5  11
ATOM     11  C   UNL d   1     -46.864  13.480  22.838  0.00  0.00     0.004 A 
ATOM     12  C   UNL d   1     -46.510  13.305  23.558  0.00  0.00     0.000 A 
ATOM     13  C   UNL d   1     -45.936  12.716  23.595  0.00  0.00     0.000 A 
ATOM     14  C   UNL d   1     -45.716  12.303  22.912  0.00  0.00     0.000 A 
ATOM     15  C   UNL d   1     -46.070  12.479  22.188  0.00  0.00     0.000 A 
ATOM     16  C   UNL d   1     -46.653  13.077  22.151  0.00  0.00     0.000 A 
ENDBRANCH   5  11
BRANCH   3  17
ATOM     17  N   UNL d   1     -50.163  14.914  23.098  0.00  0.00    -0.289 N 
ATOM     18  C   UNL d   1     -50.545  15.032  22.462  0.00  0.00     0.082 A 
ATOM     19  C   UNL d   1     -51.064  15.565  22.428  0.00  0.00     0.021 A 
ATOM     20  C   UNL d   1     -50.831  15.870  23.664  0.00  0.00     0.021 A 
ATOM     21  C   UNL d   1     -50.302  15.328  23.698  0.00  0.00     0.082 A 
ENDBRANCH   3  17
BRANCH   9  22
ATOM     22  C   UNL d   1     -49.420  12.158  23.630  0.00  0.00     0.019 C 
BRANCH  22  23
ATOM     23  C   UNL d   1     -50.121  11.776  23.293  0.00  0.00     0.002 C 
ATOM     24  C   UNL d   1     -50.493  11.126  23.698  0.00  0.00     0.000 C 
ENDBRANCH  22  23
ENDBRANCH   9  22
TORSDOF 4
ENDMDL
MODEL 2
REMARK VINA RESULT:      -6.3      8.626     10.063
REMARK  4 active torsions:
REMARK  status: ('A' for Active; 'I' for Inactive)
REMARK    1  A    between atoms: N_9  and  C_3 
REMARK    2  A    between atoms: C_11  and  C_5 
REMARK    3  A    between atoms: C_15  and  C_10 
REMARK    4  A    between atoms: C_18  and  C_15 
ROOT
ATOM      1  N   UNL d   1     -40.045  15.101  18.823  0.00  0.00    -0.196 N 
ATOM      2  C   UNL d   1     -39.671  14.779  19.498  0.00  0.00     0.167 A 
ATOM      3  C   UNL d   1     -39.814  14.835  18.087  0.00  0.00     0.152 A 
ATOM      4  N   UNL d   1     -40.847  15.922  19.660  0.00  0.00    -0.163 NA
ATOM      5  C   UNL d   1     -39.886  15.029  20.239  0.00  0.00     0.055 A 
ATOM      6  C   UNL d   1     -40.473  15.600  20.335  0.00  0.00     0.104 A 
ATOM      7  N   UNL d   1     -39.084  14.208  19.402  0.00  0.00    -0.227 NA
ATOM      8  C   UNL d   1     -39.239  14.276  17.982  0.00  0.00     0.057 A 
ATOM      9  C   UNL d   1     -38.865  13.954  18.657  0.00  0.00     0.086 A 
ATOM     10  C   UNL d   1     -40.694  15.856  21.076  0.00  0.00     0.023 C 
ENDROOT
BRANCH   5  11
ATOM     11  C   UNL d   1     -39.517  14.712  20.903  0.00  0.00     0.004 A 
ATOM     12  C   UNL d   1     -38.877  15.104  21.237  0.00  0.00     0.000 A 
ATOM     13  C   UNL d   1     -38.508  14.787  21.901  0.00  0.00     0.000 A 
ATOM     14  C   UNL d   1     -38.780  14.078  22.232  0.00  0.00     0.000 A 
ATOM     15  C   UNL d   1     -39.422  13.684  21.898  0.00  0.00     0.000 A 
ATOM     16  C   UNL d   1     -39.797  14.006  21.223  0.00  0.00     0.000 A 
ENDBRANCH   5  11
BRANCH   3  17
ATOM     17  N   UNL d   1     -40.200  15.167  17.392  0.00  0.00    -0.289 N 
ATOM     18  C   UNL d   1     -40.912  14.989  17.233  0.00  0.00     0.082 A 
ATOM     19  C   UNL d   1     -41.246  15.276  16.631  0.00  0.00     0.021 A 
ATOM     20  C   UNL d   1     -40.163  15.922  16.339  0.00  0.00     0.021 A 
ATOM     21  C   UNL d   1     -39.824  15.630  16.950  0.00  0.00     0.082 A 
ENDBRANCH   3  17
BRANCH   9  22
ATOM     22  C   UNL d   1     -38.253  13.359  18.563  0.00  0.00     0.019 C 
BRANCH  22  23
ATOM     23  C   UNL d   1     -38.361  12.697  18.014  0.00  0.00     0.002 C 
ATOM     24  C   UNL d   1     -37.946  11.964  18.137  0.00  0.00     0.000 C 
ENDBRANCH  22  23
ENDBRANCH   9  22
TORSDOF 4
ENDMDL
MODEL 3
REMARK VINA RESULT:      -6.0      8.358     10.635
REMARK  4 active torsions:
REMARK  status: ('A' for Active; 'I' for Inactive)
REMARK    1  A    between atoms: N_9  and  C_3 
REMARK    2  A    between atoms: C_11  and  C_5 
REMARK    3  A    between atoms: C_15  and  C_10 
REMARK    4  A    between atoms: C_18  and  C_15 
ROOT
ATOM      1  N   UNL d   1     -39.108  14.358  17.961  0.00  0.00    -0.196 N 
ATOM      2  C   UNL d   1     -39.619  14.689  18.535  0.00  0.00     0.167 A 
ATOM      3  C   UNL d   1     -39.244  14.530  17.175  0.00  0.00     0.152 A 
ATOM      4  N   UNL d   1     -38.370  13.714  18.990  0.00  0.00    -0.163 NA
ATOM      5  C   UNL d   1     -39.502  14.530  19.321  0.00  0.00     0.055 A 
ATOM      6  C   UNL d   1     -38.881  14.045  19.563  0.00  0.00     0.104 A 
ATOM      7  N   UNL d   1     -40.240  15.174  18.292  0.00  0.00    -0.227 NA
ATOM      8  C   UNL d   1     -39.850  15.006  16.927  0.00  0.00     0.057 A 
ATOM      9  C   UNL d   1     -40.361  15.336  17.500  0.00  0.00     0.086 A 
ATOM     10  C   UNL d   1     -38.758  13.882  20.352  0.00  0.00     0.023 C 
ENDROOT
BRANCH   5  11
ATOM     11  C   UNL d   1     -40.005  14.856  19.886  0.00  0.00     0.004 A 
ATOM     12  C   UNL d   1     -39.832  15.593  20.206  0.00  0.00     0.000 A 
ATOM     13  C   UNL d   1     -40.335  15.918  20.771  0.00  0.00     0.000 A 
ATOM     14  C   UNL d   1     -41.011  15.507  21.014  0.00  0.00     0.000 A 
ATOM     15  C   UNL d   1     -41.187  14.768  20.694  0.00  0.00     0.000 A 
ATOM     16  C   UNL d   1     -40.676  14.437  20.120  0.00  0.00     0.000 A 
ENDBRANCH   5  11
BRANCH   3  17
ATOM     17  N   UNL d   1     -38.717  14.190  16.584  0.00  0.00    -0.289 N 
ATOM     18  C   UNL d   1     -38.577  13.451  16.582  0.00  0.00     0.082 A 
ATOM     19  C   UNL d   1     -38.121  13.157  16.071  0.00  0.00     0.021 A 
ATOM     20  C   UNL d   1     -37.940  14.330  15.557  0.00  0.00     0.021 A 
ATOM     21  C   UNL d   1     -38.403  14.630  16.077  0.00  0.00     0.082 A 
ENDBRANCH   3  17
BRANCH   9  22
ATOM     22  C   UNL d   1     -41.009  15.843  17.253  0.00  0.00     0.019 C 
BRANCH  22  23
ATOM     23  C   UNL d   1     -41.712  15.507  16.875  0.00  0.00     0.002 C 
ATOM     24  C   UNL d   1     -42.095  15.919  16.237  0.00  0.00     0.000 C 
ENDBRANCH  22  23
ENDBRANCH   9  22
TORSDOF 4
ENDMDL
MODEL 4
REMARK VINA RESULT:      -5.1      1.240      4.466
REMARK  4 active torsions:
REMARK  status: ('A' for Active; 'I' for Inactive)
REMARK    1  A    between atoms: N_9  and  C_3 
REMARK    2  A    between atoms: C_11  and  C_5 
REMARK    3  A    between atoms: C_15  and  C_10 
REMARK    4  A    between atoms: C_18  and  C_15 
ROOT
ATOM      1  N   UNL d   1     -47.900  11.924  23.199  0.00  0.00    -0.196 N 
ATOM      2  C   UNL d   1     -48.504  12.463  22.991  0.00  0.00     0.167 A 
ATOM      3  C   UNL d   1     -47.125  12.130  23.044  0.00  0.00     0.152 A 
ATOM      4  N   UNL d   1     -48.876  11.022  23.698  0.00  0.00    -0.163 NA
ATOM      5  C   UNL d   1     -49.279  12.279  23.137  0.00  0.00     0.055 A 
ATOM      6  C   UNL d   1     -49.481  11.561  23.490  0.00  0.00     0.104 A 
ATOM      7  N   UNL d   1     -48.303  13.181  22.638  0.00  0.00    -0.227 NA
ATOM      8  C   UNL d   1     -46.918  12.832  22.698  0.00  0.00     0.057 A 
ATOM      9  C   UNL d   1     -47.522  13.371  22.490  0.00  0.00     0.086 A 
ATOM     10  C   UNL d   1     -50.259  11.369  23.639  0.00  0.00     0.023 C 
ENDROOT
BRANCH   5  11
ATOM     11  C   UNL d   1     -49.875  12.810  22.932  0.00  0.00     0.004 A 
ATOM     12  C   UNL d   1     -50.141  13.354  23.487  0.00  0.00     0.000 A 
ATOM     13  C   UNL d   1     -50.736  13.885  23.282  0.00  0.00     0.000 A 
ATOM     14  C   UNL d   1     -51.064  13.871  22.522  0.00  0.00     0.000 A 
ATOM     15  C   UNL d   1     -50.798  13.326  21.964  0.00  0.00     0.000 A 
ATOM     16  C   UNL d   1     -50.194  12.787  22.172  0.00  0.00     0.000 A 
ENDBRANCH   5  11
BRANCH   3  17
ATOM     17  N   UNL d   1     -46.503  11.574  23.258  0.00  0.00    -0.289 N 
ATOM     18  C   UNL d   1     -45.780  11.771  23.191  0.00  0.00     0.082 A 
ATOM     19  C   UNL d   1     -45.242  11.290  23.377  0.00  0.00     0.021 A 
ATOM     20  C   UNL d   1     -46.136  10.412  23.698  0.00  0.00     0.021 A 
ATOM     21  C   UNL d   1     -46.684  10.901  23.509  0.00  0.00     0.082 A 
ENDBRANCH   3  17
BRANCH   9  22
ATOM     22  C   UNL d   1     -47.318  14.119  22.122  0.00  0.00     0.019 C 
BRANCH  22  23
ATOM     23  C   UNL d   1     -47.007  14.775  22.596  0.00  0.00     0.002 C 
ATOM     24  C   UNL d   1     -47.373  15.542  22.560  0.00  0.00     0.000 C 
ENDBRANCH  22  23
ENDBRANCH   9  22
TORSDOF 4
ENDMDL
MODEL 5
REMARK VINA RESULT:      -5.1      8.490     10.885
REMARK  4 active torsions:
REMARK  status: ('A' for Active; 'I' for Inactive)
REMARK    1  A    between atoms: N_9  and  C_3 
REMARK    2  A    between atoms: C_11  and  C_5 
REMARK    3  A    between atoms: C_15  and  C_10 
REMARK    4  A    between atoms: C_18  and  C_15 
ROOT
ATOM      1  N   UNL d   1     -39.388  14.808  17.371  0.00  0.00    -0.196 N 
ATOM      2  C   UNL d   1     -39.639  14.852  18.167  0.00  0.00     0.167 A 
ATOM      3  C   UNL d   1     -38.667  14.460  17.211  0.00  0.00     0.152 A 
ATOM      4  N   UNL d   1     -40.582  15.455  16.958  0.00  0.00    -0.163 NA
ATOM      5  C   UNL d   1     -40.352  15.194  18.348  0.00  0.00     0.055 A 
ATOM      6  C   UNL d   1     -40.834  15.499  17.754  0.00  0.00     0.104 A 
ATOM      7  N   UNL d   1     -39.157  14.547  18.762  0.00  0.00    -0.227 NA
ATOM      8  C   UNL d   1     -38.187  14.157  17.788  0.00  0.00     0.057 A 
ATOM      9  C   UNL d   1     -38.438  14.202  18.584  0.00  0.00     0.086 A 
ATOM     10  C   UNL d   1     -41.552  15.844  17.929  0.00  0.00     0.023 C 
ENDROOT
BRANCH   5  11
ATOM     11  C   UNL d   1     -40.600  15.238  19.133  0.00  0.00     0.004 A 
ATOM     12  C   UNL d   1     -41.078  14.644  19.441  0.00  0.00     0.000 A 
ATOM     13  C   UNL d   1     -41.325  14.688  20.224  0.00  0.00     0.000 A 
ATOM     14  C   UNL d   1     -41.095  15.325  20.700  0.00  0.00     0.000 A 
ATOM     15  C   UNL d   1     -40.616  15.922  20.393  0.00  0.00     0.000 A 
ATOM     16  C   UNL d   1     -40.364  15.877  19.597  0.00  0.00     0.000 A 
ENDBRANCH   5  11
BRANCH   3  17
ATOM     17  N   UNL d   1     -38.408  14.414  16.390  0.00  0.00    -0.289 N 
ATOM     18  C   UNL d   1     -38.184  15.033  16.029  0.00  0.00     0.082 A 
ATOM     19  C   UNL d   1     -37.959  14.994  15.319  0.00  0.00     0.021 A 
ATOM     20  C   UNL d   1     -38.179  13.718  15.321  0.00  0.00     0.021 A 
ATOM     21  C   UNL d   1     -38.407  13.759  16.043  0.00  0.00     0.082 A 
ENDBRANCH   3  17
BRANCH   9  22
ATOM     22  C   UNL d   1     -37.940  13.885  19.207  0.00  0.00     0.019 C 
BRANCH  22  23
ATOM     23  C   UNL d   1     -38.230  13.256  19.728  0.00  0.00     0.002 C 
ATOM     24  C   UNL d   1     -37.941  13.191  20.525  0.00  0.00     0.000 C 
ENDBRANCH  22  23
ENDBRANCH   9  22
TORSDOF 4
ENDMDL
MODEL 6
REMARK VINA RESULT:      -5.0      7.137      9.162
REMARK  4 active torsions:
REMARK  status: ('A' for Active; 'I' for Inactive)
REMARK    1  A    between atoms: N_9  and  C_3 
REMARK    2  A    between atoms: C_11  and  C_5 
REMARK    3  A    between atoms: C_15  and  C_10 
REMARK    4  A    between atoms: C_18  and  C_15 
ROOT
ATOM      1  N   UNL d   1     -39.916  15.130  19.646  0.00  0.00    -0.196 N 
ATOM      2  C   UNL d   1     -39.889  15.065  20.479  0.00  0.00     0.167 A 
ATOM      3  C   UNL d   1     -40.581  14.861  19.257  0.00  0.00     0.152 A 
ATOM      4  N   UNL d   1     -38.625  15.721  19.650  0.00  0.00    -0.163 NA
ATOM      5  C   UNL d   1     -39.238  15.326  20.885  0.00  0.00     0.055 A 
ATOM      6  C   UNL d   1     -38.598  15.657  20.483  0.00  0.00     0.104 A 
ATOM      7  N   UNL d   1     -40.529  14.735  20.880  0.00  0.00    -0.227 NA
ATOM      8  C   UNL d   1     -41.214  14.535  19.642  0.00  0.00     0.057 A 
ATOM      9  C   UNL d   1     -41.187  14.470  20.475  0.00  0.00     0.086 A 
ATOM     10  C   UNL d   1     -37.940  15.921  20.885  0.00  0.00     0.023 C 
ENDROOT
BRANCH   5  11
ATOM     11  C   UNL d   1     -39.211  15.263  21.706  0.00  0.00     0.004 A 
ATOM     12  C   UNL d   1     -39.008  14.545  22.050  0.00  0.00     0.000 A 
ATOM     13  C   UNL d   1     -38.982  14.481  22.870  0.00  0.00     0.000 A 
ATOM     14  C   UNL d   1     -39.158  15.135  23.346  0.00  0.00     0.000 A 
ATOM     15  C   UNL d   1     -39.362  15.856  23.002  0.00  0.00     0.000 A 
ATOM     16  C   UNL d   1     -39.389  15.921  22.169  0.00  0.00     0.000 A 
ENDBRANCH   5  11
BRANCH   3  17
ATOM     17  N   UNL d   1     -40.609  14.928  18.398  0.00  0.00    -0.289 N 
ATOM     18  C   UNL d   1     -40.268  14.415  17.967  0.00  0.00     0.082 A 
ATOM     19  C   UNL d   1     -40.292  14.472  17.225  0.00  0.00     0.021 A 
ATOM     20  C   UNL d   1     -40.995  15.553  17.331  0.00  0.00     0.021 A 
ATOM     21  C   UNL d   1     -40.971  15.495  18.087  0.00  0.00     0.082 A 
ENDBRANCH   3  17
BRANCH   9  22
ATOM     22  C   UNL d   1     -41.851  14.127  20.898  0.00  0.00     0.019 C 
BRANCH  22  23
ATOM     23  C   UNL d   1     -41.972  13.269  20.909  0.00  0.00     0.002 C 
ATOM     24  C   UNL d   1     -42.578  12.927  21.397  0.00  0.00     0.000 C 
ENDBRANCH  22  23
ENDBRANCH   9  22
TORSDOF 4
ENDMDL
MODEL 7
REMARK VINA RESULT:      -4.0      1.347      4.294
REMARK  4 active torsions:
REMARK  status: ('A' for Active; 'I' for Inactive)
REMARK    1  A    between atoms: N_9  and  C_3 
REMARK    2  A    between atoms: C_11  and  C_5 
REMARK    3  A    between atoms: C_15  and  C_10 
REMARK    4  A    between atoms: C_18  and  C_15 
ROOT
ATOM      1  N   UNL d   1     -47.317  12.451  22.616  0.00  0.00    -0.196 N 
ATOM      2  C   UNL d   1     -48.117  12.669  22.724  0.00  0.00     0.167 A 
ATOM      3  C   UNL d   1     -46.751  13.038  22.625  0.00  0.00     0.152 A 
ATOM      4  N   UNL d   1     -47.704  11.090  22.497  0.00  0.00    -0.163 NA
ATOM      5  C   UNL d   1     -48.696  12.101  22.718  0.00  0.00     0.055 A 
ATOM      6  C   UNL d   1     -48.504  11.308  22.606  0.00  0.00     0.104 A 
ATOM      7  N   UNL d   1     -48.309  13.463  22.836  0.00  0.00    -0.227 NA
ATOM      8  C   UNL d   1     -46.929  13.820  22.735  0.00  0.00     0.057 A 
ATOM      9  C   UNL d   1     -47.728  14.038  22.843  0.00  0.00     0.086 A 
ATOM     10  C   UNL d   1     -49.081  10.732  22.598  0.00  0.00     0.023 C 
ENDROOT
BRANCH   5  11
ATOM     11  C   UNL d   1     -49.484  12.316  22.824  0.00  0.00     0.004 A 
ATOM     12  C   UNL d   1     -49.952  12.478  22.168  0.00  0.00     0.000 A 
ATOM     13  C   UNL d   1     -50.740  12.692  22.275  0.00  0.00     0.000 A 
ATOM     14  C   UNL d   1     -51.059  12.745  23.037  0.00  0.00     0.000 A 
ATOM     15  C   UNL d   1     -50.591  12.583  23.696  0.00  0.00     0.000 A 
ATOM     16  C   UNL d   1     -49.791  12.365  23.588  0.00  0.00     0.000 A 
ENDBRANCH   5  11
BRANCH   3  17
ATOM     17  N   UNL d   1     -45.926  12.814  22.514  0.00  0.00    -0.289 N 
ATOM     18  C   UNL d   1     -45.589  12.354  23.003  0.00  0.00     0.082 A 
ATOM     19  C   UNL d   1     -44.876  12.159  22.907  0.00  0.00     0.021 A 
ATOM     20  C   UNL d   1     -44.825  12.880  21.833  0.00  0.00     0.021 A 
ATOM     21  C   UNL d   1     -45.550  13.078  21.931  0.00  0.00     0.082 A 
ENDBRANCH   3  17
BRANCH   9  22
ATOM     22  C   UNL d   1     -47.934  14.863  22.960  0.00  0.00     0.019 C 
BRANCH  22  23
ATOM     23  C   UNL d   1     -48.654  15.193  22.609  0.00  0.00     0.002 C 
ATOM     24  C   UNL d   1     -48.623  15.917  22.164  0.00  0.00     0.000 C 
ENDBRANCH  22  23
ENDBRANCH   9  22
TORSDOF 4
ENDMDL
MODEL 8
REMARK VINA RESULT:      -3.7      7.994      9.931
REMARK  4 active torsions:
REMARK  status: ('A' for Active; 'I' for Inactive)
REMARK    1  A    between atoms: N_9  and  C_3 
REMARK    2  A    between atoms: C_11  and  C_5 
REMARK    3  A    between atoms: C_15  and  C_10 
REMARK    4  A    between atoms: C_18  and  C_15 
ROOT
ATOM      1  N   UNL d   1     -39.632  14.641  18.534  0.00  0.00    -0.196 N 
ATOM      2  C   UNL d   1     -39.406  14.482  19.323  0.00  0.00     0.167 A 
ATOM      3  C   UNL d   1     -40.194  15.217  18.400  0.00  0.00     0.152 A 
ATOM      4  N   UNL d   1     -38.727  13.647  18.076  0.00  0.00    -0.163 NA
ATOM      5  C   UNL d   1     -38.849  13.914  19.479  0.00  0.00     0.055 A 
ATOM      6  C   UNL d   1     -38.501  13.489  18.865  0.00  0.00     0.104 A 
ATOM      7  N   UNL d   1     -39.754  14.908  19.937  0.00  0.00    -0.227 NA
ATOM      8  C   UNL d   1     -40.542  15.640  18.995  0.00  0.00     0.057 A 
ATOM      9  C   UNL d   1     -40.316  15.482  19.784  0.00  0.00     0.086 A 
ATOM     10  C   UNL d   1     -37.940  12.916  19.014  0.00  0.00     0.023 C 
ENDROOT
BRANCH   5  11
ATOM     11  C   UNL d   1     -38.626  13.758  20.257  0.00  0.00     0.004 A 
ATOM     12  C   UNL d   1     -38.852  13.051  20.609  0.00  0.00     0.000 A 
ATOM     13  C   UNL d   1     -38.629  12.895  21.385  0.00  0.00     0.000 A 
ATOM     14  C   UNL d   1     -38.181  13.447  21.810  0.00  0.00     0.000 A 
ATOM     15  C   UNL d   1     -37.954  14.157  21.459  0.00  0.00     0.000 A 
ATOM     16  C   UNL d   1     -38.180  14.315  20.670  0.00  0.00     0.000 A 
ENDBRANCH   5  11
BRANCH   3  17
ATOM     17  N   UNL d   1     -40.427  15.380  17.586  0.00  0.00    -0.289 N 
ATOM     18  C   UNL d   1     -39.948  15.717  17.115  0.00  0.00     0.082 A 
ATOM     19  C   UNL d   1     -40.149  15.858  16.412  0.00  0.00     0.021 A 
ATOM     20  C   UNL d   1     -41.309  15.329  16.638  0.00  0.00     0.021 A 
ATOM     21  C   UNL d   1     -41.104  15.186  17.353  0.00  0.00     0.082 A 
ENDBRANCH   3  17
BRANCH   9  22
ATOM     22  C   UNL d   1     -40.675  15.922  20.428  0.00  0.00     0.019 C 
BRANCH  22  23
ATOM     23  C   UNL d   1     -41.456  15.702  20.732  0.00  0.00     0.002 C 
ATOM     24  C   UNL d   1     -41.672  15.884  21.534  0.00  0.00     0.000 C 
ENDBRANCH  22  23
ENDBRANCH   9  22
TORSDOF 4
ENDMDL
MODEL 9
REMARK VINA RESULT:      -3.6      1.413      2.227
REMARK  4 active torsions:
REMARK  status: ('A' for Active; 'I' for Inactive)
REMARK    1  A    between atoms: N_9  and  C_3 
REMARK    2  A    between atoms: C_11  and  C_5 
REMARK    3  A    between atoms: C_15  and  C_10 
REMARK    4  A    between atoms: C_18  and  C_15 
ROOT
ATOM      1  N   UNL d   1     -48.741  13.149  23.019  0.00  0.00    -0.196 N 
ATOM      2  C   UNL d   1     -47.909  13.187  22.955  0.00  0.00     0.167 A 
ATOM      3  C   UNL d   1     -49.077  12.462  23.306  0.00  0.00     0.152 A 
ATOM      4  N   UNL d   1     -48.841  14.471  22.512  0.00  0.00    -0.163 NA
ATOM      5  C   UNL d   1     -47.555  13.859  22.673  0.00  0.00     0.055 A 
ATOM      6  C   UNL d   1     -48.008  14.509  22.448  0.00  0.00     0.104 A 
ATOM      7  N   UNL d   1     -47.455  12.536  23.180  0.00  0.00    -0.227 NA
ATOM      8  C   UNL d   1     -48.641  11.819  23.529  0.00  0.00     0.057 A 
ATOM      9  C   UNL d   1     -47.808  11.857  23.465  0.00  0.00     0.086 A 
ATOM     10  C   UNL d   1     -47.659  15.189  22.163  0.00  0.00     0.023 C 
ENDROOT
BRANCH   5  11
ATOM     11  C   UNL d   1     -46.734  13.897  22.609  0.00  0.00     0.004 A 
ATOM     12  C   UNL d   1     -46.370  13.650  21.915  0.00  0.00     0.000 A 
ATOM     13  C   UNL d   1     -45.550  13.687  21.852  0.00  0.00     0.000 A 
ATOM     14  C   UNL d   1     -45.094  13.971  22.482  0.00  0.00     0.000 A 
ATOM     15  C   UNL d   1     -45.458  14.219  23.179  0.00  0.00     0.000 A 
ATOM     16  C   UNL d   1     -46.291  14.181  23.244  0.00  0.00     0.000 A 
ENDBRANCH   5  11
BRANCH   3  17
ATOM     17  N   UNL d   1     -49.936  12.423  23.372  0.00  0.00    -0.289 N 
ATOM     18  C   UNL d   1     -50.304  11.802  23.163  0.00  0.00     0.082 A 
ATOM     19  C   UNL d   1     -51.046  11.769  23.220  0.00  0.00     0.021 A 
ATOM     20  C   UNL d   1     -51.064  12.972  23.696  0.00  0.00     0.021 A 
ATOM     21  C   UNL d   1     -50.310  13.006  23.637  0.00  0.00     0.082 A 
ENDBRANCH   3  17
BRANCH   9  22
ATOM     22  C   UNL d   1     -47.331  11.182  23.698  0.00  0.00     0.019 C 
BRANCH  22  23
ATOM     23  C   UNL d   1     -46.852  10.757  23.114  0.00  0.00     0.002 C 
ATOM     24  C   UNL d   1     -46.235  10.228  23.367  0.00  0.00     0.000 C 
ENDBRANCH  22  23
ENDBRANCH   9  22
TORSDOF 4
ENDMDL
