MODEL 1
REMARK VINA RESULT:     132.9      0.000      0.000
REMARK  4 active torsions:
REMARK  status: ('A' for Active; 'I' for Inactive)
REMARK    1  A    between atoms: C_8  and  N_1 
REMARK    2  A    between atoms: C_11  and  C_13 
REMARK       I    between atoms: N_14  and  C_11 
REMARK    3  A    between atoms: C_18  and  N_14 
REMARK    4  A    between atoms: C_20  and  C_18 
ROOT
ATOM      1  C   UNL d   1      61.593  44.792  49.793  0.00  0.00     0.066 A 
ATOM      2  C   UNL d   1      61.844  45.545  50.019  0.00  0.00     0.022 A 
ATOM      3  C   UNL d   1      61.523  46.211  49.645  0.00  0.00     0.059 A 
ATOM      4  C   UNL d   1      61.023  44.698  49.198  0.00  0.00     0.017 A 
ATOM      5  C   UNL d   1      60.953  46.116  49.049  0.00  0.00     0.005 A 
ATOM      6  C   UNL d   1      60.708  45.362  48.830  0.00  0.00     0.002 A 
ENDROOT
BRANCH   1   7
ATOM      7  N   UNL d   1      61.908  44.129  50.161  0.00  0.00    -0.261 N 
ATOM      8  C   UNL d   1      61.495  43.917  50.840  0.00  0.00     0.174 A 
ATOM      9  O   UNL d   1      61.572  43.313  51.404  0.00  0.00    -0.316 OA
ATOM     10  C   UNL d   1      62.497  43.400  50.297  0.00  0.00     0.079 A 
ATOM     11  C   UNL d   1      60.839  44.316  51.129  0.00  0.00     0.055 C 
ATOM     12  C   UNL d   1      62.086  42.682  51.520  0.00  0.00     0.094 A 
ATOM     13  C   UNL d   1      61.827  42.301  52.211  0.00  0.00     0.024 A 
ATOM     14  C   UNL d   1      62.744  42.384  51.118  0.00  0.00     0.022 A 
ATOM     15  C   UNL d   1      62.223  41.636  52.491  0.00  0.00     0.002 A 
ATOM     16  C   UNL d   1      62.880  41.345  52.085  0.00  0.00    -0.000 A 
ATOM     17  C   UNL d   1      63.141  41.719  51.398  0.00  0.00    -0.001 A 
ATOM     18  C   UNL d   1      63.156  42.596  50.439  0.00  0.00     0.137 A 
ATOM     19  N   UNL d   1      63.086  43.200  49.868  0.00  0.00    -0.216 NA
ATOM     20  C   UNL d   1      62.572  43.832  49.753  0.00  0.00     0.348 A 
ATOM     21  O   UNL d   1      62.752  44.270  49.085  0.00  0.00    -0.245 OA
ENDBRANCH   1   7
BRANCH   3  22
ATOM     22  C   UNL d   1      61.774  46.963  49.871  0.00  0.00     0.279 C 
ATOM     23  N   UNL d   1      61.247  47.484  50.226  0.00  0.00    -0.206 NA
ATOM     24  O   UNL d   1      62.559  47.189  49.737  0.00  0.00    -0.265 OA
BRANCH  23  25
ATOM     25  C   UNL d   1      61.502  48.238  50.452  0.00  0.00     0.102 C 
BRANCH  25  26
ATOM     26  C   UNL d   1      60.999  48.725  50.886  0.00  0.00     0.019 A 
ATOM     27  C   UNL d   1      60.295  49.002  50.555  0.00  0.00     0.002 A 
ATOM     28  C   UNL d   1      59.799  49.489  50.997  0.00  0.00     0.000 A 
ATOM     29  C   UNL d   1      59.995  49.704  51.767  0.00  0.00     0.000 A 
ATOM     30  C   UNL d   1      60.704  49.424  52.097  0.00  0.00     0.000 A 
ATOM     31  C   UNL d   1      61.202  48.938  51.661  0.00  0.00     0.002 A 
ENDBRANCH  25  26
ENDBRANCH  23  25
ENDBRANCH   3  22
TORSDOF 4
ENDMDL
