MODEL 1
REMARK VINA RESULT:      51.0      0.000      0.000
REMARK  5 active torsions:
REMARK  status: ('A' for Active; 'I' for Inactive)
REMARK    1  A    between atoms: N_2  and  C_1 
REMARK    2  A    between atoms: C_5  and  C_1 
REMARK    3  A    between atoms: O_4  and  N_2 
REMARK    4  A    between atoms: C_3  and  O_4 
REMARK    5  A    between atoms: C_6  and  C_3 
ROOT
ATOM      1  O   UNL d   1      58.156  48.873  51.181  0.00  0.00    -0.168 OA
ENDROOT
BRANCH   1   2
ATOM      2  C   UNL d   1      57.372  48.879  50.715  0.00  0.00     0.319 C 
ATOM      3  O   UNL d   1      56.854  49.613  50.705  0.00  0.00    -0.257 OA
BRANCH   2   4
ATOM      4  C   UNL d   1      57.134  48.205  50.298  0.00  0.00     0.065 A 
ATOM      5  C   UNL d   1      56.795  48.297  49.543  0.00  0.00     0.005 A 
ATOM      6  C   UNL d   1      56.560  47.613  49.133  0.00  0.00     0.000 A 
ATOM      7  C   UNL d   1      56.656  46.863  49.458  0.00  0.00     0.000 A 
ATOM      8  C   UNL d   1      56.994  46.805  50.208  0.00  0.00     0.000 A 
ATOM      9  C   UNL d   1      56.417  46.195  49.036  0.00  0.00     0.000 C 
ATOM     10  C   UNL d   1      57.230  47.457  50.622  0.00  0.00     0.005 A 
ENDBRANCH   2   4
ENDBRANCH   1   2
BRANCH   1  11
ATOM     11  N   UNL d   1      58.812  49.274  50.911  0.00  0.00    -0.100 NA
BRANCH  11  12
ATOM     12  C   UNL d   1      59.420  49.492  51.415  0.00  0.00     0.228 C 
ATOM     13  N   UNL d   1      59.247  49.658  52.204  0.00  0.00    -0.123 N 
BRANCH  12  14
ATOM     14  C   UNL d   1      60.192  49.550  51.155  0.00  0.00     0.121 A 
ATOM     15  N   UNL d   1      60.354  49.644  50.362  0.00  0.00    -0.241 NA
ATOM     16  C   UNL d   1      61.145  49.702  50.102  0.00  0.00     0.099 A 
ATOM     17  C   UNL d   1      61.760  49.664  50.654  0.00  0.00     0.021 A 
ATOM     18  C   UNL d   1      61.594  49.568  51.462  0.00  0.00     0.003 A 
ATOM     19  C   UNL d   1      60.808  49.512  51.707  0.00  0.00     0.022 A 
ENDBRANCH  12  14
ENDBRANCH  11  12
ENDBRANCH   1  11
TORSDOF 5
ENDMDL
MODEL 2
REMARK VINA RESULT:      51.4      2.859      3.953
REMARK  5 active torsions:
REMARK  status: ('A' for Active; 'I' for Inactive)
REMARK    1  A    between atoms: N_2  and  C_1 
REMARK    2  A    between atoms: C_5  and  C_1 
REMARK    3  A    between atoms: O_4  and  N_2 
REMARK    4  A    between atoms: C_3  and  O_4 
REMARK    5  A    between atoms: C_6  and  C_3 
ROOT
ATOM      1  O   UNL d   1      61.255  48.327  49.978  0.00  0.00    -0.168 OA
ENDROOT
BRANCH   1   2
ATOM      2  C   UNL d   1      61.022  49.100  50.403  0.00  0.00     0.319 C 
ATOM      3  O   UNL d   1      61.649  49.703  50.627  0.00  0.00    -0.257 OA
BRANCH   2   4
ATOM      4  C   UNL d   1      60.228  49.248  50.584  0.00  0.00     0.065 A 
ATOM      5  C   UNL d   1      59.732  49.560  49.992  0.00  0.00     0.005 A 
ATOM      6  C   UNL d   1      58.936  49.705  50.184  0.00  0.00     0.000 A 
ATOM      7  C   UNL d   1      58.641  49.548  50.936  0.00  0.00     0.000 A 
ATOM      8  C   UNL d   1      59.157  49.239  51.500  0.00  0.00     0.000 A 
ATOM      9  C   UNL d   1      57.848  49.698  51.109  0.00  0.00     0.000 C 
ATOM     10  C   UNL d   1      59.933  49.091  51.334  0.00  0.00     0.005 A 
ENDBRANCH   2   4
ENDBRANCH   1   2
BRANCH   1  11
ATOM     11  N   UNL d   1      61.472  47.662  50.398  0.00  0.00    -0.100 NA
BRANCH  11  12
ATOM     12  C   UNL d   1      61.710  46.975  50.021  0.00  0.00     0.228 C 
ATOM     13  N   UNL d   1      62.258  47.024  49.407  0.00  0.00    -0.123 N 
BRANCH  12  14
ATOM     14  C   UNL d   1      61.419  46.243  50.238  0.00  0.00     0.121 A 
ATOM     15  N   UNL d   1      60.897  46.177  50.861  0.00  0.00    -0.241 NA
ATOM     16  C   UNL d   1      60.603  45.427  51.079  0.00  0.00     0.099 A 
ATOM     17  C   UNL d   1      60.842  44.755  50.659  0.00  0.00     0.021 A 
ATOM     18  C   UNL d   1      61.374  44.825  50.025  0.00  0.00     0.003 A 
ATOM     19  C   UNL d   1      61.658  45.572  49.819  0.00  0.00     0.022 A 
ENDBRANCH  12  14
ENDBRANCH  11  12
ENDBRANCH   1  11
TORSDOF 5
ENDMDL
