MODEL 1
REMARK VINA RESULT:      74.8      0.000      0.000
REMARK  6 active torsions:
REMARK  status: ('A' for Active; 'I' for Inactive)
REMARK    1  A    between atoms: S_12  and  C_5 
REMARK    2  A    between atoms: C_16  and  C_6 
REMARK    3  A    between atoms: C_10  and  C_14 
REMARK    4  A    between atoms: C_19  and  S_12 
REMARK    5  A    between atoms: C_13  and  C_19 
REMARK       I    between atoms: N_15  and  C_13 
REMARK    6  A    between atoms: C_22  and  N_15 
ROOT
ATOM      1  C   UNL d   1      14.323  14.442  -2.507  0.00  0.00     0.186 A 
ATOM      2  C   UNL d   1      14.309  15.177  -2.894  0.00  0.00     0.065 A 
ATOM      3  N   UNL d   1      14.039  13.768  -2.885  0.00  0.00    -0.203 NA
ATOM      4  N   UNL d   1      13.729  14.565  -4.036  0.00  0.00    -0.220 NA
ATOM      5  C   UNL d   1      14.013  15.227  -3.653  0.00  0.00     0.116 A 
ATOM      6  C   UNL d   1      13.740  13.827  -3.653  0.00  0.00     0.165 A 
ATOM      7  O   UNL d   1      14.624  14.384  -1.735  0.00  0.00    -0.289 OA
ATOM      8  C   UNL d   1      14.597  15.850  -2.507  0.00  0.00     0.007 A 
ATOM      9  C   UNL d   1      14.910  15.049  -1.348  0.00  0.00     0.102 A 
ATOM     10  C   UNL d   1      14.896  15.788  -1.737  0.00  0.00     0.023 A 
ATOM     11  C   UNL d   1      15.205  14.997  -0.593  0.00  0.00     0.025 A 
ATOM     12  C   UNL d   1      15.183  16.457  -1.349  0.00  0.00     0.002 A 
ATOM     13  C   UNL d   1      15.481  16.392  -0.582  0.00  0.00     0.000 A 
ATOM     14  C   UNL d   1      15.494  15.661  -0.196  0.00  0.00     0.002 A 
ENDROOT
BRANCH   5  15
ATOM     15  S   UNL d   1      14.002  15.966  -4.034  0.00  0.00    -0.062 SA
BRANCH  15  16
ATOM     16  C   UNL d   1      14.548  16.117  -4.637  0.00  0.00     0.099 C 
BRANCH  16  17
ATOM     17  C   UNL d   1      14.685  16.888  -4.886  0.00  0.00     0.286 C 
ATOM     18  N   UNL d   1      14.056  17.360  -5.119  0.00  0.00    -0.208 NA
ATOM     19  O   UNL d   1      15.451  17.189  -4.904  0.00  0.00    -0.265 OA
BRANCH  18  20
ATOM     20  C   UNL d   1      14.191  18.134  -5.370  0.00  0.00     0.085 A 
ATOM     21  C   UNL d   1      13.987  18.355  -6.131  0.00  0.00     0.019 A 
ATOM     22  C   UNL d   1      14.119  19.120  -6.383  0.00  0.00     0.008 A 
ATOM     23  C   UNL d   1      14.462  19.673  -5.866  0.00  0.00     0.065 A 
ATOM     24  C   UNL d   1      14.664  19.446  -5.104  0.00  0.00     0.008 A 
ATOM     25  C   UNL d   1      14.531  18.675  -4.851  0.00  0.00     0.019 A 
BRANCH  23  26
ATOM     26  C   UNL d   1      14.597  20.444  -6.114  0.00  0.00     0.211 C 
ATOM     27  O   UNL d   1      13.974  20.983  -6.119  0.00  0.00    -0.644 OA
ATOM     28  O   UNL d   1      15.348  20.680  -6.355  0.00  0.00    -0.644 OA
ENDBRANCH  23  26
ENDBRANCH  18  20
ENDBRANCH  16  17
ENDBRANCH  15  16
ENDBRANCH   5  15
BRANCH   6  29
ATOM     29  C   UNL d   1      13.456  13.154  -4.031  0.00  0.00     0.036 A 
ATOM     30  C   UNL d   1      13.130  12.537  -3.582  0.00  0.00     0.003 A 
ATOM     31  C   UNL d   1      12.844  11.861  -3.955  0.00  0.00     0.000 A 
ATOM     32  C   UNL d   1      12.883  11.796  -4.779  0.00  0.00     0.000 A 
ATOM     33  C   UNL d   1      13.208  12.409  -5.232  0.00  0.00     0.000 A 
ATOM     34  C   UNL d   1      13.495  13.090  -4.850  0.00  0.00     0.003 A 
ENDBRANCH   6  29
TORSDOF 6
ENDMDL
MODEL 2
REMARK VINA RESULT:      76.3      0.770      3.307
REMARK  6 active torsions:
REMARK  status: ('A' for Active; 'I' for Inactive)
REMARK    1  A    between atoms: S_12  and  C_5 
REMARK    2  A    between atoms: C_16  and  C_6 
REMARK    3  A    between atoms: C_10  and  C_14 
REMARK    4  A    between atoms: C_19  and  S_12 
REMARK    5  A    between atoms: C_13  and  C_19 
REMARK       I    between atoms: N_15  and  C_13 
REMARK    6  A    between atoms: C_22  and  N_15 
ROOT
ATOM      1  C   UNL d   1      13.989  14.222  -3.032  0.00  0.00     0.186 A 
ATOM      2  C   UNL d   1      13.882  14.599  -3.765  0.00  0.00     0.065 A 
ATOM      3  N   UNL d   1      14.298  14.637  -2.393  0.00  0.00    -0.203 NA
ATOM      4  N   UNL d   1      14.392  15.806  -3.219  0.00  0.00    -0.220 NA
ATOM      5  C   UNL d   1      14.085  15.385  -3.848  0.00  0.00     0.116 A 
ATOM      6  C   UNL d   1      14.501  15.434  -2.484  0.00  0.00     0.165 A 
ATOM      7  O   UNL d   1      13.784  13.422  -2.943  0.00  0.00    -0.289 OA
ATOM      8  C   UNL d   1      13.571  14.174  -4.404  0.00  0.00     0.007 A 
ATOM      9  C   UNL d   1      13.476  12.997  -3.574  0.00  0.00     0.102 A 
ATOM     10  C   UNL d   1      13.368  13.376  -4.310  0.00  0.00     0.023 A 
ATOM     11  C   UNL d   1      13.274  12.214  -3.490  0.00  0.00     0.025 A 
ATOM     12  C   UNL d   1      13.058  12.950  -4.945  0.00  0.00     0.002 A 
ATOM     13  C   UNL d   1      12.857  12.155  -4.848  0.00  0.00     0.000 A 
ATOM     14  C   UNL d   1      12.963  11.780  -4.119  0.00  0.00     0.002 A 
ENDROOT
BRANCH   5  15
ATOM     15  S   UNL d   1      13.975  15.755  -4.584  0.00  0.00    -0.062 SA
BRANCH  15  16
ATOM     16  C   UNL d   1      14.566  16.254  -4.877  0.00  0.00     0.099 C 
BRANCH  16  17
ATOM     17  C   UNL d   1      14.368  16.985  -5.196  0.00  0.00     0.286 C 
ATOM     18  N   UNL d   1      14.754  17.661  -4.939  0.00  0.00    -0.208 NA
ATOM     19  O   UNL d   1      13.784  17.041  -5.773  0.00  0.00    -0.265 OA
BRANCH  18  20
ATOM     20  C   UNL d   1      14.557  18.396  -5.259  0.00  0.00     0.085 A 
ATOM     21  C   UNL d   1      14.917  18.647  -5.950  0.00  0.00     0.019 A 
ATOM     22  C   UNL d   1      14.725  19.373  -6.270  0.00  0.00     0.008 A 
ATOM     23  C   UNL d   1      14.164  19.856  -5.892  0.00  0.00     0.065 A 
ATOM     24  C   UNL d   1      13.805  19.599  -5.200  0.00  0.00     0.008 A 
ATOM     25  C   UNL d   1      14.000  18.867  -4.879  0.00  0.00     0.019 A 
BRANCH  23  26
ATOM     26  C   UNL d   1      13.966  20.587  -6.209  0.00  0.00     0.211 C 
ATOM     27  O   UNL d   1      13.174  20.768  -6.347  0.00  0.00    -0.644 OA
ATOM     28  O   UNL d   1      14.551  21.138  -6.388  0.00  0.00    -0.644 OA
ENDBRANCH  23  26
ENDBRANCH  18  20
ENDBRANCH  16  17
ENDBRANCH  15  16
ENDBRANCH   5  15
BRANCH   6  29
ATOM     29  C   UNL d   1      14.809  15.849  -1.845  0.00  0.00     0.036 A 
ATOM     30  C   UNL d   1      14.975  16.659  -1.922  0.00  0.00     0.003 A 
ATOM     31  C   UNL d   1      15.284  17.080  -1.285  0.00  0.00     0.000 A 
ATOM     32  C   UNL d   1      15.429  16.695  -0.568  0.00  0.00     0.000 A 
ATOM     33  C   UNL d   1      15.266  15.887  -0.485  0.00  0.00     0.000 A 
ATOM     34  C   UNL d   1      14.954  15.466  -1.131  0.00  0.00     0.003 A 
ENDBRANCH   6  29
TORSDOF 6
ENDMDL
