MODEL 1
REMARK VINA RESULT:      -8.2      0.000      0.000
REMARK  0 active torsions:
REMARK  status: ('A' for Active; 'I' for Inactive)
ROOT
ATOM      1  N   UNL d   1      53.223  33.882  54.212  0.00  0.00    -0.183 NA
ATOM      2  C   UNL d   1      53.837  34.106  54.717  0.00  0.00     0.339 A 
ATOM      3  N   UNL d   1      54.389  32.797  54.610  0.00  0.00    -0.201 NA
ATOM      4  C   UNL d   1      54.415  33.568  54.915  0.00  0.00     0.337 A 
ATOM      5  C   UNL d   1      53.194  33.117  53.907  0.00  0.00     0.184 A 
ATOM      6  C   UNL d   1      53.772  32.579  54.105  0.00  0.00     0.121 A 
ATOM      7  N   UNL d   1      52.580  32.894  53.402  0.00  0.00    -0.223 NA
ATOM      8  C   UNL d   1      53.746  31.809  53.801  0.00  0.00     0.031 A 
ATOM      9  O   UNL d   1      53.870  34.876  55.026  0.00  0.00    -0.260 OA
ATOM     10  O   UNL d   1      55.036  33.791  55.425  0.00  0.00    -0.260 OA
ATOM     11  C   UNL d   1      53.128  31.589  53.295  0.00  0.00     0.055 A 
ATOM     12  C   UNL d   1      52.550  32.127  53.097  0.00  0.00     0.107 A 
ATOM     13 BR   UNL d   1      53.092  30.826  52.987  0.00  0.00    -0.048 Br
ENDROOT
TORSDOF 0
ENDMDL
MODEL 2
REMARK VINA RESULT:      -8.0      2.344      2.908
REMARK  0 active torsions:
REMARK  status: ('A' for Active; 'I' for Inactive)
ROOT
ATOM      1  N   UNL d   1      52.903  31.863  52.817  0.00  0.00    -0.183 NA
ATOM      2  C   UNL d   1      52.964  31.041  52.877  0.00  0.00     0.339 A 
ATOM      3  N   UNL d   1      53.750  31.195  54.056  0.00  0.00    -0.201 NA
ATOM      4  C   UNL d   1      53.384  30.710  53.491  0.00  0.00     0.337 A 
ATOM      5  C   UNL d   1      53.265  32.348  53.376  0.00  0.00     0.184 A 
ATOM      6  C   UNL d   1      53.685  32.016  53.990  0.00  0.00     0.121 A 
ATOM      7  N   UNL d   1      53.203  33.169  53.316  0.00  0.00    -0.223 NA
ATOM      8  C   UNL d   1      54.050  32.501  54.554  0.00  0.00     0.031 A 
ATOM      9  O   UNL d   1      52.600  30.548  52.315  0.00  0.00    -0.260 OA
ATOM     10  O   UNL d   1      53.447  29.881  53.554  0.00  0.00    -0.260 OA
ATOM     11  C   UNL d   1      53.986  33.324  54.490  0.00  0.00     0.055 A 
ATOM     12  C   UNL d   1      53.566  33.655  53.876  0.00  0.00     0.107 A 
ATOM     13 BR   UNL d   1      54.346  33.815  55.046  0.00  0.00    -0.048 Br
ENDROOT
TORSDOF 0
ENDMDL
MODEL 3
REMARK VINA RESULT:      -7.8      2.153      2.961
REMARK  0 active torsions:
REMARK  status: ('A' for Active; 'I' for Inactive)
ROOT
ATOM      1  N   UNL d   1      53.791  31.989  54.176  0.00  0.00    -0.183 NA
ATOM      2  C   UNL d   1      53.482  31.489  53.596  0.00  0.00     0.339 A 
ATOM      3  N   UNL d   1      52.754  32.586  53.052  0.00  0.00    -0.201 NA
ATOM      4  C   UNL d   1      52.968  31.784  53.038  0.00  0.00     0.337 A 
ATOM      5  C   UNL d   1      53.581  32.785  54.192  0.00  0.00     0.184 A 
ATOM      6  C   UNL d   1      53.067  33.081  53.635  0.00  0.00     0.121 A 
ATOM      7  N   UNL d   1      53.891  33.285  54.772  0.00  0.00    -0.223 NA
ATOM      8  C   UNL d   1      52.853  33.882  53.648  0.00  0.00     0.031 A 
ATOM      9  O   UNL d   1      53.692  30.685  53.576  0.00  0.00    -0.260 OA
ATOM     10  O   UNL d   1      52.654  31.282  52.452  0.00  0.00    -0.260 OA
ATOM     11  C   UNL d   1      53.167  34.379  54.232  0.00  0.00     0.055 A 
ATOM     12  C   UNL d   1      53.681  34.083  54.790  0.00  0.00     0.107 A 
ATOM     13 BR   UNL d   1      52.961  35.177  54.255  0.00  0.00    -0.048 Br
ENDROOT
TORSDOF 0
ENDMDL
MODEL 4
REMARK VINA RESULT:      -7.6      1.562      1.974
REMARK  0 active torsions:
REMARK  status: ('A' for Active; 'I' for Inactive)
ROOT
ATOM      1  N   UNL d   1      53.930  34.528  54.634  0.00  0.00    -0.183 NA
ATOM      2  C   UNL d   1      54.298  33.894  55.014  0.00  0.00     0.339 A 
ATOM      3  N   UNL d   1      53.318  33.013  54.475  0.00  0.00    -0.201 NA
ATOM      4  C   UNL d   1      53.995  33.143  54.935  0.00  0.00     0.337 A 
ATOM      5  C   UNL d   1      53.257  34.403  54.175  0.00  0.00     0.184 A 
ATOM      6  C   UNL d   1      52.953  33.651  54.096  0.00  0.00     0.121 A 
ATOM      7  N   UNL d   1      52.889  35.036  53.795  0.00  0.00    -0.223 NA
ATOM      8  C   UNL d   1      52.277  33.521  53.636  0.00  0.00     0.031 A 
ATOM      9  O   UNL d   1      54.977  34.016  55.478  0.00  0.00    -0.260 OA
ATOM     10  O   UNL d   1      54.365  32.501  55.318  0.00  0.00    -0.260 OA
ATOM     11  C   UNL d   1      51.911  34.161  53.257  0.00  0.00     0.055 A 
ATOM     12  C   UNL d   1      52.215  34.912  53.335  0.00  0.00     0.107 A 
ATOM     13 BR   UNL d   1      51.238  34.042  52.796  0.00  0.00    -0.048 Br
ENDROOT
TORSDOF 0
ENDMDL
MODEL 5
REMARK VINA RESULT:      -7.6      0.892      1.612
REMARK  0 active torsions:
REMARK  status: ('A' for Active; 'I' for Inactive)
ROOT
ATOM      1  N   UNL d   1      53.665  33.886  54.665  0.00  0.00    -0.183 NA
ATOM      2  C   UNL d   1      53.262  34.588  54.498  0.00  0.00     0.339 A 
ATOM      3  N   UNL d   1      52.528  33.915  53.480  0.00  0.00    -0.201 NA
ATOM      4  C   UNL d   1      52.699  34.603  53.911  0.00  0.00     0.337 A 
ATOM      5  C   UNL d   1      53.497  33.201  54.239  0.00  0.00     0.184 A 
ATOM      6  C   UNL d   1      52.934  33.215  53.651  0.00  0.00     0.121 A 
ATOM      7  N   UNL d   1      53.899  32.499  54.405  0.00  0.00    -0.223 NA
ATOM      8  C   UNL d   1      52.762  32.528  53.221  0.00  0.00     0.031 A 
ATOM      9  O   UNL d   1      53.428  35.281  54.926  0.00  0.00    -0.260 OA
ATOM     10  O   UNL d   1      52.292  35.310  53.741  0.00  0.00    -0.260 OA
ATOM     11  C   UNL d   1      53.169  31.827  53.392  0.00  0.00     0.055 A 
ATOM     12  C   UNL d   1      53.732  31.812  53.979  0.00  0.00     0.107 A 
ATOM     13 BR   UNL d   1      53.006  31.138  52.969  0.00  0.00    -0.048 Br
ENDROOT
TORSDOF 0
ENDMDL
MODEL 6
REMARK VINA RESULT:      -7.5      1.406      1.889
REMARK  0 active torsions:
REMARK  status: ('A' for Active; 'I' for Inactive)
ROOT
ATOM      1  N   UNL d   1      53.587  32.820  54.299  0.00  0.00    -0.183 NA
ATOM      2  C   UNL d   1      54.024  33.285  54.824  0.00  0.00     0.339 A 
ATOM      3  N   UNL d   1      53.290  34.431  54.402  0.00  0.00    -0.201 NA
ATOM      4  C   UNL d   1      53.877  34.084  54.874  0.00  0.00     0.337 A 
ATOM      5  C   UNL d   1      53.003  33.161  53.828  0.00  0.00     0.184 A 
ATOM      6  C   UNL d   1      52.856  33.960  53.879  0.00  0.00     0.121 A 
ATOM      7  N   UNL d   1      52.567  32.695  53.305  0.00  0.00    -0.223 NA
ATOM      8  C   UNL d   1      52.270  34.307  53.407  0.00  0.00     0.031 A 
ATOM      9  O   UNL d   1      54.613  32.945  55.300  0.00  0.00    -0.260 OA
ATOM     10  O   UNL d   1      54.316  34.557  55.403  0.00  0.00    -0.260 OA
ATOM     11  C   UNL d   1      51.835  33.835  52.883  0.00  0.00     0.055 A 
ATOM     12  C   UNL d   1      51.982  33.036  52.832  0.00  0.00     0.107 A 
ATOM     13 BR   UNL d   1      51.250  34.170  52.409  0.00  0.00    -0.048 Br
ENDROOT
TORSDOF 0
ENDMDL
MODEL 7
REMARK VINA RESULT:      -7.2      2.046      2.733
REMARK  0 active torsions:
REMARK  status: ('A' for Active; 'I' for Inactive)
ROOT
ATOM      1  N   UNL d   1      52.510  33.231  52.864  0.00  0.00    -0.183 NA
ATOM      2  C   UNL d   1      51.927  33.812  52.792  0.00  0.00     0.339 A 
ATOM      3  N   UNL d   1      52.505  34.514  53.889  0.00  0.00    -0.201 NA
ATOM      4  C   UNL d   1      51.924  34.448  53.300  0.00  0.00     0.337 A 
ATOM      5  C   UNL d   1      53.088  33.293  53.448  0.00  0.00     0.184 A 
ATOM      6  C   UNL d   1      53.085  33.929  53.956  0.00  0.00     0.121 A 
ATOM      7  N   UNL d   1      53.670  32.713  53.520  0.00  0.00    -0.223 NA
ATOM      8  C   UNL d   1      53.665  33.996  54.544  0.00  0.00     0.031 A 
ATOM      9  O   UNL d   1      51.343  33.753  52.205  0.00  0.00    -0.260 OA
ATOM     10  O   UNL d   1      51.337  35.036  53.229  0.00  0.00    -0.260 OA
ATOM     11  C   UNL d   1      54.247  33.410  54.612  0.00  0.00     0.055 A 
ATOM     12  C   UNL d   1      54.250  32.774  54.104  0.00  0.00     0.107 A 
ATOM     13 BR   UNL d   1      54.828  33.466  55.194  0.00  0.00    -0.048 Br
ENDROOT
TORSDOF 0
ENDMDL
MODEL 8
REMARK VINA RESULT:      -5.2     10.114     10.349
REMARK  0 active torsions:
REMARK  status: ('A' for Active; 'I' for Inactive)
ROOT
ATOM      1  N   UNL d   1      45.357  28.232  58.246  0.00  0.00    -0.183 NA
ATOM      2  C   UNL d   1      45.525  27.505  57.891  0.00  0.00     0.339 A 
ATOM      3  N   UNL d   1      45.200  28.061  56.620  0.00  0.00    -0.201 NA
ATOM      4  C   UNL d   1      45.447  27.420  57.085  0.00  0.00     0.337 A 
ATOM      5  C   UNL d   1      45.111  28.871  57.787  0.00  0.00     0.184 A 
ATOM      6  C   UNL d   1      45.033  28.786  56.981  0.00  0.00     0.121 A 
ATOM      7  N   UNL d   1      44.943  29.597  58.142  0.00  0.00    -0.223 NA
ATOM      8  C   UNL d   1      44.786  29.426  56.516  0.00  0.00     0.031 A 
ATOM      9  O   UNL d   1      45.773  26.859  58.351  0.00  0.00    -0.260 OA
ATOM     10  O   UNL d   1      45.617  26.687  56.725  0.00  0.00    -0.260 OA
ATOM     11  C   UNL d   1      44.619  30.153  56.877  0.00  0.00     0.055 A 
ATOM     12  C   UNL d   1      44.696  30.238  57.683  0.00  0.00     0.107 A 
ATOM     13 BR   UNL d   1      44.373  30.796  56.424  0.00  0.00    -0.048 Br
ENDROOT
TORSDOF 0
ENDMDL
