MODEL 1
REMARK VINA RESULT:      -5.3      0.000      0.000
REMARK  3 active torsions:
REMARK  status: ('A' for Active; 'I' for Inactive)
REMARK    1  A    between atoms: C_3  and  N_1 
REMARK    2  A    between atoms: N_2  and  C_4 
REMARK    3  A    between atoms: C_7  and  C_8 
ROOT
ATOM      1  C   UNL d   1     -41.921-122.284 -54.233  0.00  0.00     0.146 A 
ATOM      2  C   UNL d   1     -41.916-122.108 -53.421  0.00  0.00     0.025 A 
ATOM      3  C   UNL d   1     -41.516-122.608 -52.887  0.00  0.00     0.002 A 
ATOM      4  C   UNL d   1     -41.525-122.963 -54.514  0.00  0.00     0.125 A 
ATOM      5  C   UNL d   1     -41.124-123.283 -53.166  0.00  0.00     0.002 A 
ATOM      6  C   UNL d   1     -41.125-123.464 -53.980  0.00  0.00     0.023 A 
ATOM      7  N   UNL d   1     -41.529-123.136 -55.308  0.00  0.00    -0.146 N 
ENDROOT
BRANCH   3   8
ATOM      8  C   UNL d   1     -41.511-122.436 -52.083  0.00  0.00     0.002 A 
ATOM      9  C   UNL d   1     -41.883-122.939 -51.548  0.00  0.00     0.025 A 
ATOM     10  C   UNL d   1     -41.875-122.762 -50.744  0.00  0.00     0.146 A 
ATOM     11  C   UNL d   1     -41.495-122.083 -50.473  0.00  0.00     0.125 A 
ATOM     12  C   UNL d   1     -41.123-121.580 -51.008  0.00  0.00     0.023 A 
ATOM     13  N   UNL d   1     -41.489-121.910 -49.675  0.00  0.00    -0.146 N 
ATOM     14  C   UNL d   1     -41.130-121.755 -51.815  0.00  0.00     0.002 A 
BRANCH  10  15
ATOM     15  N   UNL d   1     -42.245-123.263 -50.211  0.00  0.00    -0.112 N 
ATOM     16  O   UNL d   1     -43.055-123.278 -50.056  0.00  0.00    -0.532 OA
ATOM     17  O   UNL d   1     -41.853-123.817 -49.761  0.00  0.00    -0.532 OA
ENDBRANCH  10  15
ENDBRANCH   3   8
BRANCH   1  18
ATOM     18  N   UNL d   1     -42.310-121.796 -54.754  0.00  0.00    -0.112 N 
ATOM     19  O   UNL d   1     -41.972-121.136 -55.120  0.00  0.00    -0.532 OA
ATOM     20  O   UNL d   1     -43.080-121.903 -54.976  0.00  0.00    -0.532 OA
ENDBRANCH   1  18
TORSDOF 3
ENDMDL
MODEL 2
REMARK VINA RESULT:      -2.6      1.456      2.089
REMARK  3 active torsions:
REMARK  status: ('A' for Active; 'I' for Inactive)
REMARK    1  A    between atoms: C_3  and  N_1 
REMARK    2  A    between atoms: N_2  and  C_4 
REMARK    3  A    between atoms: C_7  and  C_8 
ROOT
ATOM      1  C   UNL d   1     -41.647-122.550 -52.721  0.00  0.00     0.146 A 
ATOM      2  C   UNL d   1     -41.716-122.898 -51.970  0.00  0.00     0.025 A 
ATOM      3  C   UNL d   1     -41.667-122.427 -51.284  0.00  0.00     0.002 A 
ATOM      4  C   UNL d   1     -41.528-121.726 -52.789  0.00  0.00     0.125 A 
ATOM      5  C   UNL d   1     -41.550-121.609 -51.351  0.00  0.00     0.002 A 
ATOM      6  C   UNL d   1     -41.479-121.255 -52.102  0.00  0.00     0.023 A 
ATOM      7  N   UNL d   1     -41.460-121.385 -53.523  0.00  0.00    -0.146 N 
ENDROOT
BRANCH   3   8
ATOM      8  C   UNL d   1     -41.736-122.770 -50.540  0.00  0.00     0.002 A 
ATOM      9  C   UNL d   1     -42.411-122.644 -50.086  0.00  0.00     0.025 A 
ATOM     10  C   UNL d   1     -42.475-122.991 -49.341  0.00  0.00     0.146 A 
ATOM     11  C   UNL d   1     -41.866-123.462 -49.049  0.00  0.00     0.125 A 
ATOM     12  C   UNL d   1     -41.191-123.588 -49.504  0.00  0.00     0.023 A 
ATOM     13  N   UNL d   1     -41.933-123.803 -48.311  0.00  0.00    -0.146 N 
ATOM     14  C   UNL d   1     -41.124-123.242 -50.250  0.00  0.00     0.002 A 
BRANCH  10  15
ATOM     15  N   UNL d   1     -43.147-122.866 -48.889  0.00  0.00    -0.112 N 
ATOM     16  O   UNL d   1     -43.914-123.077 -49.107  0.00  0.00    -0.532 OA
ATOM     17  O   UNL d   1     -43.141-122.511 -48.155  0.00  0.00    -0.532 OA
ENDBRANCH  10  15
ENDBRANCH   3   8
BRANCH   1  18
ATOM     18  N   UNL d   1     -41.694-123.010 -53.390  0.00  0.00    -0.112 N 
ATOM     19  O   UNL d   1     -41.127-123.567 -53.617  0.00  0.00    -0.532 OA
ATOM     20  O   UNL d   1     -42.308-122.973 -53.915  0.00  0.00    -0.532 OA
ENDBRANCH   1  18
TORSDOF 3
ENDMDL
