MODEL 1
REMARK VINA RESULT:      -2.6      0.000      0.000
REMARK  3 active torsions:
REMARK  status: ('A' for Active; 'I' for Inactive)
REMARK    1  A    between atoms: C_8  and  C_1 
REMARK    2  A    between atoms: C_3  and  N_14 
REMARK       I    between atoms: N_13  and  C_8 
REMARK    3  A    between atoms: N_14  and  N_13 
ROOT
ATOM      1  C   UNL d   1      32.573  16.313 -23.184  0.00  0.00     0.320 C 
ATOM      2  N   UNL d   1      31.807  16.082 -23.353  0.00  0.00    -0.102 NA
ATOM      3  O   UNL d   1      33.241  15.906 -22.893  0.00  0.00    -0.261 OA
ENDROOT
BRANCH   1   4
ATOM      4  C   UNL d   1      32.724  17.107 -23.325  0.00  0.00     0.162 A 
ATOM      5  C   UNL d   1      32.904  17.355 -24.085  0.00  0.00     0.072 A 
ATOM      6  C   UNL d   1      33.057  18.152 -24.234  0.00  0.00     0.200 A 
ATOM      7  O   UNL d   1      33.241  18.406 -25.013  0.00  0.00    -0.286 OA
ATOM      8  C   UNL d   1      33.028  18.704 -23.616  0.00  0.00     0.062 A 
ATOM      9  C   UNL d   1      32.848  18.452 -22.857  0.00  0.00     0.103 A 
ATOM     10  C   UNL d   1      33.181  19.500 -23.765  0.00  0.00     0.005 A 
ATOM     11  O   UNL d   1      32.697  17.657 -22.716  0.00  0.00    -0.302 OA
ATOM     12  C   UNL d   1      32.818  18.991 -22.242  0.00  0.00     0.025 A 
ATOM     13  C   UNL d   1      32.970  19.789 -22.383  0.00  0.00     0.002 A 
ATOM     14  C   UNL d   1      33.151  20.040 -23.150  0.00  0.00     0.000 A 
ENDBRANCH   1   4
BRANCH   2  15
ATOM     15  N   UNL d   1      31.272  16.634 -23.639  0.00  0.00    -0.118 NA
BRANCH  15  16
ATOM     16  C   UNL d   1      30.498  16.403 -23.842  0.00  0.00     0.215 A 
ATOM     17  N   UNL d   1      29.815  16.580 -23.425  0.00  0.00    -0.219 NA
ATOM     18  C   UNL d   1      29.172  16.248 -23.812  0.00  0.00     0.090 A 
ATOM     19  C   UNL d   1      28.367  16.244 -23.653  0.00  0.00     0.018 A 
ATOM     20  C   UNL d   1      29.466  15.858 -24.485  0.00  0.00     0.050 A 
ATOM     21  C   UNL d   1      27.849  15.851 -24.162  0.00  0.00     0.002 A 
ATOM     22  C   UNL d   1      28.076  16.634 -22.981  0.00  0.00     0.002 C 
ATOM     23  C   UNL d   1      28.141  15.465 -24.828  0.00  0.00     0.001 A 
ATOM     24  C   UNL d   1      28.956  15.462 -25.000  0.00  0.00     0.008 A 
ATOM     25  S   UNL d   1      30.282  15.956 -24.499  0.00  0.00    -0.045 SA
ENDBRANCH  15  16
ENDBRANCH   2  15
TORSDOF 3
ENDMDL
MODEL 2
REMARK VINA RESULT:      -0.2      3.236      4.621
REMARK  3 active torsions:
REMARK  status: ('A' for Active; 'I' for Inactive)
REMARK    1  A    between atoms: C_8  and  C_1 
REMARK    2  A    between atoms: C_3  and  N_14 
REMARK       I    between atoms: N_13  and  C_8 
REMARK    3  A    between atoms: N_14  and  N_13 
ROOT
ATOM      1  C   UNL d   1      33.112  20.323 -20.789  0.00  0.00     0.320 C 
ATOM      2  N   UNL d   1      33.204  19.794 -21.407  0.00  0.00    -0.102 NA
ATOM      3  O   UNL d   1      33.240  20.268 -19.967  0.00  0.00    -0.261 OA
ENDROOT
BRANCH   1   4
ATOM      4  C   UNL d   1      32.836  21.062 -21.018  0.00  0.00     0.162 A 
ATOM      5  C   UNL d   1      32.246  21.426 -20.583  0.00  0.00     0.072 A 
ATOM      6  C   UNL d   1      31.965  22.168 -20.807  0.00  0.00     0.200 A 
ATOM      7  O   UNL d   1      31.359  22.541 -20.361  0.00  0.00    -0.286 OA
ATOM      8  C   UNL d   1      32.279  22.547 -21.475  0.00  0.00     0.062 A 
ATOM      9  C   UNL d   1      32.869  22.180 -21.908  0.00  0.00     0.103 A 
ATOM     10  C   UNL d   1      31.998  23.289 -21.699  0.00  0.00     0.005 A 
ATOM     11  O   UNL d   1      33.145  21.440 -21.678  0.00  0.00    -0.302 OA
ATOM     12  C   UNL d   1      33.184  22.548 -22.567  0.00  0.00     0.025 A 
ATOM     13  C   UNL d   1      32.908  23.290 -22.798  0.00  0.00     0.002 A 
ATOM     14  C   UNL d   1      32.312  23.658 -22.358  0.00  0.00     0.000 A 
ENDBRANCH   1   4
BRANCH   2  15
ATOM     15  N   UNL d   1      33.024  20.029 -22.172  0.00  0.00    -0.118 NA
BRANCH  15  16
ATOM     16  C   UNL d   1      32.972  19.466 -22.783  0.00  0.00     0.215 A 
ATOM     17  N   UNL d   1      32.896  18.654 -22.688  0.00  0.00    -0.219 NA
ATOM     18  C   UNL d   1      32.865  18.302 -23.428  0.00  0.00     0.090 A 
ATOM     19  C   UNL d   1      32.792  17.521 -23.671  0.00  0.00     0.018 A 
ATOM     20  C   UNL d   1      32.924  18.910 -23.992  0.00  0.00     0.050 A 
ATOM     21  C   UNL d   1      32.777  17.339 -24.476  0.00  0.00     0.002 A 
ATOM     22  C   UNL d   1      32.733  16.916 -23.105  0.00  0.00     0.002 C 
ATOM     23  C   UNL d   1      32.835  17.942 -25.033  0.00  0.00     0.001 A 
ATOM     24  C   UNL d   1      32.910  18.738 -24.800  0.00  0.00     0.008 A 
ATOM     25  S   UNL d   1      32.990  19.624 -23.590  0.00  0.00    -0.045 SA
ENDBRANCH  15  16
ENDBRANCH   2  15
TORSDOF 3
ENDMDL
