MODEL 1
REMARK VINA RESULT:       1.7      0.000      0.000
REMARK  3 active torsions:
REMARK  status: ('A' for Active; 'I' for Inactive)
REMARK    1  A    between atoms: C_7  and  N_1 
REMARK    2  A    between atoms: C_6  and  C_2 
REMARK    3  A    between atoms: O_19  and  C_9 
ROOT
ATOM      1  N   UNL d   1      58.707   0.203  31.284  0.00  0.00    -0.259 N 
ATOM      2  C   UNL d   1      58.981   0.195  30.501  0.00  0.00     0.137 A 
ATOM      3  C   UNL d   1      59.322   0.379  31.782  0.00  0.00     0.282 A 
ATOM      4  N   UNL d   1      59.797   0.375  30.528  0.00  0.00    -0.287 N 
ATOM      5  C   UNL d   1      60.008   0.490  31.328  0.00  0.00     0.122 A 
ATOM      6  O   UNL d   1      59.292   0.444  32.609  0.00  0.00    -0.265 OA
ATOM      7  C   UNL d   1      60.475   0.483  30.071  0.00  0.00     0.082 A 
ATOM      8  C   UNL d   1      60.816   0.667  31.344  0.00  0.00     0.024 A 
ATOM      9  C   UNL d   1      61.106   0.664  30.577  0.00  0.00     0.021 A 
ENDROOT
BRANCH   2  10
ATOM     10  C   UNL d   1      58.545   0.041  29.817  0.00  0.00     0.056 A 
ATOM     11  C   UNL d   1      58.528  -0.708  29.499  0.00  0.00     0.097 A 
ATOM     12  C   UNL d   1      58.096  -0.867  28.818  0.00  0.00     0.024 A 
ATOM     13  C   UNL d   1      57.675  -0.254  28.457  0.00  0.00     0.002 A 
ATOM     14  C   UNL d   1      57.693   0.495  28.775  0.00  0.00     0.000 A 
ATOM     15  C   UNL d   1      58.131   0.654  29.465  0.00  0.00     0.005 A 
BRANCH  11  16
ATOM     16  O   UNL d   1      58.953  -1.319  29.868  0.00  0.00    -0.328 OA
ATOM     17  C   UNL d   1      59.006  -2.076  29.501  0.00  0.00     0.181 C 
ENDBRANCH  11  16
ENDBRANCH   2  10
BRANCH   1  18
ATOM     18  C   UNL d   1      57.929   0.053  31.510  0.00  0.00     0.068 A 
ATOM     19  C   UNL d   1      57.682  -0.720  31.626  0.00  0.00     0.018 A 
ATOM     20  C   UNL d   1      56.905  -0.878  31.852  0.00  0.00     0.013 A 
ATOM     21  C   UNL d   1      56.375  -0.249  31.962  0.00  0.00     0.058 A 
ATOM     22  C   UNL d   1      56.622   0.528  31.845  0.00  0.00     0.013 A 
ATOM     23 CL   UNL d   1      55.597  -0.408  32.188  0.00  0.00    -0.082 Cl
ATOM     24  C   UNL d   1      57.399   0.681  31.619  0.00  0.00     0.018 A 
ENDBRANCH   1  18
TORSDOF 3
ENDMDL
