MODEL 1
REMARK VINA RESULT:      -0.6      0.000      0.000
REMARK  5 active torsions:
REMARK  status: ('A' for Active; 'I' for Inactive)
REMARK    1  A    between atoms: C_3  and  C_1 
REMARK    2  A    between atoms: N_2  and  C_7 
REMARK       I    between atoms: N_4  and  C_3 
REMARK    3  A    between atoms: C_9  and  N_4 
REMARK    4  A    between atoms: O_19  and  C_6 
REMARK    5  A    between atoms: O_20  and  C_10 
ROOT
ATOM      1  C   UNL d   1      32.625  19.265 -23.587  0.00  0.00     0.281 C 
ATOM      2  N   UNL d   1      32.659  19.626 -22.845  0.00  0.00    -0.206 NA
ATOM      3  O   UNL d   1      32.720  19.703 -24.250  0.00  0.00    -0.265 OA
ENDROOT
BRANCH   1   4
ATOM      4  C   UNL d   1      32.492  18.445 -23.635  0.00  0.00     0.080 A 
ATOM      5  C   UNL d   1      32.905  17.928 -23.156  0.00  0.00     0.007 A 
ATOM      6  C   UNL d   1      32.756  17.103 -23.219  0.00  0.00     0.000 A 
ATOM      7  C   UNL d   1      33.176  16.589 -22.733  0.00  0.00     0.000 A 
ATOM      8  C   UNL d   1      32.195  16.841 -23.765  0.00  0.00     0.002 A 
ATOM      9  C   UNL d   1      33.022  15.765 -22.801  0.00  0.00     0.000 A 
ATOM     10  C   UNL d   1      32.482  15.512 -23.327  0.00  0.00     0.000 A 
ATOM     11  C   UNL d   1      32.062  16.029 -23.813  0.00  0.00     0.000 A 
ATOM     12  C   UNL d   1      31.793  17.379 -24.235  0.00  0.00     0.024 A 
ATOM     13  C   UNL d   1      31.950  18.190 -24.162  0.00  0.00     0.099 A 
BRANCH  13  14
ATOM     14  O   UNL d   1      31.550  18.754 -24.633  0.00  0.00    -0.328 OA
ATOM     15  C   UNL d   1      30.818  18.551 -24.980  0.00  0.00     0.181 C 
ENDBRANCH  13  14
ENDBRANCH   1   4
BRANCH   2  16
ATOM     16  C   UNL d   1      32.786  20.411 -22.773  0.00  0.00     0.107 A 
ATOM     17  C   UNL d   1      32.628  20.774 -22.055  0.00  0.00     0.113 A 
ATOM     18  C   UNL d   1      32.754  21.587 -21.964  0.00  0.00     0.049 A 
ATOM     19  C   UNL d   1      33.040  22.044 -22.593  0.00  0.00     0.129 A 
ATOM     20  C   UNL d   1      33.197  21.678 -23.312  0.00  0.00     0.025 A 
ATOM     21  C   UNL d   1      33.074  20.871 -23.408  0.00  0.00     0.023 A 
BRANCH  17  22
ATOM     22  O   UNL d   1      32.338  20.322 -21.409  0.00  0.00    -0.327 OA
ATOM     23  C   UNL d   1      32.551  20.547 -20.630  0.00  0.00     0.181 C 
ENDBRANCH  17  22
BRANCH  19  24
ATOM     24  N   UNL d   1      33.159  22.860 -22.480  0.00  0.00    -0.114 N 
ATOM     25  O   UNL d   1      33.197  23.339 -23.151  0.00  0.00    -0.532 OA
ATOM     26  O   UNL d   1      33.235  23.164 -21.722  0.00  0.00    -0.532 OA
ENDBRANCH  19  24
ENDBRANCH   2  16
TORSDOF 5
ENDMDL
MODEL 2
REMARK VINA RESULT:      -0.2      1.671      5.124
REMARK  5 active torsions:
REMARK  status: ('A' for Active; 'I' for Inactive)
REMARK    1  A    between atoms: C_3  and  C_1 
REMARK    2  A    between atoms: N_2  and  C_7 
REMARK       I    between atoms: N_4  and  C_3 
REMARK    3  A    between atoms: C_9  and  N_4 
REMARK    4  A    between atoms: O_19  and  C_6 
REMARK    5  A    between atoms: O_20  and  C_10 
ROOT
ATOM      1  C   UNL d   1      32.615  20.112 -21.955  0.00  0.00     0.281 C 
ATOM      2  N   UNL d   1      33.170  19.880 -22.521  0.00  0.00    -0.206 NA
ATOM      3  O   UNL d   1      32.005  19.628 -21.771  0.00  0.00    -0.265 OA
ENDROOT
BRANCH   1   4
ATOM      4  C   UNL d   1      32.700  20.850 -21.582  0.00  0.00     0.080 A 
ATOM      5  C   UNL d   1      32.466  21.537 -21.959  0.00  0.00     0.007 A 
ATOM      6  C   UNL d   1      32.560  22.273 -21.565  0.00  0.00     0.000 A 
ATOM      7  C   UNL d   1      32.322  22.959 -21.952  0.00  0.00     0.000 A 
ATOM      8  C   UNL d   1      32.886  22.280 -20.807  0.00  0.00     0.002 A 
ATOM      9  C   UNL d   1      32.419  23.693 -21.552  0.00  0.00     0.000 A 
ATOM     10  C   UNL d   1      32.733  23.699 -20.822  0.00  0.00     0.000 A 
ATOM     11  C   UNL d   1      32.971  23.010 -20.436  0.00  0.00     0.000 A 
ATOM     12  C   UNL d   1      33.114  21.579 -20.449  0.00  0.00     0.024 A 
ATOM     13  C   UNL d   1      33.015  20.859 -20.849  0.00  0.00     0.099 A 
BRANCH  13  14
ATOM     14  O   UNL d   1      33.241  20.133 -20.500  0.00  0.00    -0.328 OA
ATOM     15  C   UNL d   1      33.234  20.060 -19.668  0.00  0.00     0.181 C 
ENDBRANCH  13  14
ENDBRANCH   1   4
BRANCH   2  16
ATOM     16  C   UNL d   1      33.111  19.175 -22.894  0.00  0.00     0.107 A 
ATOM     17  C   UNL d   1      33.145  19.155 -23.712  0.00  0.00     0.113 A 
ATOM     18  C   UNL d   1      33.086  18.434 -24.112  0.00  0.00     0.049 A 
ATOM     19  C   UNL d   1      32.992  17.724 -23.695  0.00  0.00     0.129 A 
ATOM     20  C   UNL d   1      32.958  17.746 -22.874  0.00  0.00     0.025 A 
ATOM     21  C   UNL d   1      33.016  18.461 -22.472  0.00  0.00     0.023 A 
BRANCH  17  22
ATOM     22  O   UNL d   1      33.241  19.867 -24.148  0.00  0.00    -0.327 OA
ATOM     23  C   UNL d   1      33.002  19.884 -24.952  0.00  0.00     0.181 C 
ENDBRANCH  17  22
BRANCH  19  24
ATOM     24  N   UNL d   1      32.934  17.010 -24.118  0.00  0.00    -0.114 N 
ATOM     25  O   UNL d   1      33.088  16.309 -23.709  0.00  0.00    -0.532 OA
ATOM     26  O   UNL d   1      32.731  17.015 -24.913  0.00  0.00    -0.532 OA
ENDBRANCH  19  24
ENDBRANCH   2  16
TORSDOF 5
ENDMDL
