MODEL 1
REMARK VINA RESULT:      -2.4      0.000      0.000
REMARK  3 active torsions:
REMARK  status: ('A' for Active; 'I' for Inactive)
REMARK    1  A    between atoms: C_3  and  C_5 
REMARK    2  A    between atoms: O_13  and  C_6 
REMARK    3  A    between atoms: O_15  and  C_8 
ROOT
ATOM      1  C   UNL d   1      30.432  16.948 -24.347  0.00  0.00     0.021 A 
ATOM      2  C   UNL d   1      31.099  16.718 -23.929  0.00  0.00     0.028 A 
ATOM      3  C   UNL d   1      31.820  17.085 -24.052  0.00  0.00     0.116 A 
ATOM      4  C   UNL d   1      31.877  17.695 -24.604  0.00  0.00     0.116 A 
ATOM      5  C   UNL d   1      30.490  17.565 -24.905  0.00  0.00     0.004 A 
ATOM      6  C   UNL d   1      31.213  17.939 -25.033  0.00  0.00     0.026 A 
ENDROOT
BRANCH   1   7
ATOM      7  C   UNL d   1      29.711  16.575 -24.218  0.00  0.00     0.103 A 
ATOM      8  N   UNL d   1      29.552  15.848 -24.575  0.00  0.00    -0.145 NA
ATOM      9  N   UNL d   1      28.829  15.474 -24.447  0.00  0.00    -0.106 NA
ATOM     10  C   UNL d   1      28.266  15.827 -23.961  0.00  0.00     0.297 A 
ATOM     11  O   UNL d   1      27.536  15.453 -23.829  0.00  0.00    -0.264 OA
ATOM     12  C   UNL d   1      28.426  16.561 -23.601  0.00  0.00     0.066 A 
ATOM     13  C   UNL d   1      29.148  16.935 -23.729  0.00  0.00     0.026 A 
ENDBRANCH   1   7
BRANCH   3  14
ATOM     14  O   UNL d   1      32.485  16.846 -23.626  0.00  0.00    -0.326 OA
ATOM     15  C   UNL d   1      32.538  16.069 -23.349  0.00  0.00     0.181 C 
ENDBRANCH   3  14
BRANCH   4  16
ATOM     16  O   UNL d   1      32.603  18.070 -24.732  0.00  0.00    -0.326 OA
ATOM     17  C   UNL d   1      32.627  18.808 -25.096  0.00  0.00     0.181 C 
ENDBRANCH   4  16
TORSDOF 3
ENDMDL
MODEL 2
REMARK VINA RESULT:      -2.2      5.523      6.669
REMARK  3 active torsions:
REMARK  status: ('A' for Active; 'I' for Inactive)
REMARK    1  A    between atoms: C_3  and  C_5 
REMARK    2  A    between atoms: O_13  and  C_6 
REMARK    3  A    between atoms: O_15  and  C_8 
ROOT
ATOM      1  C   UNL d   1      32.925  21.541 -21.135  0.00  0.00     0.021 A 
ATOM      2  C   UNL d   1      32.537  22.206 -21.416  0.00  0.00     0.028 A 
ATOM      3  C   UNL d   1      32.456  22.874 -20.950  0.00  0.00     0.116 A 
ATOM      4  C   UNL d   1      32.769  22.878 -20.187  0.00  0.00     0.116 A 
ATOM      5  C   UNL d   1      33.241  21.545 -20.363  0.00  0.00     0.004 A 
ATOM      6  C   UNL d   1      33.163  22.214 -19.890  0.00  0.00     0.026 A 
ENDROOT
BRANCH   1   7
ATOM      7  C   UNL d   1      33.002  20.873 -21.609  0.00  0.00     0.103 A 
ATOM      8  N   UNL d   1      33.163  20.954 -22.414  0.00  0.00    -0.145 NA
ATOM      9  N   UNL d   1      33.241  20.285 -22.889  0.00  0.00    -0.106 NA
ATOM     10  C   UNL d   1      33.158  19.536 -22.557  0.00  0.00     0.297 A 
ATOM     11  O   UNL d   1      33.236  18.859 -23.033  0.00  0.00    -0.264 OA
ATOM     12  C   UNL d   1      32.996  19.454 -21.744  0.00  0.00     0.066 A 
ATOM     13  C   UNL d   1      32.918  20.122 -21.270  0.00  0.00     0.026 A 
ENDBRANCH   1   7
BRANCH   3  14
ATOM     14  O   UNL d   1      32.064  23.539 -21.242  0.00  0.00    -0.326 OA
ATOM     15  C   UNL d   1      31.734  23.521 -21.999  0.00  0.00     0.181 C 
ENDBRANCH   3  14
BRANCH   4  16
ATOM     16  O   UNL d   1      32.690  23.550 -19.711  0.00  0.00    -0.326 OA
ATOM     17  C   UNL d   1      33.058  23.579 -18.976  0.00  0.00     0.181 C 
ENDBRANCH   4  16
TORSDOF 3
ENDMDL
MODEL 3
REMARK VINA RESULT:      -1.9      2.871      4.449
REMARK  3 active torsions:
REMARK  status: ('A' for Active; 'I' for Inactive)
REMARK    1  A    between atoms: C_3  and  C_5 
REMARK    2  A    between atoms: O_13  and  C_6 
REMARK    3  A    between atoms: O_15  and  C_8 
ROOT
ATOM      1  C   UNL d   1      32.652  18.480 -23.112  0.00  0.00     0.021 A 
ATOM      2  C   UNL d   1      31.946  18.288 -23.481  0.00  0.00     0.028 A 
ATOM      3  C   UNL d   1      31.793  17.521 -23.724  0.00  0.00     0.116 A 
ATOM      4  C   UNL d   1      32.358  16.934 -23.597  0.00  0.00     0.116 A 
ATOM      5  C   UNL d   1      33.223  17.886 -22.984  0.00  0.00     0.004 A 
ATOM      6  C   UNL d   1      33.076  17.113 -23.226  0.00  0.00     0.026 A 
ENDROOT
BRANCH   1   7
ATOM      7  C   UNL d   1      32.799  19.252 -22.870  0.00  0.00     0.103 A 
ATOM      8  N   UNL d   1      33.040  19.818 -23.420  0.00  0.00    -0.145 NA
ATOM      9  N   UNL d   1      33.188  20.592 -23.178  0.00  0.00    -0.106 NA
ATOM     10  C   UNL d   1      33.093  20.798 -22.386  0.00  0.00     0.297 A 
ATOM     11  O   UNL d   1      33.241  21.577 -22.138  0.00  0.00    -0.264 OA
ATOM     12  C   UNL d   1      32.850  20.226 -21.832  0.00  0.00     0.066 A 
ATOM     13  C   UNL d   1      32.703  19.453 -22.073  0.00  0.00     0.026 A 
ENDBRANCH   1   7
BRANCH   3  14
ATOM     14  O   UNL d   1      31.078  17.338 -24.094  0.00  0.00    -0.326 OA
ATOM     15  C   UNL d   1      30.685  17.914 -24.536  0.00  0.00     0.181 C 
ENDBRANCH   3  14
BRANCH   4  16
ATOM     16  O   UNL d   1      32.209  16.157 -23.841  0.00  0.00    -0.326 OA
ATOM     17  C   UNL d   1      32.779  15.574 -23.727  0.00  0.00     0.181 C 
ENDBRANCH   4  16
TORSDOF 3
ENDMDL
MODEL 4
REMARK VINA RESULT:      -1.8      2.643      3.833
REMARK  3 active torsions:
REMARK  status: ('A' for Active; 'I' for Inactive)
REMARK    1  A    between atoms: C_3  and  C_5 
REMARK    2  A    between atoms: O_13  and  C_6 
REMARK    3  A    between atoms: O_15  and  C_8 
ROOT
ATOM      1  C   UNL d   1      32.792  18.745 -23.355  0.00  0.00     0.021 A 
ATOM      2  C   UNL d   1      32.944  19.363 -23.872  0.00  0.00     0.028 A 
ATOM      3  C   UNL d   1      33.089  20.118 -23.593  0.00  0.00     0.116 A 
ATOM      4  C   UNL d   1      33.083  20.260 -22.780  0.00  0.00     0.116 A 
ATOM      5  C   UNL d   1      32.786  18.888 -22.534  0.00  0.00     0.004 A 
ATOM      6  C   UNL d   1      32.932  19.646 -22.247  0.00  0.00     0.026 A 
ENDROOT
BRANCH   1   7
ATOM      7  C   UNL d   1      32.647  17.988 -23.643  0.00  0.00     0.103 A 
ATOM      8  N   UNL d   1      31.928  17.817 -24.011  0.00  0.00    -0.145 NA
ATOM      9  N   UNL d   1      31.782  17.059 -24.299  0.00  0.00    -0.106 NA
ATOM     10  C   UNL d   1      32.355  16.473 -24.218  0.00  0.00     0.297 A 
ATOM     11  O   UNL d   1      32.211  15.707 -24.507  0.00  0.00    -0.264 OA
ATOM     12  C   UNL d   1      33.080  16.646 -23.846  0.00  0.00     0.066 A 
ATOM     13  C   UNL d   1      33.226  17.403 -23.558  0.00  0.00     0.026 A 
ENDBRANCH   1   7
BRANCH   3  14
ATOM     14  O   UNL d   1      33.241  20.734 -24.121  0.00  0.00    -0.326 OA
ATOM     15  C   UNL d   1      33.240  20.587 -24.934  0.00  0.00     0.181 C 
ENDBRANCH   3  14
BRANCH   4  16
ATOM     16  O   UNL d   1      33.230  21.022 -22.492  0.00  0.00    -0.326 OA
ATOM     17  C   UNL d   1      32.938  21.246 -21.756  0.00  0.00     0.181 C 
ENDBRANCH   4  16
TORSDOF 3
ENDMDL
MODEL 5
REMARK VINA RESULT:      -1.6      1.089      1.550
REMARK  3 active torsions:
REMARK  status: ('A' for Active; 'I' for Inactive)
REMARK    1  A    between atoms: C_3  and  C_5 
REMARK    2  A    between atoms: O_13  and  C_6 
REMARK    3  A    between atoms: O_15  and  C_8 
ROOT
ATOM      1  C   UNL d   1      30.559  16.232 -24.074  0.00  0.00     0.021 A 
ATOM      2  C   UNL d   1      31.033  16.898 -24.019  0.00  0.00     0.028 A 
ATOM      3  C   UNL d   1      31.819  16.875 -24.245  0.00  0.00     0.116 A 
ATOM      4  C   UNL d   1      32.139  16.170 -24.532  0.00  0.00     0.116 A 
ATOM      5  C   UNL d   1      30.882  15.520 -24.365  0.00  0.00     0.004 A 
ATOM      6  C   UNL d   1      31.673  15.490 -24.593  0.00  0.00     0.026 A 
ENDROOT
BRANCH   1   7
ATOM      7  C   UNL d   1      29.769  16.263 -23.845  0.00  0.00     0.103 A 
ATOM      8  N   UNL d   1      29.509  15.821 -23.199  0.00  0.00    -0.145 NA
ATOM      9  N   UNL d   1      28.718  15.851 -22.970  0.00  0.00    -0.106 NA
ATOM     10  C   UNL d   1      28.189  16.324 -23.387  0.00  0.00     0.297 A 
ATOM     11  O   UNL d   1      27.391  16.357 -23.159  0.00  0.00    -0.264 OA
ATOM     12  C   UNL d   1      28.452  16.770 -24.040  0.00  0.00     0.066 A 
ATOM     13  C   UNL d   1      29.242  16.740 -24.269  0.00  0.00     0.026 A 
ENDBRANCH   1   7
BRANCH   3  14
ATOM     14  O   UNL d   1      32.289  17.551 -24.186  0.00  0.00    -0.326 OA
ATOM     15  C   UNL d   1      32.393  17.915 -23.452  0.00  0.00     0.181 C 
ENDBRANCH   3  14
BRANCH   4  16
ATOM     16  O   UNL d   1      32.934  16.141 -24.762  0.00  0.00    -0.326 OA
ATOM     17  C   UNL d   1      33.241  15.453 -25.092  0.00  0.00     0.181 C 
ENDBRANCH   4  16
TORSDOF 3
ENDMDL
MODEL 6
REMARK VINA RESULT:      -1.5      3.921      5.399
REMARK  3 active torsions:
REMARK  status: ('A' for Active; 'I' for Inactive)
REMARK    1  A    between atoms: C_3  and  C_5 
REMARK    2  A    between atoms: O_13  and  C_6 
REMARK    3  A    between atoms: O_15  and  C_8 
ROOT
ATOM      1  C   UNL d   1      33.026  19.981 -22.581  0.00  0.00     0.021 A 
ATOM      2  C   UNL d   1      33.139  20.156 -23.373  0.00  0.00     0.028 A 
ATOM      3  C   UNL d   1      33.125  19.565 -23.940  0.00  0.00     0.116 A 
ATOM      4  C   UNL d   1      32.996  18.784 -23.711  0.00  0.00     0.116 A 
ATOM      5  C   UNL d   1      32.895  19.190 -22.349  0.00  0.00     0.004 A 
ATOM      6  C   UNL d   1      32.880  18.592 -22.914  0.00  0.00     0.026 A 
ENDROOT
BRANCH   1   7
ATOM      7  C   UNL d   1      33.041  20.579 -22.016  0.00  0.00     0.103 A 
ATOM      8  N   UNL d   1      32.883  21.358 -22.235  0.00  0.00    -0.145 NA
ATOM      9  N   UNL d   1      32.897  21.958 -21.670  0.00  0.00    -0.106 NA
ATOM     10  C   UNL d   1      33.071  21.776 -20.886  0.00  0.00     0.297 A 
ATOM     11  O   UNL d   1      33.087  22.378 -20.313  0.00  0.00    -0.264 OA
ATOM     12  C   UNL d   1      33.230  20.989 -20.665  0.00  0.00     0.066 A 
ATOM     13  C   UNL d   1      33.216  20.390 -21.229  0.00  0.00     0.026 A 
ENDBRANCH   1   7
BRANCH   3  14
ATOM     14  O   UNL d   1      33.240  19.752 -24.736  0.00  0.00    -0.326 OA
ATOM     15  C   UNL d   1      33.010  20.492 -25.022  0.00  0.00     0.181 C 
ENDBRANCH   3  14
BRANCH   4  16
ATOM     16  O   UNL d   1      32.981  18.183 -24.280  0.00  0.00    -0.326 OA
ATOM     17  C   UNL d   1      32.733  17.426 -24.072  0.00  0.00     0.181 C 
ENDBRANCH   4  16
TORSDOF 3
ENDMDL
MODEL 7
REMARK VINA RESULT:      -1.4      3.862      5.132
REMARK  3 active torsions:
REMARK  status: ('A' for Active; 'I' for Inactive)
REMARK    1  A    between atoms: C_3  and  C_5 
REMARK    2  A    between atoms: O_13  and  C_6 
REMARK    3  A    between atoms: O_15  and  C_8 
ROOT
ATOM      1  C   UNL d   1      33.076  19.951 -22.162  0.00  0.00     0.021 A 
ATOM      2  C   UNL d   1      33.136  20.631 -22.615  0.00  0.00     0.028 A 
ATOM      3  C   UNL d   1      33.181  21.369 -22.262  0.00  0.00     0.116 A 
ATOM      4  C   UNL d   1      33.165  21.428 -21.439  0.00  0.00     0.116 A 
ATOM      5  C   UNL d   1      33.060  20.011 -21.330  0.00  0.00     0.004 A 
ATOM      6  C   UNL d   1      33.105  20.750 -20.969  0.00  0.00     0.026 A 
ENDROOT
BRANCH   1   7
ATOM      7  C   UNL d   1      33.032  19.213 -22.523  0.00  0.00     0.103 A 
ATOM      8  N   UNL d   1      32.782  19.151 -23.306  0.00  0.00    -0.145 NA
ATOM      9  N   UNL d   1      32.737  18.412 -23.668  0.00  0.00    -0.106 NA
ATOM     10  C   UNL d   1      32.943  17.736 -23.245  0.00  0.00     0.297 A 
ATOM     11  O   UNL d   1      32.899  16.989 -23.606  0.00  0.00    -0.264 OA
ATOM     12  C   UNL d   1      33.195  17.799 -22.454  0.00  0.00     0.066 A 
ATOM     13  C   UNL d   1      33.240  18.537 -22.092  0.00  0.00     0.026 A 
ENDBRANCH   1   7
BRANCH   3  14
ATOM     14  O   UNL d   1      33.241  22.048 -22.727  0.00  0.00    -0.326 OA
ATOM     15  C   UNL d   1      33.005  22.027 -23.518  0.00  0.00     0.181 C 
ENDBRANCH   3  14
BRANCH   4  16
ATOM     16  O   UNL d   1      33.210  22.171 -21.078  0.00  0.00    -0.326 OA
ATOM     17  C   UNL d   1      33.199  22.230 -20.257  0.00  0.00     0.181 C 
ENDBRANCH   4  16
TORSDOF 3
ENDMDL
MODEL 8
REMARK VINA RESULT:      -1.2      6.542      7.639
REMARK  3 active torsions:
REMARK  status: ('A' for Active; 'I' for Inactive)
REMARK    1  A    between atoms: C_3  and  C_5 
REMARK    2  A    between atoms: O_13  and  C_6 
REMARK    3  A    between atoms: O_15  and  C_8 
ROOT
ATOM      1  C   UNL d   1      33.155  22.980 -21.396  0.00  0.00     0.021 A 
ATOM      2  C   UNL d   1      33.082  22.276 -20.982  0.00  0.00     0.028 A 
ATOM      3  C   UNL d   1      33.080  22.269 -20.164  0.00  0.00     0.116 A 
ATOM      4  C   UNL d   1      33.151  22.979 -19.750  0.00  0.00     0.116 A 
ATOM      5  C   UNL d   1      33.227  23.698 -20.978  0.00  0.00     0.004 A 
ATOM      6  C   UNL d   1      33.225  23.696 -20.154  0.00  0.00     0.026 A 
ENDROOT
BRANCH   1   7
ATOM      7  C   UNL d   1      33.157  22.981 -22.219  0.00  0.00     0.103 A 
ATOM      8  N   UNL d   1      33.136  22.267 -22.633  0.00  0.00    -0.145 NA
ATOM      9  N   UNL d   1      33.138  22.268 -23.457  0.00  0.00    -0.106 NA
ATOM     10  C   UNL d   1      33.160  22.982 -23.865  0.00  0.00     0.297 A 
ATOM     11  O   UNL d   1      33.162  22.987 -24.696  0.00  0.00    -0.264 OA
ATOM     12  C   UNL d   1      33.180  23.702 -23.447  0.00  0.00     0.066 A 
ATOM     13  C   UNL d   1      33.179  23.702 -22.624  0.00  0.00     0.026 A 
ENDBRANCH   1   7
BRANCH   3  14
ATOM     14  O   UNL d   1      33.007  21.555 -19.756  0.00  0.00    -0.326 OA
ATOM     15  C   UNL d   1      33.092  20.840 -20.160  0.00  0.00     0.181 C 
ENDBRANCH   3  14
BRANCH   4  16
ATOM     16  O   UNL d   1      33.149  22.976 -18.922  0.00  0.00    -0.326 OA
ATOM     17  C   UNL d   1      33.146  23.688 -18.509  0.00  0.00     0.181 C 
ENDBRANCH   4  16
TORSDOF 3
ENDMDL
MODEL 9
REMARK VINA RESULT:      -0.2      5.093      6.400
REMARK  3 active torsions:
REMARK  status: ('A' for Active; 'I' for Inactive)
REMARK    1  A    between atoms: C_3  and  C_5 
REMARK    2  A    between atoms: O_13  and  C_6 
REMARK    3  A    between atoms: O_15  and  C_8 
ROOT
ATOM      1  C   UNL d   1      32.772  21.988 -22.166  0.00  0.00     0.021 A 
ATOM      2  C   UNL d   1      32.915  21.181 -22.188  0.00  0.00     0.028 A 
ATOM      3  C   UNL d   1      33.070  20.801 -22.896  0.00  0.00     0.116 A 
ATOM      4  C   UNL d   1      33.083  21.236 -23.597  0.00  0.00     0.116 A 
ATOM      5  C   UNL d   1      32.785  22.428 -22.874  0.00  0.00     0.004 A 
ATOM      6  C   UNL d   1      32.941  22.051 -23.590  0.00  0.00     0.026 A 
ENDROOT
BRANCH   1   7
ATOM      7  C   UNL d   1      32.616  22.364 -21.451  0.00  0.00     0.103 A 
ATOM      8  N   UNL d   1      31.847  22.385 -21.154  0.00  0.00    -0.145 NA
ATOM      9  N   UNL d   1      31.690  22.762 -20.438  0.00  0.00    -0.106 NA
ATOM     10  C   UNL d   1      32.304  23.116 -20.019  0.00  0.00     0.297 A 
ATOM     11  O   UNL d   1      32.150  23.496 -19.297  0.00  0.00    -0.264 OA
ATOM     12  C   UNL d   1      33.081  23.094 -20.319  0.00  0.00     0.066 A 
ATOM     13  C   UNL d   1      33.238  22.718 -21.034  0.00  0.00     0.026 A 
ENDBRANCH   1   7
BRANCH   3  14
ATOM     14  O   UNL d   1      33.213  19.989 -22.908  0.00  0.00    -0.326 OA
ATOM     15  C   UNL d   1      32.586  19.460 -22.808  0.00  0.00     0.181 C 
ENDBRANCH   3  14
BRANCH   4  16
ATOM     16  O   UNL d   1      33.240  20.857 -24.315  0.00  0.00    -0.326 OA
ATOM     17  C   UNL d   1      33.020  21.212 -25.024  0.00  0.00     0.181 C 
ENDBRANCH   4  16
TORSDOF 3
ENDMDL
