MODEL 1
REMARK VINA RESULT:      -5.7      0.000      0.000
REMARK  3 active torsions:
REMARK  status: ('A' for Active; 'I' for Inactive)
REMARK    1  A    between atoms: N_5  and  C_2 
REMARK    2  A    between atoms: C_9  and  C_3 
REMARK       I    between atoms: C_7  and  N_5 
REMARK    3  A    between atoms: C_8  and  C_7 
ROOT
ATOM      1  N   UNL d   1      58.200  -0.946  30.144  0.00  0.00    -0.200 NA
ATOM      2  C   UNL d   1      57.747  -0.302  30.364  0.00  0.00     0.216 A 
ATOM      3  C   UNL d   1      58.752  -0.696  29.583  0.00  0.00     0.172 A 
ATOM      4  N   UNL d   1      58.634   0.112  29.460  0.00  0.00    -0.187 NA
ATOM      5  S   UNL d   1      58.009   0.362  29.945  0.00  0.00     0.054 SA
ENDROOT
BRANCH   2   6
ATOM      6  N   UNL d   1      57.132  -0.309  30.912  0.00  0.00    -0.181 NA
ATOM      7  C   UNL d   1      57.260  -0.019  31.668  0.00  0.00     0.281 C 
ATOM      8  O   UNL d   1      57.999   0.277  31.880  0.00  0.00    -0.265 OA
BRANCH   7   9
ATOM      9  C   UNL d   1      56.644  -0.026  32.217  0.00  0.00     0.058 A 
ATOM     10  C   UNL d   1      56.366  -0.741  32.516  0.00  0.00     0.006 A 
ATOM     11  C   UNL d   1      55.750  -0.747  33.065  0.00  0.00     0.012 A 
ATOM     12  C   UNL d   1      55.411  -0.039  33.314  0.00  0.00     0.058 A 
ATOM     13  C   UNL d   1      55.690   0.675  33.015  0.00  0.00     0.012 A 
ATOM     14 CL   UNL d   1      54.795  -0.045  33.863  0.00  0.00    -0.082 Cl
ATOM     15  C   UNL d   1      56.306   0.682  32.466  0.00  0.00     0.006 A 
ENDBRANCH   7   9
ENDBRANCH   2   6
BRANCH   3  16
ATOM     16  C   UNL d   1      59.316  -1.160  29.214  0.00  0.00     0.036 A 
ATOM     17  C   UNL d   1      60.104  -0.918  29.205  0.00  0.00     0.003 A 
ATOM     18  C   UNL d   1      60.677  -1.391  28.829  0.00  0.00     0.000 A 
ATOM     19  C   UNL d   1      60.456  -2.104  28.464  0.00  0.00     0.000 A 
ATOM     20  C   UNL d   1      59.661  -2.339  28.477  0.00  0.00     0.000 A 
ATOM     21  C   UNL d   1      59.094  -1.872  28.849  0.00  0.00     0.003 A 
ENDBRANCH   3  16
TORSDOF 3
ENDMDL
MODEL 2
REMARK VINA RESULT:      -4.2      2.097      5.010
REMARK  3 active torsions:
REMARK  status: ('A' for Active; 'I' for Inactive)
REMARK    1  A    between atoms: N_5  and  C_2 
REMARK    2  A    between atoms: C_9  and  C_3 
REMARK       I    between atoms: C_7  and  N_5 
REMARK    3  A    between atoms: C_8  and  C_7 
ROOT
ATOM      1  N   UNL d   1      57.581  -0.666  31.394  0.00  0.00    -0.200 NA
ATOM      2  C   UNL d   1      57.956  -0.434  30.705  0.00  0.00     0.216 A 
ATOM      3  C   UNL d   1      56.953  -0.148  31.534  0.00  0.00     0.172 A 
ATOM      4  N   UNL d   1      56.946   0.407  30.923  0.00  0.00    -0.187 NA
ATOM      5  S   UNL d   1      57.569   0.233  30.404  0.00  0.00     0.054 SA
ENDROOT
BRANCH   2   6
ATOM      6  N   UNL d   1      58.611  -0.801  30.364  0.00  0.00    -0.181 NA
ATOM      7  C   UNL d   1      58.500  -1.403  29.820  0.00  0.00     0.281 C 
ATOM      8  O   UNL d   1      57.739  -1.642  29.614  0.00  0.00    -0.265 OA
BRANCH   7   9
ATOM      9  C   UNL d   1      59.156  -1.770  29.479  0.00  0.00     0.058 A 
ATOM     10  C   UNL d   1      59.886  -1.391  29.479  0.00  0.00     0.006 A 
ATOM     11  C   UNL d   1      60.542  -1.757  29.137  0.00  0.00     0.012 A 
ATOM     12  C   UNL d   1      60.466  -2.504  28.796  0.00  0.00     0.058 A 
ATOM     13  C   UNL d   1      59.735  -2.882  28.797  0.00  0.00     0.012 A 
ATOM     14 CL   UNL d   1      61.122  -2.871  28.455  0.00  0.00    -0.082 Cl
ATOM     15  C   UNL d   1      59.080  -2.515  29.139  0.00  0.00     0.006 A 
ENDBRANCH   7   9
ENDBRANCH   2   6
BRANCH   3  16
ATOM     16  C   UNL d   1      56.431  -0.176  32.164  0.00  0.00     0.036 A 
ATOM     17  C   UNL d   1      56.165   0.526  32.507  0.00  0.00     0.003 A 
ATOM     18  C   UNL d   1      55.634   0.497  33.147  0.00  0.00     0.000 A 
ATOM     19  C   UNL d   1      55.373  -0.235  33.440  0.00  0.00     0.000 A 
ATOM     20  C   UNL d   1      55.645  -0.935  33.089  0.00  0.00     0.000 A 
ATOM     21  C   UNL d   1      56.171  -0.907  32.456  0.00  0.00     0.003 A 
ENDBRANCH   3  16
TORSDOF 3
ENDMDL
MODEL 3
REMARK VINA RESULT:      -4.2      2.214      5.236
REMARK  3 active torsions:
REMARK  status: ('A' for Active; 'I' for Inactive)
REMARK    1  A    between atoms: N_5  and  C_2 
REMARK    2  A    between atoms: C_9  and  C_3 
REMARK       I    between atoms: C_7  and  N_5 
REMARK    3  A    between atoms: C_8  and  C_7 
ROOT
ATOM      1  N   UNL d   1      56.568   0.391  32.520  0.00  0.00    -0.200 NA
ATOM      2  C   UNL d   1      56.982  -0.092  32.007  0.00  0.00     0.216 A 
ATOM      3  C   UNL d   1      56.105  -0.087  33.010  0.00  0.00     0.172 A 
ATOM      4  N   UNL d   1      56.240  -0.871  32.793  0.00  0.00    -0.187 NA
ATOM      5  S   UNL d   1      56.786  -0.880  32.168  0.00  0.00     0.054 SA
ENDROOT
BRANCH   2   6
ATOM      6  N   UNL d   1      57.509   0.160  31.425  0.00  0.00    -0.181 NA
ATOM      7  C   UNL d   1      57.667  -0.326  30.785  0.00  0.00     0.281 C 
ATOM      8  O   UNL d   1      57.302  -1.062  30.721  0.00  0.00    -0.265 OA
BRANCH   7   9
ATOM      9  C   UNL d   1      58.194  -0.074  30.202  0.00  0.00     0.058 A 
ATOM     10  C   UNL d   1      58.980  -0.320  30.224  0.00  0.00     0.006 A 
ATOM     11  C   UNL d   1      59.507  -0.068  29.641  0.00  0.00     0.012 A 
ATOM     12  C   UNL d   1      59.249   0.430  29.037  0.00  0.00     0.058 A 
ATOM     13  C   UNL d   1      58.463   0.675  29.017  0.00  0.00     0.012 A 
ATOM     14 CL   UNL d   1      59.776   0.681  28.455  0.00  0.00    -0.082 Cl
ATOM     15  C   UNL d   1      57.936   0.423  29.600  0.00  0.00     0.006 A 
ENDBRANCH   7   9
ENDBRANCH   2   6
BRANCH   3  16
ATOM     16  C   UNL d   1      55.604   0.167  33.605  0.00  0.00     0.036 A 
ATOM     17  C   UNL d   1      55.906   0.327  34.355  0.00  0.00     0.003 A 
ATOM     18  C   UNL d   1      55.394   0.585  34.960  0.00  0.00     0.000 A 
ATOM     19  C   UNL d   1      54.583   0.682  34.808  0.00  0.00     0.000 A 
ATOM     20  C   UNL d   1      54.289   0.519  34.050  0.00  0.00     0.000 A 
ATOM     21  C   UNL d   1      54.794   0.264  33.452  0.00  0.00     0.003 A 
ENDBRANCH   3  16
TORSDOF 3
ENDMDL
MODEL 4
REMARK VINA RESULT:      -4.0      1.001      1.197
REMARK  3 active torsions:
REMARK  status: ('A' for Active; 'I' for Inactive)
REMARK    1  A    between atoms: N_5  and  C_2 
REMARK    2  A    between atoms: C_9  and  C_3 
REMARK       I    between atoms: C_7  and  N_5 
REMARK    3  A    between atoms: C_8  and  C_7 
ROOT
ATOM      1  N   UNL d   1      58.575  -1.519  29.962  0.00  0.00    -0.200 NA
ATOM      2  C   UNL d   1      58.261  -0.765  29.916  0.00  0.00     0.216 A 
ATOM      3  C   UNL d   1      59.011  -1.661  29.275  0.00  0.00     0.172 A 
ATOM      4  N   UNL d   1      58.962  -0.985  28.804  0.00  0.00    -0.187 NA
ATOM      5  S   UNL d   1      58.495  -0.424  29.199  0.00  0.00     0.054 SA
ENDROOT
BRANCH   2   6
ATOM      6  N   UNL d   1      57.789  -0.402  30.486  0.00  0.00    -0.181 NA
ATOM      7  C   UNL d   1      57.384  -0.862  31.029  0.00  0.00     0.281 C 
ATOM      8  O   UNL d   1      57.446  -1.684  31.006  0.00  0.00    -0.265 OA
BRANCH   7   9
ATOM      9  C   UNL d   1      56.911  -0.499  31.599  0.00  0.00     0.058 A 
ATOM     10  C   UNL d   1      56.422  -0.955  32.081  0.00  0.00     0.006 A 
ATOM     11  C   UNL d   1      55.950  -0.591  32.651  0.00  0.00     0.012 A 
ATOM     12  C   UNL d   1      55.967   0.228  32.740  0.00  0.00     0.058 A 
ATOM     13  C   UNL d   1      56.456   0.682  32.259  0.00  0.00     0.012 A 
ATOM     14 CL   UNL d   1      55.495   0.591  33.311  0.00  0.00    -0.082 Cl
ATOM     15  C   UNL d   1      56.928   0.319  31.688  0.00  0.00     0.006 A 
ENDBRANCH   7   9
ENDBRANCH   2   6
BRANCH   3  16
ATOM     16  C   UNL d   1      59.419  -2.346  29.091  0.00  0.00     0.036 A 
ATOM     17  C   UNL d   1      60.194  -2.444  29.353  0.00  0.00     0.003 A 
ATOM     18  C   UNL d   1      60.609  -3.141  29.165  0.00  0.00     0.000 A 
ATOM     19  C   UNL d   1      60.243  -3.736  28.715  0.00  0.00     0.000 A 
ATOM     20  C   UNL d   1      59.463  -3.629  28.455  0.00  0.00     0.000 A 
ATOM     21  C   UNL d   1      59.053  -2.940  28.641  0.00  0.00     0.003 A 
ENDBRANCH   3  16
TORSDOF 3
ENDMDL
