MODEL 1
REMARK VINA RESULT:      41.5      0.000      0.000
REMARK  6 active torsions:
REMARK  status: ('A' for Active; 'I' for Inactive)
REMARK    1  A    between atoms: C_22  and  C_3 
REMARK    2  A    between atoms: S_17  and  C_5 
REMARK    3  A    between atoms: C_11  and  C_16 
REMARK       I    between atoms: N_14  and  C_11 
REMARK    4  A    between atoms: C_19  and  N_14 
REMARK    5  A    between atoms: C_16  and  C_20 
REMARK    6  A    between atoms: C_20  and  S_17 
ROOT
ATOM      1  C   UNL d   1      46.477 -19.125  41.405  0.00  0.00     0.092 A 
ATOM      2  C   UNL d   1      46.334 -18.736  42.768  0.00  0.00     0.057 A 
ATOM      3  C   UNL d   1      46.418 -19.327  42.200  0.00  0.00     0.016 A 
ATOM      4  N   UNL d   1      46.368 -17.743  41.743  0.00  0.00    -0.239 NA
ATOM      5  C   UNL d   1      46.452 -18.333  41.176  0.00  0.00     0.120 A 
ATOM      6  C   UNL d   1      46.309 -17.943  42.539  0.00  0.00     0.081 A 
ATOM      7  C   UNL d   1      46.275 -18.938  43.564  0.00  0.00     0.193 A 
ATOM      8  C   UNL d   1      46.562 -19.724  40.827  0.00  0.00     0.103 C 
ATOM      9  N   UNL d   1      46.647 -20.328  40.259  0.00  0.00    -0.191 NA
ATOM     10  C   UNL d   1      46.165 -17.552  43.910  0.00  0.00     0.042 A 
ATOM     11  C   UNL d   1      46.190 -18.344  44.139  0.00  0.00     0.019 A 
ATOM     12  C   UNL d   1      46.225 -17.353  43.106  0.00  0.00    -0.003 A 
ATOM     13  O   UNL d   1      46.300 -19.729  43.792  0.00  0.00    -0.287 OA
ATOM     14  C   UNL d   1      46.114 -16.724  43.960  0.00  0.00     0.009 C 
ATOM     15  C   UNL d   1      46.106 -17.744  44.708  0.00  0.00     0.009 C 
ENDROOT
BRANCH   3  16
ATOM     16  C   UNL d   1      46.443 -20.118  42.429  0.00  0.00     0.001 C 
ATOM     17  C   UNL d   1      46.268 -20.329  43.206  0.00  0.00     0.000 C 
ENDBRANCH   3  16
BRANCH   5  18
ATOM     18  S   UNL d   1      46.512 -18.135  40.368  0.00  0.00    -0.067 SA
BRANCH  18  19
ATOM     19  C   UNL d   1      46.062 -17.516  40.058  0.00  0.00     0.042 C 
BRANCH  19  20
ATOM     20  C   UNL d   1      46.225 -17.229  39.300  0.00  0.00     0.070 C 
BRANCH  20  21
ATOM     21  C   UNL d   1      45.602 -16.929  38.830  0.00  0.00     0.280 C 
ATOM     22  N   UNL d   1      45.770 -16.387  38.228  0.00  0.00    -0.208 NA
ATOM     23  O   UNL d   1      44.827 -17.176  38.971  0.00  0.00    -0.265 OA
BRANCH  22  24
ATOM     24  C   UNL d   1      45.146 -16.086  37.757  0.00  0.00     0.085 A 
ATOM     25  C   UNL d   1      44.368 -16.199  37.998  0.00  0.00     0.021 A 
ATOM     26  C   UNL d   1      43.750 -15.906  37.539  0.00  0.00     0.031 A 
ATOM     27  C   UNL d   1      43.911 -15.500  36.840  0.00  0.00     0.140 A 
ATOM     28  C   UNL d   1      44.699 -15.388  36.600  0.00  0.00     0.031 A 
ATOM     29  F   UNL d   1      43.293 -15.200  36.370  0.00  0.00    -0.204 F 
ATOM     30  C   UNL d   1      45.316 -15.681  37.059  0.00  0.00     0.021 A 
ENDBRANCH  22  24
ENDBRANCH  20  21
ENDBRANCH  19  20
ENDBRANCH  18  19
ENDBRANCH   5  18
TORSDOF 6
ENDMDL
MODEL 2
REMARK VINA RESULT:      42.1      3.544      5.568
REMARK  6 active torsions:
REMARK  status: ('A' for Active; 'I' for Inactive)
REMARK    1  A    between atoms: C_22  and  C_3 
REMARK    2  A    between atoms: S_17  and  C_5 
REMARK    3  A    between atoms: C_11  and  C_16 
REMARK       I    between atoms: N_14  and  C_11 
REMARK    4  A    between atoms: C_19  and  N_14 
REMARK    5  A    between atoms: C_16  and  C_20 
REMARK    6  A    between atoms: C_20  and  S_17 
ROOT
ATOM      1  C   UNL d   1      44.849 -15.681  44.549  0.00  0.00     0.092 A 
ATOM      2  C   UNL d   1      44.899 -14.309  44.169  0.00  0.00     0.057 A 
ATOM      3  C   UNL d   1      44.467 -14.999  44.290  0.00  0.00     0.016 A 
ATOM      4  N   UNL d   1      46.094 -14.983  44.565  0.00  0.00    -0.239 NA
ATOM      5  C   UNL d   1      45.663 -15.673  44.686  0.00  0.00     0.120 A 
ATOM      6  C   UNL d   1      45.713 -14.300  44.307  0.00  0.00     0.081 A 
ATOM      7  C   UNL d   1      44.517 -13.627  43.911  0.00  0.00     0.193 A 
ATOM      8  C   UNL d   1      44.413 -16.384  44.672  0.00  0.00     0.103 C 
ATOM      9  N   UNL d   1      43.968 -17.079  44.793  0.00  0.00    -0.191 NA
ATOM     10  C   UNL d   1      45.763 -12.920  43.925  0.00  0.00     0.042 A 
ATOM     11  C   UNL d   1      44.950 -12.928  43.788  0.00  0.00     0.019 A 
ATOM     12  C   UNL d   1      46.144 -13.610  44.186  0.00  0.00    -0.003 A 
ATOM     13  O   UNL d   1      43.705 -13.635  43.773  0.00  0.00    -0.287 OA
ATOM     14  C   UNL d   1      46.545 -12.643  43.981  0.00  0.00     0.009 C 
ATOM     15  C   UNL d   1      45.390 -12.233  43.667  0.00  0.00     0.009 C 
ENDROOT
BRANCH   3  16
ATOM     16  C   UNL d   1      43.655 -15.008  44.153  0.00  0.00     0.001 C 
ATOM     17  C   UNL d   1      43.155 -14.532  44.604  0.00  0.00     0.000 C 
ENDBRANCH   3  16
BRANCH   5  18
ATOM     18  S   UNL d   1      46.043 -16.367  44.948  0.00  0.00    -0.067 SA
BRANCH  18  19
ATOM     19  C   UNL d   1      45.812 -17.103  44.653  0.00  0.00     0.042 C 
BRANCH  19  20
ATOM     20  C   UNL d   1      46.381 -17.686  44.510  0.00  0.00     0.070 C 
BRANCH  20  21
ATOM     21  C   UNL d   1      46.456 -18.010  43.743  0.00  0.00     0.280 C 
ATOM     22  N   UNL d   1      46.350 -18.823  43.632  0.00  0.00    -0.208 NA
ATOM     23  O   UNL d   1      46.635 -17.517  43.106  0.00  0.00    -0.265 OA
BRANCH  22  24
ATOM     24  C   UNL d   1      46.425 -19.148  42.865  0.00  0.00     0.085 A 
ATOM     25  C   UNL d   1      46.394 -18.651  42.210  0.00  0.00     0.021 A 
ATOM     26  C   UNL d   1      46.467 -18.964  41.452  0.00  0.00     0.031 A 
ATOM     27  C   UNL d   1      46.571 -19.776  41.349  0.00  0.00     0.140 A 
ATOM     28  C   UNL d   1      46.602 -20.275  42.013  0.00  0.00     0.031 A 
ATOM     29  F   UNL d   1      46.646 -20.101  40.587  0.00  0.00    -0.204 F 
ATOM     30  C   UNL d   1      46.529 -19.961  42.770  0.00  0.00     0.021 A 
ENDBRANCH  22  24
ENDBRANCH  20  21
ENDBRANCH  19  20
ENDBRANCH  18  19
ENDBRANCH   5  18
TORSDOF 6
ENDMDL
