MODEL 1
REMARK VINA RESULT:      40.7      0.000      0.000
REMARK  4 active torsions:
REMARK  status: ('A' for Active; 'I' for Inactive)
REMARK    1  A    between atoms: C_8  and  C_1 
REMARK    2  A    between atoms: C_4  and  C_2 
REMARK    3  A    between atoms: O_16  and  C_8 
REMARK    4  A    between atoms: C_21  and  O_16 
ROOT
ATOM      1  C   UNL d   1      44.737 -12.595  42.911  0.00  0.00     0.099 A 
ATOM      2  C   UNL d   1      45.531 -12.818  42.887  0.00  0.00     0.096 A 
ATOM      3  C   UNL d   1      44.366 -12.304  42.218  0.00  0.00     0.093 A 
ATOM      4  C   UNL d   1      45.587 -12.465  41.498  0.00  0.00     0.369 A 
ATOM      5  N   UNL d   1      44.796 -12.241  41.513  0.00  0.00    -0.191 NA
ATOM      6  N   UNL d   1      45.953 -12.752  42.182  0.00  0.00    -0.191 NA
ATOM      7  O   UNL d   1      46.017 -12.402  40.792  0.00  0.00    -0.242 OA
ATOM      8  C   UNL d   1      43.578 -12.081  42.232  0.00  0.00     0.021 C 
ENDROOT
BRANCH   2   9
ATOM      9  C   UNL d   1      45.892 -13.101  43.562  0.00  0.00     0.057 A 
ATOM     10  C   UNL d   1      46.019 -13.910  43.662  0.00  0.00     0.005 A 
ATOM     11  C   UNL d   1      46.384 -14.197  44.346  0.00  0.00     0.000 A 
ATOM     12  C   UNL d   1      45.774 -14.434  43.066  0.00  0.00     0.000 A 
ATOM     13  C   UNL d   1      46.507 -15.010  44.437  0.00  0.00     0.000 A 
ATOM     14  C   UNL d   1      46.626 -13.677  44.933  0.00  0.00     0.003 A 
ATOM     15  C   UNL d   1      46.266 -15.533  43.848  0.00  0.00     0.000 A 
ATOM     16  C   UNL d   1      45.900 -15.245  43.165  0.00  0.00     0.000 A 
ATOM     17  C   UNL d   1      46.503 -12.864  44.842  0.00  0.00     0.042 A 
ATOM     18  C   UNL d   1      46.122 -12.566  44.131  0.00  0.00     0.197 A 
ATOM     19  O   UNL d   1      46.409 -12.100  44.799  0.00  0.00    -0.286 OA
ENDBRANCH   2   9
BRANCH   1  20
ATOM     20  C   UNL d   1      44.320 -12.662  43.618  0.00  0.00     0.303 C 
ATOM     21  O   UNL d   1      44.386 -12.081  44.191  0.00  0.00    -0.259 OA
BRANCH  20  22
ATOM     22  O   UNL d   1      43.837 -13.320  43.738  0.00  0.00    -0.271 OA
BRANCH  22  23
ATOM     23  C   UNL d   1      43.363 -13.347  44.407  0.00  0.00     0.126 C 
ATOM     24  C   UNL d   1      43.233 -14.058  44.794  0.00  0.00     0.029 C 
ENDBRANCH  22  23
ENDBRANCH  20  22
ENDBRANCH   1  20
TORSDOF 4
ENDMDL
MODEL 2
REMARK VINA RESULT:      43.6      1.606      2.705
REMARK  4 active torsions:
REMARK  status: ('A' for Active; 'I' for Inactive)
REMARK    1  A    between atoms: C_8  and  C_1 
REMARK    2  A    between atoms: C_4  and  C_2 
REMARK    3  A    between atoms: O_16  and  C_8 
REMARK    4  A    between atoms: C_21  and  O_16 
ROOT
ATOM      1  C   UNL d   1      44.870 -14.686  44.409  0.00  0.00     0.099 A 
ATOM      2  C   UNL d   1      45.540 -14.476  43.975  0.00  0.00     0.096 A 
ATOM      3  C   UNL d   1      44.687 -15.496  44.523  0.00  0.00     0.093 A 
ATOM      4  C   UNL d   1      45.844 -15.862  43.771  0.00  0.00     0.369 A 
ATOM      5  N   UNL d   1      45.178 -16.081  44.202  0.00  0.00    -0.191 NA
ATOM      6  N   UNL d   1      46.024 -15.063  43.659  0.00  0.00    -0.191 NA
ATOM      7  O   UNL d   1      46.335 -16.447  43.450  0.00  0.00    -0.242 OA
ATOM      8  C   UNL d   1      44.025 -15.716  44.951  0.00  0.00     0.021 C 
ENDROOT
BRANCH   2   9
ATOM      9  C   UNL d   1      45.717 -13.686  43.864  0.00  0.00     0.057 A 
ATOM     10  C   UNL d   1      45.447 -13.286  43.196  0.00  0.00     0.005 A 
ATOM     11  C   UNL d   1      45.627 -12.487  43.083  0.00  0.00     0.000 A 
ATOM     12  C   UNL d   1      44.990 -13.696  42.636  0.00  0.00     0.000 A 
ATOM     13  C   UNL d   1      45.351 -12.093  42.410  0.00  0.00     0.000 A 
ATOM     14  C   UNL d   1      46.078 -12.084  43.638  0.00  0.00     0.003 A 
ATOM     15  C   UNL d   1      44.898 -12.496  41.853  0.00  0.00     0.000 A 
ATOM     16  C   UNL d   1      44.718 -13.296  41.965  0.00  0.00     0.000 A 
ATOM     17  C   UNL d   1      46.354 -12.477  44.311  0.00  0.00     0.042 A 
ATOM     18  C   UNL d   1      46.166 -13.308  44.428  0.00  0.00     0.197 A 
ATOM     19  O   UNL d   1      46.631 -12.803  44.952  0.00  0.00    -0.286 OA
ENDBRANCH   2   9
BRANCH   1  20
ATOM     20  C   UNL d   1      44.389 -14.096  44.723  0.00  0.00     0.303 C 
ATOM     21  O   UNL d   1      44.715 -13.379  44.950  0.00  0.00    -0.259 OA
BRANCH  20  22
ATOM     22  O   UNL d   1      43.581 -14.238  44.805  0.00  0.00    -0.271 OA
BRANCH  22  23
ATOM     23  C   UNL d   1      43.055 -13.625  44.659  0.00  0.00     0.126 C 
ATOM     24  C   UNL d   1      42.250 -13.738  44.763  0.00  0.00     0.029 C 
ENDBRANCH  22  23
ENDBRANCH  20  22
ENDBRANCH   1  20
TORSDOF 4
ENDMDL
