MODEL 1
REMARK VINA RESULT:      51.0      0.000      0.000
REMARK  5 active torsions:
REMARK  status: ('A' for Active; 'I' for Inactive)
REMARK    1  A    between atoms: C_11  and  N_2 
REMARK    2  A    between atoms: C_6  and  O_13 
REMARK    3  A    between atoms: C_12  and  C_7 
REMARK    4  A    between atoms: C_16  and  C_11 
REMARK    5  A    between atoms: O_13  and  C_16 
ROOT
ATOM      1  C   UNL d   1     -55.474-100.431 -43.418  0.00  0.00     0.142 C 
ENDROOT
BRANCH   1   2
ATOM      2  O   UNL d   1     -55.596 -99.620 -43.467  0.00  0.00    -0.304 OA
BRANCH   2   3
ATOM      3  C   UNL d   1     -56.247 -99.332 -43.884  0.00  0.00     0.100 A 
ATOM      4  C   UNL d   1     -56.156 -99.061 -44.655  0.00  0.00     0.023 A 
ATOM      5  C   UNL d   1     -56.798 -98.773 -45.076  0.00  0.00     0.002 A 
ATOM      6  C   UNL d   1     -57.549 -98.757 -44.716  0.00  0.00     0.000 A 
ATOM      7  C   UNL d   1     -57.643 -99.029 -43.942  0.00  0.00     0.002 A 
ATOM      8  C   UNL d   1     -56.991 -99.317 -43.525  0.00  0.00     0.025 A 
ATOM      9  C   UNL d   1     -58.385 -99.013 -43.587  0.00  0.00     0.000 C 
BRANCH   4  10
ATOM     10  C   UNL d   1     -55.410 -99.078 -45.009  0.00  0.00     0.002 C 
ATOM     11  C   UNL d   1     -54.751 -98.783 -44.610  0.00  0.00     0.000 C 
ATOM     12  C   UNL d   1     -55.317 -99.392 -45.766  0.00  0.00     0.000 C 
ENDBRANCH   4  10
ENDBRANCH   2   3
ENDBRANCH   1   2
BRANCH   1  13
ATOM     13  C   UNL d   1     -54.757-100.717 -43.125  0.00  0.00     0.112 C 
BRANCH  13  14
ATOM     14  N   UNL d   1     -54.743-101.410 -42.686  0.00  0.00    -0.249 N 
ATOM     15  C   UNL d   1     -54.727-102.106 -43.144  0.00  0.00     0.378 A 
ATOM     16  O   UNL d   1     -54.714-102.759 -42.636  0.00  0.00    -0.258 OA
ATOM     17  O   UNL d   1     -54.726-102.130 -43.968  0.00  0.00    -0.237 OA
ATOM     18  C   UNL d   1     -54.721-102.470 -41.852  0.00  0.00     0.121 A 
ATOM     19  C   UNL d   1     -54.713-102.850 -41.118  0.00  0.00     0.026 A 
ATOM     20  C   UNL d   1     -54.739-101.638 -41.888  0.00  0.00     0.092 A 
ATOM     21  C   UNL d   1     -54.723-102.407 -40.425  0.00  0.00     0.002 A 
ATOM     22  C   UNL d   1     -54.741-101.583 -40.462  0.00  0.00     0.002 A 
ATOM     23  C   UNL d   1     -54.749-101.194 -41.191  0.00  0.00     0.020 A 
ENDBRANCH  13  14
ENDBRANCH   1  13
TORSDOF 5
ENDMDL
MODEL 2
REMARK VINA RESULT:      53.4      1.834      4.417
REMARK  5 active torsions:
REMARK  status: ('A' for Active; 'I' for Inactive)
REMARK    1  A    between atoms: C_11  and  N_2 
REMARK    2  A    between atoms: C_6  and  O_13 
REMARK    3  A    between atoms: C_12  and  C_7 
REMARK    4  A    between atoms: C_16  and  C_11 
REMARK    5  A    between atoms: O_13  and  C_16 
ROOT
ATOM      1  C   UNL d   1     -56.400 -99.574 -43.518  0.00  0.00     0.142 C 
ENDROOT
BRANCH   1   2
ATOM      2  O   UNL d   1     -55.591 -99.676 -43.623  0.00  0.00    -0.304 OA
BRANCH   2   3
ATOM      3  C   UNL d   1     -55.298 -99.843 -44.376  0.00  0.00     0.100 A 
ATOM      4  C   UNL d   1     -55.123-100.618 -44.588  0.00  0.00     0.023 A 
ATOM      5  C   UNL d   1     -54.832-100.792 -45.335  0.00  0.00     0.002 A 
ATOM      6  C   UNL d   1     -54.712-100.176 -45.882  0.00  0.00     0.000 A 
ATOM      7  C   UNL d   1     -54.887 -99.396 -45.671  0.00  0.00     0.002 A 
ATOM      8  C   UNL d   1     -55.180 -99.230 -44.918  0.00  0.00     0.025 A 
ATOM      9  C   UNL d   1     -54.769 -98.787 -46.211  0.00  0.00     0.000 C 
BRANCH   4  10
ATOM     10  C   UNL d   1     -55.242-101.227 -44.044  0.00  0.00     0.002 C 
ATOM     11  C   UNL d   1     -55.710-101.879 -44.241  0.00  0.00     0.000 C 
ATOM     12  C   UNL d   1     -54.895-101.191 -43.297  0.00  0.00     0.000 C 
ENDBRANCH   4  10
ENDBRANCH   2   3
ENDBRANCH   1   2
BRANCH   1  13
ATOM     13  C   UNL d   1     -56.753 -98.866 -43.752  0.00  0.00     0.112 C 
BRANCH  13  14
ATOM     14  N   UNL d   1     -57.566 -98.830 -43.853  0.00  0.00    -0.249 N 
ATOM     15  C   UNL d   1     -57.999 -98.789 -43.142  0.00  0.00     0.378 A 
ATOM     16  O   UNL d   1     -58.806 -98.756 -43.323  0.00  0.00    -0.258 OA
ATOM     17  O   UNL d   1     -57.669 -98.784 -42.387  0.00  0.00    -0.237 OA
ATOM     18  C   UNL d   1     -58.880 -98.775 -44.156  0.00  0.00     0.121 A 
ATOM     19  C   UNL d   1     -59.536 -98.757 -44.657  0.00  0.00     0.026 A 
ATOM     20  C   UNL d   1     -58.113 -98.821 -44.477  0.00  0.00     0.092 A 
ATOM     21  C   UNL d   1     -59.432 -98.785 -45.472  0.00  0.00     0.002 A 
ATOM     22  C   UNL d   1     -58.673 -98.830 -45.791  0.00  0.00     0.002 A 
ATOM     23  C   UNL d   1     -58.010 -98.848 -45.297  0.00  0.00     0.020 A 
ENDBRANCH  13  14
ENDBRANCH   1  13
TORSDOF 5
ENDMDL
