MODEL 1
REMARK VINA RESULT:       1.3      0.000      0.000
REMARK  6 active torsions:
REMARK  status: ('A' for Active; 'I' for Inactive)
REMARK    1  A    between atoms: C_9  and  C_2 
REMARK    2  A    between atoms: N_12  and  C_6 
REMARK    3  A    between atoms: N_11  and  C_20 
REMARK    4  A    between atoms: C_19  and  N_12 
REMARK    5  A    between atoms: O_21  and  C_16 
REMARK    6  A    between atoms: C_20  and  C_19 
ROOT
ATOM      1  C   UNL d   1      32.693  22.068 -21.428  0.00  0.00     0.060 A 
ATOM      2  C   UNL d   1      32.591  22.832 -21.678  0.00  0.00     0.011 A 
ATOM      3  C   UNL d   1      32.511  23.326 -20.995  0.00  0.00     0.037 A 
ATOM      4  C   UNL d   1      32.679  22.062 -20.580  0.00  0.00     0.116 A 
ATOM      5  S   UNL d   1      32.566  22.850 -20.320  0.00  0.00    -0.067 SA
ATOM      6  C   UNL d   1      32.797  21.363 -21.828  0.00  0.00     0.166 A 
ATOM      7  N   UNL d   1      32.770  21.354 -20.157  0.00  0.00    -0.217 NA
ATOM      8  N   UNL d   1      32.885  20.675 -21.412  0.00  0.00    -0.205 NA
ATOM      9  C   UNL d   1      32.872  20.663 -20.556  0.00  0.00     0.201 A 
ENDROOT
BRANCH   6  10
ATOM     10  N   UNL d   1      32.814  21.339 -22.658  0.00  0.00    -0.224 NA
BRANCH  10  11
ATOM     11  C   UNL d   1      32.957  20.625 -23.042  0.00  0.00     0.120 C 
BRANCH  11  12
ATOM     12  C   UNL d   1      32.526  20.422 -23.730  0.00  0.00     0.101 C 
BRANCH  12  13
ATOM     13  N   UNL d   1      32.594  19.654 -24.046  0.00  0.00    -0.298 N 
ATOM     14  C   UNL d   1      32.090  19.091 -23.806  0.00  0.00     0.107 A 
ATOM     15  C   UNL d   1      32.169  18.328 -24.130  0.00  0.00     0.142 A 
ATOM     16  O   UNL d   1      32.741  18.180 -24.669  0.00  0.00    -0.300 OA
ATOM     17  C   UNL d   1      33.241  18.742 -24.907  0.00  0.00     0.142 A 
ATOM     18  C   UNL d   1      33.186  19.498 -24.605  0.00  0.00     0.107 A 
ENDBRANCH  12  13
ENDBRANCH  11  12
ENDBRANCH  10  11
ENDBRANCH   6  10
BRANCH   2  19
ATOM     19  C   UNL d   1      32.575  23.040 -22.452  0.00  0.00     0.001 A 
ATOM     20  C   UNL d   1      33.241  23.342 -22.827  0.00  0.00     0.002 A 
ATOM     21  C   UNL d   1      33.227  23.556 -23.619  0.00  0.00     0.024 A 
ATOM     22  C   UNL d   1      32.538  23.475 -24.065  0.00  0.00     0.094 A 
ATOM     23  C   UNL d   1      31.858  23.163 -23.669  0.00  0.00     0.024 A 
ATOM     24  C   UNL d   1      31.875  22.950 -22.880  0.00  0.00     0.002 A 
BRANCH  22  25
ATOM     25  O   UNL d   1      32.462  23.638 -24.737  0.00  0.00    -0.328 OA
ATOM     26  C   UNL d   1      31.700  23.702 -25.097  0.00  0.00     0.181 C 
ENDBRANCH  22  25
ENDBRANCH   2  19
TORSDOF 6
ENDMDL
MODEL 2
REMARK VINA RESULT:       4.3      3.018      5.577
REMARK  6 active torsions:
REMARK  status: ('A' for Active; 'I' for Inactive)
REMARK    1  A    between atoms: C_9  and  C_2 
REMARK    2  A    between atoms: N_12  and  C_6 
REMARK    3  A    between atoms: N_11  and  C_20 
REMARK    4  A    between atoms: C_19  and  N_12 
REMARK    5  A    between atoms: O_21  and  C_16 
REMARK    6  A    between atoms: C_20  and  C_19 
ROOT
ATOM      1  C   UNL d   1      31.374  16.662 -24.433  0.00  0.00     0.060 A 
ATOM      2  C   UNL d   1      30.615  16.630 -24.716  0.00  0.00     0.011 A 
ATOM      3  C   UNL d   1      30.505  15.881 -25.096  0.00  0.00     0.037 A 
ATOM      4  C   UNL d   1      31.761  15.933 -24.629  0.00  0.00     0.116 A 
ATOM      5  S   UNL d   1      31.213  15.453 -25.041  0.00  0.00    -0.067 SA
ATOM      6  C   UNL d   1      31.789  17.235 -24.025  0.00  0.00     0.166 A 
ATOM      7  N   UNL d   1      32.551  15.798 -24.411  0.00  0.00    -0.217 NA
ATOM      8  N   UNL d   1      32.558  17.100 -23.815  0.00  0.00    -0.205 NA
ATOM      9  C   UNL d   1      32.954  16.367 -24.010  0.00  0.00     0.201 A 
ENDROOT
BRANCH   6  10
ATOM     10  N   UNL d   1      31.435  17.958 -23.821  0.00  0.00    -0.224 NA
BRANCH  10  11
ATOM     11  C   UNL d   1      31.908  18.610 -23.652  0.00  0.00     0.120 C 
BRANCH  11  12
ATOM     12  C   UNL d   1      31.740  19.094 -22.990  0.00  0.00     0.101 C 
BRANCH  12  13
ATOM     13  N   UNL d   1      32.232  19.744 -22.819  0.00  0.00    -0.298 N 
ATOM     14  C   UNL d   1      32.752  19.989 -23.366  0.00  0.00     0.107 A 
ATOM     15  C   UNL d   1      33.238  20.640 -23.182  0.00  0.00     0.142 A 
ATOM     16  O   UNL d   1      33.173  20.999 -22.470  0.00  0.00    -0.300 OA
ATOM     17  C   UNL d   1      32.656  20.753 -21.929  0.00  0.00     0.142 A 
ATOM     18  C   UNL d   1      32.167  20.118 -22.082  0.00  0.00     0.107 A 
ENDBRANCH  12  13
ENDBRANCH  11  12
ENDBRANCH  10  11
ENDBRANCH   6  10
BRANCH   2  19
ATOM     19  C   UNL d   1      30.090  17.229 -24.629  0.00  0.00     0.001 A 
ATOM     20  C   UNL d   1      29.449  17.163 -24.120  0.00  0.00     0.002 A 
ATOM     21  C   UNL d   1      28.909  17.775 -24.029  0.00  0.00     0.024 A 
ATOM     22  C   UNL d   1      28.996  18.479 -24.449  0.00  0.00     0.094 A 
ATOM     23  C   UNL d   1      29.660  18.536 -24.970  0.00  0.00     0.024 A 
ATOM     24  C   UNL d   1      30.196  17.925 -25.060  0.00  0.00     0.002 A 
BRANCH  22  25
ATOM     25  O   UNL d   1      28.575  19.033 -24.416  0.00  0.00    -0.328 OA
ATOM     26  C   UNL d   1      28.104  19.274 -25.075  0.00  0.00     0.181 C 
ENDBRANCH  22  25
ENDBRANCH   2  19
TORSDOF 6
ENDMDL
