MODEL 1
REMARK VINA RESULT:      -6.3      0.000      0.000
REMARK  5 active torsions:
REMARK  status: ('A' for Active; 'I' for Inactive)
REMARK    1  A    between atoms: O_8  and  C_1 
REMARK    2  A    between atoms: C_10  and  C_5 
REMARK    3  A    between atoms: C_12  and  O_8 
REMARK    4  A    between atoms: N_9  and  C_10 
REMARK    5  A    between atoms: O_24  and  C_17 
ROOT
ATOM      1  C   UNL d   1     -39.390  15.174  18.288  0.00  0.00     0.161 A 
ATOM      2  C   UNL d   1     -39.838  15.410  19.870  0.00  0.00     0.108 A 
ATOM      3  C   UNL d   1     -40.350  15.006  19.345  0.00  0.00     0.064 A 
ATOM      4  C   UNL d   1     -40.128  14.889  18.563  0.00  0.00     0.222 A 
ATOM      5  C   UNL d   1     -40.062  15.529  20.661  0.00  0.00     0.079 A 
ATOM      6  O   UNL d   1     -39.105  15.697  19.606  0.00  0.00    -0.305 OA
ATOM      7  C   UNL d   1     -38.883  15.575  18.808  0.00  0.00     0.126 A 
ATOM      8  C   UNL d   1     -41.081  14.726  19.628  0.00  0.00     0.009 A 
ATOM      9  C   UNL d   1     -40.792  15.245  20.926  0.00  0.00     0.199 A 
ATOM     10  O   UNL d   1     -40.630  14.490  18.043  0.00  0.00    -0.284 OA
ATOM     11  C   UNL d   1     -41.299  14.845  20.412  0.00  0.00     0.042 A 
ATOM     12  O   UNL d   1     -41.010  15.364  21.712  0.00  0.00    -0.286 OA
ATOM     13  C   UNL d   1     -38.158  15.855  18.537  0.00  0.00     0.029 C 
ENDROOT
BRANCH   1  14
ATOM     14  O   UNL d   1     -39.172  15.055  17.503  0.00  0.00    -0.300 OA
BRANCH  14  15
ATOM     15  C   UNL d   1     -38.775  14.367  17.287  0.00  0.00     0.122 A 
ATOM     16  C   UNL d   1     -38.460  14.301  16.526  0.00  0.00     0.117 A 
ATOM     17  C   UNL d   1     -38.064  13.615  16.307  0.00  0.00     0.026 A 
ATOM     18  C   UNL d   1     -37.979  12.994  16.843  0.00  0.00     0.002 A 
ATOM     19  C   UNL d   1     -38.299  13.067  17.609  0.00  0.00     0.002 A 
ATOM     20  C   UNL d   1     -38.696  13.755  17.824  0.00  0.00     0.027 A 
BRANCH  16  21
ATOM     21  O   UNL d   1     -38.542  14.914  15.993  0.00  0.00    -0.326 OA
ATOM     22  C   UNL d   1     -37.966  15.043  15.413  0.00  0.00     0.181 C 
ENDBRANCH  16  21
ENDBRANCH  14  15
ENDBRANCH   1  14
BRANCH   5  23
ATOM     23  C   UNL d   1     -39.563  15.922  21.167  0.00  0.00     0.086 C 
BRANCH  23  24
ATOM     24  N   UNL d   1     -39.155  15.504  21.753  0.00  0.00    -0.300 N 
ATOM     25  C   UNL d   1     -39.185  14.679  21.760  0.00  0.00     0.100 A 
ATOM     26  C   UNL d   1     -38.779  14.262  22.343  0.00  0.00     0.100 A 
ATOM     27  N   UNL d   1     -38.345  14.668  22.917  0.00  0.00    -0.299 N 
ATOM     28  C   UNL d   1     -38.319  15.492  22.905  0.00  0.00     0.100 A 
ATOM     29  C   UNL d   1     -37.940  14.250  23.499  0.00  0.00     0.100 C 
ATOM     30  C   UNL d   1     -38.726  15.911  22.320  0.00  0.00     0.100 A 
ENDBRANCH  23  24
ENDBRANCH   5  23
TORSDOF 5
ENDMDL
MODEL 2
REMARK VINA RESULT:      -6.1      2.007      4.883
REMARK  5 active torsions:
REMARK  status: ('A' for Active; 'I' for Inactive)
REMARK    1  A    between atoms: O_8  and  C_1 
REMARK    2  A    between atoms: C_10  and  C_5 
REMARK    3  A    between atoms: C_12  and  O_8 
REMARK    4  A    between atoms: N_9  and  C_10 
REMARK    5  A    between atoms: O_24  and  C_17 
ROOT
ATOM      1  C   UNL d   1     -38.390  14.500  20.224  0.00  0.00     0.161 A 
ATOM      2  C   UNL d   1     -38.637  14.675  18.591  0.00  0.00     0.108 A 
ATOM      3  C   UNL d   1     -38.408  13.933  18.903  0.00  0.00     0.064 A 
ATOM      4  C   UNL d   1     -38.286  13.846  19.710  0.00  0.00     0.222 A 
ATOM      5  C   UNL d   1     -38.762  14.763  17.774  0.00  0.00     0.079 A 
ATOM      6  O   UNL d   1     -38.743  15.329  19.092  0.00  0.00    -0.305 OA
ATOM      7  C   UNL d   1     -38.617  15.236  19.915  0.00  0.00     0.126 A 
ATOM      8  C   UNL d   1     -38.308  13.290  18.384  0.00  0.00     0.009 A 
ATOM      9  C   UNL d   1     -38.657  14.114  17.273  0.00  0.00     0.199 A 
ATOM     10  O   UNL d   1     -38.060  13.117  20.022  0.00  0.00    -0.284 OA
ATOM     11  C   UNL d   1     -38.432  13.381  17.576  0.00  0.00     0.042 A 
ATOM     12  O   UNL d   1     -38.781  14.205  16.463  0.00  0.00    -0.286 OA
ATOM     13  C   UNL d   1     -38.719  15.878  20.420  0.00  0.00     0.029 C 
ENDROOT
BRANCH   1  14
ATOM     14  O   UNL d   1     -38.266  14.409  21.032  0.00  0.00    -0.300 OA
BRANCH  14  15
ATOM     15  C   UNL d   1     -38.889  14.182  21.520  0.00  0.00     0.122 A 
ATOM     16  C   UNL d   1     -38.789  14.196  22.341  0.00  0.00     0.117 A 
ATOM     17  C   UNL d   1     -39.408  13.970  22.830  0.00  0.00     0.026 A 
ATOM     18  C   UNL d   1     -40.128  13.729  22.507  0.00  0.00     0.002 A 
ATOM     19  C   UNL d   1     -40.222  13.717  21.680  0.00  0.00     0.002 A 
ATOM     20  C   UNL d   1     -39.599  13.944  21.193  0.00  0.00     0.027 A 
BRANCH  16  21
ATOM     21  O   UNL d   1     -38.077  14.434  22.664  0.00  0.00    -0.326 OA
ATOM     22  C   UNL d   1     -37.940  14.352  23.476  0.00  0.00     0.181 C 
ENDBRANCH  16  21
ENDBRANCH  14  15
ENDBRANCH   1  14
BRANCH   5  23
ATOM     23  C   UNL d   1     -38.984  15.485  17.475  0.00  0.00     0.086 C 
BRANCH  23  24
ATOM     24  N   UNL d   1     -39.753  15.595  17.189  0.00  0.00    -0.300 N 
ATOM     25  C   UNL d   1     -39.881  15.650  16.376  0.00  0.00     0.100 A 
ATOM     26  C   UNL d   1     -40.646  15.759  16.091  0.00  0.00     0.100 A 
ATOM     27  N   UNL d   1     -41.280  15.813  16.618  0.00  0.00    -0.299 N 
ATOM     28  C   UNL d   1     -41.147  15.757  17.430  0.00  0.00     0.100 A 
ATOM     29  C   UNL d   1     -42.045  15.922  16.332  0.00  0.00     0.100 C 
ATOM     30  C   UNL d   1     -40.379  15.647  17.715  0.00  0.00     0.100 A 
ENDBRANCH  23  24
ENDBRANCH   5  23
TORSDOF 5
ENDMDL
MODEL 3
REMARK VINA RESULT:      -5.8      7.650     10.056
REMARK  5 active torsions:
REMARK  status: ('A' for Active; 'I' for Inactive)
REMARK    1  A    between atoms: O_8  and  C_1 
REMARK    2  A    between atoms: C_10  and  C_5 
REMARK    3  A    between atoms: C_12  and  O_8 
REMARK    4  A    between atoms: N_9  and  C_10 
REMARK    5  A    between atoms: O_24  and  C_17 
ROOT
ATOM      1  C   UNL d   1     -48.791  12.934  23.353  0.00  0.00     0.161 A 
ATOM      2  C   UNL d   1     -47.218  12.414  23.477  0.00  0.00     0.108 A 
ATOM      3  C   UNL d   1     -47.846  11.862  23.514  0.00  0.00     0.064 A 
ATOM      4  C   UNL d   1     -48.624  12.119  23.453  0.00  0.00     0.222 A 
ATOM      5  C   UNL d   1     -46.431  12.155  23.538  0.00  0.00     0.079 A 
ATOM      6  O   UNL d   1     -47.374  13.224  23.378  0.00  0.00    -0.305 OA
ATOM      7  C   UNL d   1     -48.168  13.481  23.316  0.00  0.00     0.126 A 
ATOM      8  C   UNL d   1     -47.669  11.055  23.614  0.00  0.00     0.009 A 
ATOM      9  C   UNL d   1     -46.273  11.349  23.637  0.00  0.00     0.199 A 
ATOM     10  O   UNL d   1     -49.245  11.578  23.490  0.00  0.00    -0.284 OA
ATOM     11  C   UNL d   1     -46.889  10.802  23.674  0.00  0.00     0.042 A 
ATOM     12  O   UNL d   1     -45.491  11.095  23.697  0.00  0.00    -0.286 OA
ATOM     13  C   UNL d   1     -48.333  14.281  23.218  0.00  0.00     0.029 C 
ENDROOT
BRANCH   1  14
ATOM     14  O   UNL d   1     -49.571  13.187  23.293  0.00  0.00    -0.300 OA
BRANCH  14  15
ATOM     15  C   UNL d   1     -49.918  13.277  22.551  0.00  0.00     0.122 A 
ATOM     16  C   UNL d   1     -50.486  13.866  22.437  0.00  0.00     0.117 A 
ATOM     17  C   UNL d   1     -50.834  13.958  21.698  0.00  0.00     0.026 A 
ATOM     18  C   UNL d   1     -50.618  13.466  21.072  0.00  0.00     0.002 A 
ATOM     19  C   UNL d   1     -50.044  12.874  21.194  0.00  0.00     0.002 A 
ATOM     20  C   UNL d   1     -49.699  12.786  21.936  0.00  0.00     0.027 A 
BRANCH  16  21
ATOM     21  O   UNL d   1     -50.703  14.355  23.054  0.00  0.00    -0.326 OA
ATOM     22  C   UNL d   1     -51.062  15.084  22.903  0.00  0.00     0.181 C 
ENDBRANCH  16  21
ENDBRANCH  14  15
ENDBRANCH   1  14
BRANCH   5  23
ATOM     23  C   UNL d   1     -45.824  12.693  23.501  0.00  0.00     0.086 C 
BRANCH  23  24
ATOM     24  N   UNL d   1     -45.304  12.686  22.858  0.00  0.00    -0.300 N 
ATOM     25  C   UNL d   1     -45.435  13.195  22.222  0.00  0.00     0.100 A 
ATOM     26  C   UNL d   1     -44.917  13.188  21.581  0.00  0.00     0.100 A 
ATOM     27  N   UNL d   1     -44.271  12.673  21.577  0.00  0.00    -0.299 N 
ATOM     28  C   UNL d   1     -44.145  12.166  22.215  0.00  0.00     0.100 A 
ATOM     29  C   UNL d   1     -43.754  12.667  20.936  0.00  0.00     0.100 C 
ATOM     30  C   UNL d   1     -44.664  12.173  22.858  0.00  0.00     0.100 A 
ENDBRANCH  23  24
ENDBRANCH   5  23
TORSDOF 5
ENDMDL
MODEL 4
REMARK VINA RESULT:      -5.1      7.535      9.894
REMARK  5 active torsions:
REMARK  status: ('A' for Active; 'I' for Inactive)
REMARK    1  A    between atoms: O_8  and  C_1 
REMARK    2  A    between atoms: C_10  and  C_5 
REMARK    3  A    between atoms: C_12  and  O_8 
REMARK    4  A    between atoms: N_9  and  C_10 
REMARK    5  A    between atoms: O_24  and  C_17 
ROOT
ATOM      1  C   UNL d   1     -48.519  13.085  22.540  0.00  0.00     0.161 A 
ATOM      2  C   UNL d   1     -46.914  12.799  22.860  0.00  0.00     0.108 A 
ATOM      3  C   UNL d   1     -47.133  13.256  22.194  0.00  0.00     0.064 A 
ATOM      4  C   UNL d   1     -47.927  13.397  22.035  0.00  0.00     0.222 A 
ATOM      5  C   UNL d   1     -46.112  12.656  23.021  0.00  0.00     0.079 A 
ATOM      6  O   UNL d   1     -47.493  12.486  23.366  0.00  0.00    -0.305 OA
ATOM      7  C   UNL d   1     -48.301  12.632  23.200  0.00  0.00     0.126 A 
ATOM      8  C   UNL d   1     -46.538  13.561  21.700  0.00  0.00     0.009 A 
ATOM      9  C   UNL d   1     -45.532  12.967  22.519  0.00  0.00     0.199 A 
ATOM     10  O   UNL d   1     -48.147  13.847  21.380  0.00  0.00    -0.284 OA
ATOM     11  C   UNL d   1     -45.745  13.418  21.862  0.00  0.00     0.042 A 
ATOM     12  O   UNL d   1     -44.738  12.823  22.682  0.00  0.00    -0.286 OA
ATOM     13  C   UNL d   1     -48.883  12.326  23.695  0.00  0.00     0.029 C 
ENDROOT
BRANCH   1  14
ATOM     14  O   UNL d   1     -49.312  13.229  22.377  0.00  0.00    -0.300 OA
BRANCH  14  15
ATOM     15  C   UNL d   1     -49.668  13.921  22.646  0.00  0.00     0.122 A 
ATOM     16  C   UNL d   1     -50.313  14.233  22.234  0.00  0.00     0.117 A 
ATOM     17  C   UNL d   1     -50.670  14.924  22.499  0.00  0.00     0.026 A 
ATOM     18  C   UNL d   1     -50.387  15.307  23.173  0.00  0.00     0.002 A 
ATOM     19  C   UNL d   1     -49.736  14.988  23.583  0.00  0.00     0.002 A 
ATOM     20  C   UNL d   1     -49.382  14.295  23.313  0.00  0.00     0.027 A 
BRANCH  16  21
ATOM     21  O   UNL d   1     -50.597  13.856  21.567  0.00  0.00    -0.326 OA
ATOM     22  C   UNL d   1     -51.063  14.267  21.021  0.00  0.00     0.181 C 
ENDBRANCH  16  21
ENDBRANCH  14  15
ENDBRANCH   1  14
BRANCH   5  23
ATOM     23  C   UNL d   1     -45.903  12.212  23.669  0.00  0.00     0.086 C 
BRANCH  23  24
ATOM     24  N   UNL d   1     -45.502  11.496  23.567  0.00  0.00    -0.300 N 
ATOM     25  C   UNL d   1     -44.711  11.501  23.333  0.00  0.00     0.100 A 
ATOM     26  C   UNL d   1     -44.311  10.788  23.231  0.00  0.00     0.100 A 
ATOM     27  N   UNL d   1     -44.702  10.072  23.362  0.00  0.00    -0.299 N 
ATOM     28  C   UNL d   1     -45.493  10.072  23.596  0.00  0.00     0.100 A 
ATOM     29  C   UNL d   1     -44.302   9.360  23.260  0.00  0.00     0.100 C 
ATOM     30  C   UNL d   1     -45.894  10.788  23.698  0.00  0.00     0.100 A 
ENDBRANCH  23  24
ENDBRANCH   5  23
TORSDOF 5
ENDMDL
MODEL 5
REMARK VINA RESULT:      -3.9      1.440      2.086
REMARK  5 active torsions:
REMARK  status: ('A' for Active; 'I' for Inactive)
REMARK    1  A    between atoms: O_8  and  C_1 
REMARK    2  A    between atoms: C_10  and  C_5 
REMARK    3  A    between atoms: C_12  and  O_8 
REMARK    4  A    between atoms: N_9  and  C_10 
REMARK    5  A    between atoms: O_24  and  C_17 
ROOT
ATOM      1  C   UNL d   1     -38.611  14.621  18.354  0.00  0.00     0.161 A 
ATOM      2  C   UNL d   1     -38.893  14.638  19.991  0.00  0.00     0.108 A 
ATOM      3  C   UNL d   1     -38.493  15.278  19.628  0.00  0.00     0.064 A 
ATOM      4  C   UNL d   1     -38.354  15.269  18.819  0.00  0.00     0.222 A 
ATOM      5  C   UNL d   1     -39.034  14.646  20.810  0.00  0.00     0.079 A 
ATOM      6  O   UNL d   1     -39.152  13.991  19.540  0.00  0.00    -0.305 OA
ATOM      7  C   UNL d   1     -39.007  13.987  18.714  0.00  0.00     0.126 A 
ATOM      8  C   UNL d   1     -38.242  15.917  20.098  0.00  0.00     0.009 A 
ATOM      9  C   UNL d   1     -38.778  15.289  21.263  0.00  0.00     0.199 A 
ATOM     10  O   UNL d   1     -37.960  15.898  18.457  0.00  0.00    -0.284 OA
ATOM     11  C   UNL d   1     -38.384  15.921  20.908  0.00  0.00     0.042 A 
ATOM     12  O   UNL d   1     -38.920  15.294  22.074  0.00  0.00    -0.286 OA
ATOM     13  C   UNL d   1     -39.259  13.351  18.258  0.00  0.00     0.029 C 
ENDROOT
BRANCH   1  14
ATOM     14  O   UNL d   1     -38.469  14.616  17.544  0.00  0.00    -0.300 OA
BRANCH  14  15
ATOM     15  C   UNL d   1     -39.000  14.982  17.032  0.00  0.00     0.122 A 
ATOM     16  C   UNL d   1     -38.942  14.845  16.219  0.00  0.00     0.117 A 
ATOM     17  C   UNL d   1     -39.470  15.209  15.706  0.00  0.00     0.026 A 
ATOM     18  C   UNL d   1     -40.057  15.709  15.998  0.00  0.00     0.002 A 
ATOM     19  C   UNL d   1     -40.110  15.844  16.818  0.00  0.00     0.002 A 
ATOM     20  C   UNL d   1     -39.579  15.477  17.329  0.00  0.00     0.027 A 
BRANCH  16  21
ATOM     21  O   UNL d   1     -38.362  14.349  15.926  0.00  0.00    -0.326 OA
ATOM     22  C   UNL d   1     -38.073  14.453  15.158  0.00  0.00     0.181 C 
ENDBRANCH  16  21
ENDBRANCH  14  15
ENDBRANCH   1  14
BRANCH   5  23
ATOM     23  C   UNL d   1     -39.422  14.024  21.159  0.00  0.00     0.086 C 
BRANCH  23  24
ATOM     24  N   UNL d   1     -39.061  13.604  21.773  0.00  0.00    -0.300 N 
ATOM     25  C   UNL d   1     -39.470  13.481  22.479  0.00  0.00     0.100 A 
ATOM     26  C   UNL d   1     -39.112  13.064  23.091  0.00  0.00     0.100 A 
ATOM     27  N   UNL d   1     -38.345  12.769  22.998  0.00  0.00    -0.299 N 
ATOM     28  C   UNL d   1     -37.940  12.895  22.291  0.00  0.00     0.100 A 
ATOM     29  C   UNL d   1     -37.987  12.352  23.610  0.00  0.00     0.100 C 
ATOM     30  C   UNL d   1     -38.301  13.314  21.676  0.00  0.00     0.100 A 
ENDBRANCH  23  24
ENDBRANCH   5  23
TORSDOF 5
ENDMDL
