MODEL 1
REMARK VINA RESULT:       9.5      0.000      0.000
REMARK  3 active torsions:
REMARK  status: ('A' for Active; 'I' for Inactive)
REMARK    1  A    between atoms: N_3  and  C_1 
REMARK       I    between atoms: C_2  and  N_3 
REMARK       I    between atoms: N_14  and  C_2 
REMARK    2  A    between atoms: C_16  and  N_14 
REMARK    3  A    between atoms: C_17  and  C_16 
ROOT
ATOM      1  C   UNL d   1      46.565 -18.881  42.553  0.00  0.00     0.127 A 
ATOM      2  C   UNL d   1      46.587 -18.657  41.450  0.00  0.00    -0.006 A 
ATOM      3  C   UNL d   1      46.634 -20.190  42.172  0.00  0.00     0.046 A 
ATOM      4  C   UNL d   1      46.617 -19.212  41.255  0.00  0.00    -0.006 A 
ATOM      5  C   UNL d   1      46.577 -18.663  41.780  0.00  0.00    -0.001 A 
ATOM      6  C   UNL d   1      46.534 -18.176  42.540  0.00  0.00    -0.001 A 
ATOM      7  C   UNL d   1      46.591 -19.554  42.695  0.00  0.00     0.040 A 
ATOM      8  C   UNL d   1      46.622 -19.620  41.733  0.00  0.00    -0.022 A 
ATOM      9  C   UNL d   1      46.645 -19.963  41.447  0.00  0.00    -0.022 A 
ATOM     10  C   UNL d   1      46.631 -18.680  39.990  0.00  0.00    -0.001 A 
ENDROOT
BRANCH   1  11
ATOM     11  N   UNL d   1      46.556 -19.246  43.409  0.00  0.00    -0.213 NA
ATOM     12  C   UNL d   1      46.423 -18.700  44.120  0.00  0.00     0.365 C 
ATOM     13  O   UNL d   1      46.414 -19.053  44.953  0.00  0.00    -0.243 OA
ATOM     14  N   UNL d   1      46.291 -17.750  44.004  0.00  0.00    -0.186 NA
BRANCH  14  15
ATOM     15  C   UNL d   1      46.158 -17.221  44.740  0.00  0.00     0.149 C 
BRANCH  15  16
ATOM     16  C   UNL d   1      45.533 -16.555  44.721  0.00  0.00     0.255 C 
ATOM     17  O   UNL d   1      45.722 -15.709  44.354  0.00  0.00    -0.281 OA
ENDBRANCH  15  16
ENDBRANCH  14  15
ENDBRANCH   1  11
TORSDOF 3
ENDMDL
MODEL 2
REMARK VINA RESULT:      11.3      7.062      7.529
REMARK  3 active torsions:
REMARK  status: ('A' for Active; 'I' for Inactive)
REMARK    1  A    between atoms: N_3  and  C_1 
REMARK       I    between atoms: C_2  and  N_3 
REMARK       I    between atoms: N_14  and  C_2 
REMARK    2  A    between atoms: C_16  and  N_14 
REMARK    3  A    between atoms: C_17  and  C_16 
ROOT
ATOM      1  C   UNL d   1      45.189 -15.187  37.018  0.00  0.00     0.127 A 
ATOM      2  C   UNL d   1      45.643 -14.175  37.212  0.00  0.00    -0.006 A 
ATOM      3  C   UNL d   1      46.407 -15.505  36.489  0.00  0.00     0.046 A 
ATOM      4  C   UNL d   1      46.179 -14.282  36.991  0.00  0.00    -0.006 A 
ATOM      5  C   UNL d   1      45.460 -14.449  37.180  0.00  0.00    -0.001 A 
ATOM      6  C   UNL d   1      44.657 -14.838  37.322  0.00  0.00    -0.001 A 
ATOM      7  C   UNL d   1      45.624 -15.627  36.716  0.00  0.00     0.040 A 
ATOM      8  C   UNL d   1      46.220 -14.870  36.774  0.00  0.00    -0.022 A 
ATOM      9  C   UNL d   1      46.644 -14.801  36.652  0.00  0.00    -0.022 A 
ATOM     10  C   UNL d   1      46.488 -12.989  37.332  0.00  0.00    -0.001 A 
ENDROOT
BRANCH   1  11
ATOM     11  N   UNL d   1      44.983 -16.064  36.785  0.00  0.00    -0.213 NA
ATOM     12  C   UNL d   1      44.131 -16.273  36.562  0.00  0.00     0.365 C 
ATOM     13  O   UNL d   1      43.929 -17.125  36.336  0.00  0.00    -0.243 OA
ATOM     14  N   UNL d   1      43.435 -15.603  36.563  0.00  0.00    -0.186 NA
BRANCH  14  15
ATOM     15  C   UNL d   1      42.581 -15.841  36.333  0.00  0.00     0.149 C 
BRANCH  15  16
ATOM     16  C   UNL d   1      41.883 -15.279  36.511  0.00  0.00     0.255 C 
ATOM     17  O   UNL d   1      41.556 -15.155  37.385  0.00  0.00    -0.281 OA
ENDBRANCH  15  16
ENDBRANCH  14  15
ENDBRANCH   1  11
TORSDOF 3
ENDMDL
