MODEL 1
REMARK VINA RESULT:      -3.1      0.000      0.000
REMARK  4 active torsions:
REMARK  status: ('A' for Active; 'I' for Inactive)
REMARK    1  A    between atoms: C_4  and  C_1 
REMARK    2  A    between atoms: C_7  and  C_4 
REMARK    3  A    between atoms: N_10  and  C_7 
REMARK    4  A    between atoms: C_11  and  N_10 
ROOT
ATOM      1  C   UNL d   1      32.021  16.866 -23.780  0.00  0.00     0.122 C 
ATOM      2  C   UNL d   1      32.539  16.228 -23.780  0.00  0.00     0.106 C 
ATOM      3  N   UNL d   1      33.058  15.590 -23.780  0.00  0.00    -0.191 NA
ENDROOT
BRANCH   1   4
ATOM      4  C   UNL d   1      32.306  17.630 -23.666  0.00  0.00     0.159 A 
ATOM      5  N   UNL d   1      32.474  17.983 -22.939  0.00  0.00    -0.226 NA
ATOM      6  C   UNL d   1      32.744  18.742 -23.082  0.00  0.00     0.099 A 
ATOM      7  C   UNL d   1      32.993  19.349 -22.574  0.00  0.00     0.021 A 
ATOM      8  C   UNL d   1      32.745  18.864 -23.897  0.00  0.00     0.083 A 
ATOM      9  C   UNL d   1      33.240  20.072 -22.890  0.00  0.00     0.002 A 
ATOM     10  C   UNL d   1      33.241  20.194 -23.705  0.00  0.00     0.002 A 
ATOM     11  C   UNL d   1      32.994  19.595 -24.212  0.00  0.00     0.019 A 
ATOM     12  N   UNL d   1      32.475  18.181 -24.260  0.00  0.00    -0.287 N 
ATOM     13  C   UNL d   1      32.385  18.054 -25.074  0.00  0.00     0.101 C 
ENDBRANCH   1   4
BRANCH   1  14
ATOM     14  C   UNL d   1      31.216  16.739 -23.895  0.00  0.00     0.114 C 
BRANCH  14  15
ATOM     15  N   UNL d   1      30.870  16.032 -23.651  0.00  0.00    -0.225 NA
BRANCH  15  16
ATOM     16  C   UNL d   1      30.047  15.962 -23.629  0.00  0.00     0.163 A 
ATOM     17  N   UNL d   1      29.583  16.305 -24.217  0.00  0.00    -0.225 NA
ATOM     18  C   UNL d   1      28.762  16.234 -24.192  0.00  0.00     0.101 A 
ATOM     19  C   UNL d   1      28.406  15.816 -23.574  0.00  0.00     0.021 A 
ATOM     20  C   UNL d   1      28.874  15.467 -22.975  0.00  0.00     0.005 A 
ATOM     21  C   UNL d   1      29.697  15.545 -23.010  0.00  0.00     0.039 A 
ENDBRANCH  15  16
ENDBRANCH  14  15
ENDBRANCH   1  14
TORSDOF 4
ENDMDL
MODEL 2
REMARK VINA RESULT:      -2.5      1.338      4.378
REMARK  4 active torsions:
REMARK  status: ('A' for Active; 'I' for Inactive)
REMARK    1  A    between atoms: C_4  and  C_1 
REMARK    2  A    between atoms: C_7  and  C_4 
REMARK    3  A    between atoms: N_10  and  C_7 
REMARK    4  A    between atoms: C_11  and  N_10 
ROOT
ATOM      1  C   UNL d   1      32.605  18.640 -23.722  0.00  0.00     0.122 C 
ATOM      2  C   UNL d   1      32.917  18.994 -24.395  0.00  0.00     0.106 C 
ATOM      3  N   UNL d   1      33.228  19.348 -25.069  0.00  0.00    -0.191 NA
ENDROOT
BRANCH   1   4
ATOM      4  C   UNL d   1      32.115  17.981 -23.792  0.00  0.00     0.159 A 
ATOM      5  N   UNL d   1      31.326  17.983 -24.033  0.00  0.00    -0.226 NA
ATOM      6  C   UNL d   1      31.054  17.212 -24.022  0.00  0.00     0.099 A 
ATOM      7  C   UNL d   1      30.318  16.878 -24.207  0.00  0.00     0.021 A 
ATOM      8  C   UNL d   1      31.672  16.726 -23.774  0.00  0.00     0.083 A 
ATOM      9  C   UNL d   1      30.209  16.062 -24.140  0.00  0.00     0.002 A 
ATOM     10  C   UNL d   1      30.827  15.576 -23.892  0.00  0.00     0.002 A 
ATOM     11  C   UNL d   1      31.559  15.903 -23.708  0.00  0.00     0.019 A 
ATOM     12  N   UNL d   1      32.328  17.197 -23.631  0.00  0.00    -0.287 N 
ATOM     13  C   UNL d   1      33.073  16.943 -23.372  0.00  0.00     0.101 C 
ENDBRANCH   1   4
BRANCH   1  14
ATOM     14  C   UNL d   1      32.783  18.944 -22.979  0.00  0.00     0.114 C 
BRANCH  14  15
ATOM     15  N   UNL d   1      33.068  19.714 -22.906  0.00  0.00    -0.225 NA
BRANCH  15  16
ATOM     16  C   UNL d   1      32.992  20.115 -22.188  0.00  0.00     0.163 A 
ATOM     17  N   UNL d   1      32.672  20.874 -22.165  0.00  0.00    -0.225 NA
ATOM     18  C   UNL d   1      32.598  21.272 -21.447  0.00  0.00     0.101 A 
ATOM     19  C   UNL d   1      32.845  20.905 -20.749  0.00  0.00     0.021 A 
ATOM     20  C   UNL d   1      33.171  20.135 -20.768  0.00  0.00     0.005 A 
ATOM     21  C   UNL d   1      33.241  19.745 -21.494  0.00  0.00     0.039 A 
ENDBRANCH  15  16
ENDBRANCH  14  15
ENDBRANCH   1  14
TORSDOF 4
ENDMDL
MODEL 3
REMARK VINA RESULT:      -0.8      1.978      4.715
REMARK  4 active torsions:
REMARK  status: ('A' for Active; 'I' for Inactive)
REMARK    1  A    between atoms: C_4  and  C_1 
REMARK    2  A    between atoms: C_7  and  C_4 
REMARK    3  A    between atoms: N_10  and  C_7 
REMARK    4  A    between atoms: C_11  and  N_10 
ROOT
ATOM      1  C   UNL d   1      32.899  19.661 -23.243  0.00  0.00     0.122 C 
ATOM      2  C   UNL d   1      33.070  20.093 -23.921  0.00  0.00     0.106 C 
ATOM      3  N   UNL d   1      33.241  20.525 -24.600  0.00  0.00    -0.191 NA
ENDROOT
BRANCH   1   4
ATOM      4  C   UNL d   1      32.807  18.844 -23.287  0.00  0.00     0.159 A 
ATOM      5  N   UNL d   1      33.240  18.282 -22.866  0.00  0.00    -0.226 NA
ATOM      6  C   UNL d   1      32.967  17.540 -23.077  0.00  0.00     0.099 A 
ATOM      7  C   UNL d   1      33.188  16.777 -22.839  0.00  0.00     0.021 A 
ATOM      8  C   UNL d   1      32.364  17.637 -23.630  0.00  0.00     0.083 A 
ATOM      9  C   UNL d   1      32.801  16.120 -23.158  0.00  0.00     0.002 A 
ATOM     10  C   UNL d   1      32.197  16.217 -23.711  0.00  0.00     0.002 A 
ATOM     11  C   UNL d   1      31.975  16.972 -23.950  0.00  0.00     0.019 A 
ATOM     12  N   UNL d   1      32.262  18.440 -23.762  0.00  0.00    -0.287 N 
ATOM     13  C   UNL d   1      31.715  18.793 -24.275  0.00  0.00     0.101 C 
ENDBRANCH   1   4
BRANCH   1  14
ATOM     14  C   UNL d   1      32.820  20.047 -22.521  0.00  0.00     0.114 C 
BRANCH  14  15
ATOM     15  N   UNL d   1      32.935  20.862 -22.473  0.00  0.00    -0.225 NA
BRANCH  15  16
ATOM     16  C   UNL d   1      32.785  21.258 -21.765  0.00  0.00     0.163 A 
ATOM     17  N   UNL d   1      32.215  20.976 -21.240  0.00  0.00    -0.225 NA
ATOM     18  C   UNL d   1      32.068  21.373 -20.534  0.00  0.00     0.101 A 
ATOM     19  C   UNL d   1      32.494  22.058 -20.353  0.00  0.00     0.021 A 
ATOM     20  C   UNL d   1      33.072  22.348 -20.882  0.00  0.00     0.005 A 
ATOM     21  C   UNL d   1      33.213  21.941 -21.589  0.00  0.00     0.039 A 
ENDBRANCH  15  16
ENDBRANCH  14  15
ENDBRANCH   1  14
TORSDOF 4
ENDMDL
MODEL 4
REMARK VINA RESULT:      -0.2      1.583      2.817
REMARK  4 active torsions:
REMARK  status: ('A' for Active; 'I' for Inactive)
REMARK    1  A    between atoms: C_4  and  C_1 
REMARK    2  A    between atoms: C_7  and  C_4 
REMARK    3  A    between atoms: N_10  and  C_7 
REMARK    4  A    between atoms: C_11  and  N_10 
ROOT
ATOM      1  C   UNL d   1      32.601  19.358 -23.288  0.00  0.00     0.122 C 
ATOM      2  C   UNL d   1      32.920  19.585 -24.011  0.00  0.00     0.106 C 
ATOM      3  N   UNL d   1      33.241  19.812 -24.733  0.00  0.00    -0.191 NA
ENDROOT
BRANCH   1   4
ATOM      4  C   UNL d   1      32.688  19.842 -22.627  0.00  0.00     0.159 A 
ATOM      5  N   UNL d   1      32.499  20.644 -22.582  0.00  0.00    -0.226 NA
ATOM      6  C   UNL d   1      32.674  20.905 -21.826  0.00  0.00     0.099 A 
ATOM      7  C   UNL d   1      32.601  21.646 -21.463  0.00  0.00     0.021 A 
ATOM      8  C   UNL d   1      32.973  20.267 -21.399  0.00  0.00     0.083 A 
ATOM      9  C   UNL d   1      32.829  21.740 -20.674  0.00  0.00     0.002 A 
ATOM     10  C   UNL d   1      33.128  21.102 -20.246  0.00  0.00     0.002 A 
ATOM     11  C   UNL d   1      33.202  20.365 -20.604  0.00  0.00     0.019 A 
ATOM     12  N   UNL d   1      32.984  19.610 -21.889  0.00  0.00    -0.287 N 
ATOM     13  C   UNL d   1      33.241  18.847 -21.691  0.00  0.00     0.101 C 
ENDBRANCH   1   4
BRANCH   1  14
ATOM     14  C   UNL d   1      32.193  18.646 -23.226  0.00  0.00     0.114 C 
BRANCH  14  15
ATOM     15  N   UNL d   1      32.195  18.113 -23.855  0.00  0.00    -0.225 NA
BRANCH  15  16
ATOM     16  C   UNL d   1      31.625  17.517 -23.891  0.00  0.00     0.163 A 
ATOM     17  N   UNL d   1      30.917  17.640 -24.294  0.00  0.00    -0.225 NA
ATOM     18  C   UNL d   1      30.350  17.043 -24.329  0.00  0.00     0.101 A 
ATOM     19  C   UNL d   1      30.494  16.319 -23.957  0.00  0.00     0.021 A 
ATOM     20  C   UNL d   1      31.211  16.191 -23.547  0.00  0.00     0.005 A 
ATOM     21  C   UNL d   1      31.774  16.796 -23.518  0.00  0.00     0.039 A 
ENDBRANCH  15  16
ENDBRANCH  14  15
ENDBRANCH   1  14
TORSDOF 4
ENDMDL
