MODEL 1
REMARK VINA RESULT:      33.8      0.000      0.000
REMARK  5 active torsions:
REMARK  status: ('A' for Active; 'I' for Inactive)
REMARK    1  A    between atoms: C_2  and  C_1 
REMARK    2  A    between atoms: N_13  and  C_7 
REMARK    3  A    between atoms: C_12  and  C_21 
REMARK    4  A    between atoms: C_21  and  N_13 
REMARK    5  A    between atoms: O_24  and  C_22 
ROOT
ATOM      1  C   UNL d   1      14.564  13.330  -1.164  0.00  0.00     0.089 A 
ATOM      2  C   UNL d   1      15.174  13.052  -0.686  0.00  0.00     0.302 A 
ATOM      3  C   UNL d   1      14.452  14.146  -1.259  0.00  0.00     0.009 A 
ATOM      4  O   UNL d   1      15.674  13.589  -0.302  0.00  0.00    -0.273 OA
ATOM      5  C   UNL d   1      14.952  14.678  -0.875  0.00  0.00     0.025 A 
ATOM      6  C   UNL d   1      15.562  14.400  -0.398  0.00  0.00     0.103 A 
ATOM      7  O   UNL d   1      15.294  12.234  -0.584  0.00  0.00    -0.259 OA
ATOM      8  C   UNL d   1      14.838  15.486  -0.972  0.00  0.00     0.026 A 
ATOM      9  C   UNL d   1      16.060  14.929  -0.016  0.00  0.00     0.027 A 
ATOM     10  C   UNL d   1      15.345  16.017  -0.583  0.00  0.00     0.094 A 
ATOM     11  C   UNL d   1      15.949  15.742  -0.110  0.00  0.00     0.026 A 
ENDROOT
BRANCH   1  12
ATOM     12  C   UNL d   1      14.063  12.796  -1.548  0.00  0.00     0.140 A 
ATOM     13  S   UNL d   1      13.928  12.715  -2.363  0.00  0.00    -0.026 SA
ATOM     14  C   UNL d   1      13.383  12.106  -2.466  0.00  0.00     0.216 A 
ATOM     15  N   UNL d   1      13.186  11.816  -1.720  0.00  0.00    -0.121 NA
ATOM     16  N   UNL d   1      13.606  12.243  -1.158  0.00  0.00    -0.139 NA
BRANCH  14  17
ATOM     17  N   UNL d   1      13.083  11.830  -3.186  0.00  0.00    -0.216 NA
BRANCH  17  18
ATOM     18  C   UNL d   1      12.894  12.368  -3.783  0.00  0.00     0.126 C 
BRANCH  18  19
ATOM     19  C   UNL d   1      13.254  12.305  -4.528  0.00  0.00     0.119 A 
ATOM     20  O   UNL d   1      13.988  12.545  -4.818  0.00  0.00    -0.304 OA
ATOM     21  C   UNL d   1      14.037  12.330  -5.606  0.00  0.00     0.123 A 
ATOM     22  C   UNL d   1      13.344  11.959  -5.811  0.00  0.00     0.029 A 
ATOM     23  C   UNL d   1      12.849  11.938  -5.145  0.00  0.00     0.028 A 
ENDBRANCH  18  19
ENDBRANCH  17  18
ENDBRANCH  14  17
ENDBRANCH   1  12
BRANCH  10  24
ATOM     24  O   UNL d   1      15.224  16.827  -0.685  0.00  0.00    -0.328 OA
ATOM     25  C   UNL d   1      15.845  17.321  -0.924  0.00  0.00     0.181 C 
ENDBRANCH  10  24
TORSDOF 5
ENDMDL
