MODEL 1
REMARK VINA RESULT:      -3.7      0.000      0.000
REMARK  4 active torsions:
REMARK  status: ('A' for Active; 'I' for Inactive)
REMARK    1  A    between atoms: C_2  and  C_1 
REMARK       I    between atoms: N_7  and  C_2 
REMARK    2  A    between atoms: N_6  and  C_5 
REMARK    3  A    between atoms: C_10  and  N_7 
REMARK    4  A    between atoms: C_8  and  C_9 
ROOT
ATOM      1  C   UNL d   1      33.012  19.818 -23.005  0.00  0.00     0.021 A 
ATOM      2  C   UNL d   1      32.859  18.462 -23.429  0.00  0.00     0.085 A 
ATOM      3  C   UNL d   1      32.833  19.031 -22.832  0.00  0.00     0.021 A 
ATOM      4  C   UNL d   1      33.217  20.035 -23.775  0.00  0.00     0.002 A 
ATOM      5  C   UNL d   1      33.241  19.467 -24.363  0.00  0.00     0.002 A 
ATOM      6  C   UNL d   1      33.062  18.680 -24.190  0.00  0.00     0.019 A 
ENDROOT
BRANCH   1   7
ATOM      7  C   UNL d   1      32.985  20.390 -22.400  0.00  0.00     0.103 A 
ATOM      8  N   UNL d   1      32.708  20.187 -21.658  0.00  0.00    -0.147 NA
ATOM      9  N   UNL d   1      32.683  20.757 -21.061  0.00  0.00    -0.130 NA
ATOM     10  C   UNL d   1      32.936  21.527 -21.215  0.00  0.00     0.169 A 
ATOM     11  C   UNL d   1      33.215  21.726 -21.970  0.00  0.00     0.041 A 
ATOM     12  C   UNL d   1      33.238  21.160 -22.554  0.00  0.00     0.024 A 
BRANCH  10  13
ATOM     13  N   UNL d   1      32.912  22.094 -20.627  0.00  0.00    -0.288 N 
ATOM     14  C   UNL d   1      32.558  22.825 -20.775  0.00  0.00     0.082 A 
ATOM     15  C   UNL d   1      32.532  23.400 -20.184  0.00  0.00     0.019 A 
ATOM     16  C   UNL d   1      32.861  23.245 -19.444  0.00  0.00     0.003 A 
ATOM     17  C   UNL d   1      33.215  22.514 -19.294  0.00  0.00     0.019 A 
ATOM     18  C   UNL d   1      33.241  21.939 -19.886  0.00  0.00     0.082 A 
ENDBRANCH  10  13
ENDBRANCH   1   7
BRANCH   2  19
ATOM     19  N   UNL d   1      32.680  17.675 -23.256  0.00  0.00    -0.205 NA
ATOM     20  C   UNL d   1      32.030  17.315 -23.598  0.00  0.00     0.351 C 
ATOM     21  O   UNL d   1      31.552  17.742 -24.118  0.00  0.00    -0.261 OA
BRANCH  20  22
ATOM     22  C   UNL d   1      31.852  16.533 -23.426  0.00  0.00     0.474 C 
ATOM     23  F   UNL d   1      31.673  15.747 -23.253  0.00  0.00    -0.162 F 
ATOM     24  F   UNL d   1      31.074  16.748 -23.255  0.00  0.00    -0.162 F 
ATOM     25  F   UNL d   1      32.630  16.319 -23.597  0.00  0.00    -0.162 F 
ENDBRANCH  20  22
ENDBRANCH   2  19
TORSDOF 4
ENDMDL
MODEL 2
REMARK VINA RESULT:      -3.2      2.723      5.287
REMARK  4 active torsions:
REMARK  status: ('A' for Active; 'I' for Inactive)
REMARK    1  A    between atoms: C_2  and  C_1 
REMARK       I    between atoms: N_7  and  C_2 
REMARK    2  A    between atoms: N_6  and  C_5 
REMARK    3  A    between atoms: C_10  and  N_7 
REMARK    4  A    between atoms: C_8  and  C_9 
ROOT
ATOM      1  C   UNL d   1      33.060  20.296 -22.731  0.00  0.00     0.021 A 
ATOM      2  C   UNL d   1      33.191  21.346 -21.771  0.00  0.00     0.085 A 
ATOM      3  C   UNL d   1      33.100  20.544 -21.945  0.00  0.00     0.021 A 
ATOM      4  C   UNL d   1      33.110  20.849 -23.342  0.00  0.00     0.002 A 
ATOM      5  C   UNL d   1      33.200  21.642 -23.164  0.00  0.00     0.002 A 
ATOM      6  C   UNL d   1      33.241  21.890 -22.379  0.00  0.00     0.019 A 
ENDROOT
BRANCH   1   7
ATOM      7  C   UNL d   1      32.968  19.486 -22.903  0.00  0.00     0.103 A 
ATOM      8  N   UNL d   1      33.241  18.922 -22.377  0.00  0.00    -0.147 NA
ATOM      9  N   UNL d   1      33.147  18.121 -22.552  0.00  0.00    -0.130 NA
ATOM     10  C   UNL d   1      32.781  17.891 -23.254  0.00  0.00     0.169 A 
ATOM     11  C   UNL d   1      32.507  18.467 -23.783  0.00  0.00     0.041 A 
ATOM     12  C   UNL d   1      32.601  19.256 -23.606  0.00  0.00     0.024 A 
BRANCH  10  13
ATOM     13  N   UNL d   1      32.687  17.099 -23.431  0.00  0.00    -0.288 N 
ATOM     14  C   UNL d   1      32.076  16.670 -23.079  0.00  0.00     0.082 A 
ATOM     15  C   UNL d   1      31.977  15.870 -23.254  0.00  0.00     0.019 A 
ATOM     16  C   UNL d   1      32.491  15.497 -23.781  0.00  0.00     0.003 A 
ATOM     17  C   UNL d   1      33.103  15.925 -24.134  0.00  0.00     0.019 A 
ATOM     18  C   UNL d   1      33.200  16.726 -23.958  0.00  0.00     0.082 A 
ENDBRANCH  10  13
ENDBRANCH   1   7
BRANCH   2  19
ATOM     19  N   UNL d   1      33.232  21.594 -20.985  0.00  0.00    -0.205 NA
ATOM     20  C   UNL d   1      32.592  21.965 -20.636  0.00  0.00     0.351 C 
ATOM     21  O   UNL d   1      31.903  22.090 -21.074  0.00  0.00    -0.261 OA
BRANCH  20  22
ATOM     22  C   UNL d   1      32.632  22.212 -19.855  0.00  0.00     0.474 C 
ATOM     23  F   UNL d   1      32.673  22.461 -19.070  0.00  0.00    -0.162 F 
ATOM     24  F   UNL d   1      32.249  22.915 -20.058  0.00  0.00    -0.162 F 
ATOM     25  F   UNL d   1      33.015  21.510 -19.653  0.00  0.00    -0.162 F 
ENDBRANCH  20  22
ENDBRANCH   2  19
TORSDOF 4
ENDMDL
MODEL 3
REMARK VINA RESULT:      -3.1      1.022      1.514
REMARK  4 active torsions:
REMARK  status: ('A' for Active; 'I' for Inactive)
REMARK    1  A    between atoms: C_2  and  C_1 
REMARK       I    between atoms: N_7  and  C_2 
REMARK    2  A    between atoms: N_6  and  C_5 
REMARK    3  A    between atoms: C_10  and  N_7 
REMARK    4  A    between atoms: C_8  and  C_9 
ROOT
ATOM      1  C   UNL d   1      32.731  18.715 -23.566  0.00  0.00     0.021 A 
ATOM      2  C   UNL d   1      32.128  17.484 -23.967  0.00  0.00     0.085 A 
ATOM      3  C   UNL d   1      32.186  18.110 -23.433  0.00  0.00     0.021 A 
ATOM      4  C   UNL d   1      33.218  18.694 -24.232  0.00  0.00     0.002 A 
ATOM      5  C   UNL d   1      33.156  18.071 -24.758  0.00  0.00     0.002 A 
ATOM      6  C   UNL d   1      32.611  17.466 -24.626  0.00  0.00     0.019 A 
ENDROOT
BRANCH   1   7
ATOM      7  C   UNL d   1      32.787  19.347 -23.024  0.00  0.00     0.103 A 
ATOM      8  N   UNL d   1      32.451  20.070 -23.205  0.00  0.00    -0.147 NA
ATOM      9  N   UNL d   1      32.508  20.693 -22.665  0.00  0.00    -0.130 NA
ATOM     10  C   UNL d   1      32.903  20.584 -21.949  0.00  0.00     0.169 A 
ATOM     11  C   UNL d   1      33.241  19.848 -21.773  0.00  0.00     0.041 A 
ATOM     12  C   UNL d   1      33.181  19.237 -22.308  0.00  0.00     0.024 A 
BRANCH  10  13
ATOM     13  N   UNL d   1      32.962  21.198 -21.413  0.00  0.00    -0.288 N 
ATOM     14  C   UNL d   1      33.169  21.953 -21.676  0.00  0.00     0.082 A 
ATOM     15  C   UNL d   1      33.229  22.576 -21.138  0.00  0.00     0.019 A 
ATOM     16  C   UNL d   1      33.083  22.444 -20.337  0.00  0.00     0.003 A 
ATOM     17  C   UNL d   1      32.876  21.690 -20.074  0.00  0.00     0.019 A 
ATOM     18  C   UNL d   1      32.816  21.067 -20.612  0.00  0.00     0.082 A 
ENDBRANCH  10  13
ENDBRANCH   1   7
BRANCH   2  19
ATOM     19  N   UNL d   1      31.583  16.879 -23.835  0.00  0.00    -0.205 NA
ATOM     20  C   UNL d   1      30.835  16.918 -24.162  0.00  0.00     0.351 C 
ATOM     21  O   UNL d   1      30.626  17.567 -24.628  0.00  0.00    -0.261 OA
BRANCH  20  22
ATOM     22  C   UNL d   1      30.293  16.316 -24.031  0.00  0.00     0.474 C 
ATOM     23  F   UNL d   1      29.748  15.711 -23.898  0.00  0.00    -0.162 F 
ATOM     24  F   UNL d   1      30.596  16.210 -23.271  0.00  0.00    -0.162 F 
ATOM     25  F   UNL d   1      29.990  16.422 -24.791  0.00  0.00    -0.162 F 
ENDBRANCH  20  22
ENDBRANCH   2  19
TORSDOF 4
ENDMDL
MODEL 4
REMARK VINA RESULT:      -2.3      2.824      5.685
REMARK  4 active torsions:
REMARK  status: ('A' for Active; 'I' for Inactive)
REMARK    1  A    between atoms: C_2  and  C_1 
REMARK       I    between atoms: N_7  and  C_2 
REMARK    2  A    between atoms: N_6  and  C_5 
REMARK    3  A    between atoms: C_10  and  N_7 
REMARK    4  A    between atoms: C_8  and  C_9 
ROOT
ATOM      1  C   UNL d   1      31.807  17.830 -24.139  0.00  0.00     0.021 A 
ATOM      2  C   UNL d   1      32.770  18.666 -23.494  0.00  0.00     0.085 A 
ATOM      3  C   UNL d   1      32.049  18.263 -23.480  0.00  0.00     0.021 A 
ATOM      4  C   UNL d   1      32.285  17.799 -24.812  0.00  0.00     0.002 A 
ATOM      5  C   UNL d   1      32.998  18.199 -24.821  0.00  0.00     0.002 A 
ATOM      6  C   UNL d   1      33.240  18.633 -24.162  0.00  0.00     0.019 A 
ENDROOT
BRANCH   1   7
ATOM      7  C   UNL d   1      31.079  17.425 -24.122  0.00  0.00     0.103 A 
ATOM      8  N   UNL d   1      31.036  16.674 -23.798  0.00  0.00    -0.147 NA
ATOM      9  N   UNL d   1      30.313  16.276 -23.783  0.00  0.00    -0.130 NA
ATOM     10  C   UNL d   1      29.638  16.635 -24.093  0.00  0.00     0.169 A 
ATOM     11  C   UNL d   1      29.688  17.396 -24.419  0.00  0.00     0.041 A 
ATOM     12  C   UNL d   1      30.404  17.783 -24.431  0.00  0.00     0.024 A 
BRANCH  10  13
ATOM     13  N   UNL d   1      28.920  16.244 -24.079  0.00  0.00    -0.288 N 
ATOM     14  C   UNL d   1      28.635  15.888 -24.766  0.00  0.00     0.082 A 
ATOM     15  C   UNL d   1      27.911  15.492 -24.757  0.00  0.00     0.019 A 
ATOM     16  C   UNL d   1      27.472  15.453 -24.059  0.00  0.00     0.003 A 
ATOM     17  C   UNL d   1      27.757  15.809 -23.371  0.00  0.00     0.019 A 
ATOM     18  C   UNL d   1      28.481  16.205 -23.381  0.00  0.00     0.082 A 
ENDBRANCH  10  13
ENDBRANCH   1   7
BRANCH   2  19
ATOM     19  N   UNL d   1      33.012  19.099 -22.836  0.00  0.00    -0.205 NA
ATOM     20  C   UNL d   1      32.734  19.859 -22.716  0.00  0.00     0.351 C 
ATOM     21  O   UNL d   1      32.209  20.192 -23.259  0.00  0.00    -0.261 OA
BRANCH  20  22
ATOM     22  C   UNL d   1      32.976  20.290 -22.061  0.00  0.00     0.474 C 
ATOM     23  F   UNL d   1      33.218  20.723 -21.403  0.00  0.00    -0.162 F 
ATOM     24  F   UNL d   1      33.241  20.894 -22.557  0.00  0.00    -0.162 F 
ATOM     25  F   UNL d   1      32.710  19.686 -21.566  0.00  0.00    -0.162 F 
ENDBRANCH  20  22
ENDBRANCH   2  19
TORSDOF 4
ENDMDL
MODEL 5
REMARK VINA RESULT:      -1.3      1.656      2.835
REMARK  4 active torsions:
REMARK  status: ('A' for Active; 'I' for Inactive)
REMARK    1  A    between atoms: C_2  and  C_1 
REMARK       I    between atoms: N_7  and  C_2 
REMARK    2  A    between atoms: N_6  and  C_5 
REMARK    3  A    between atoms: C_10  and  N_7 
REMARK    4  A    between atoms: C_8  and  C_9 
ROOT
ATOM      1  C   UNL d   1      32.805  21.938 -21.253  0.00  0.00     0.021 A 
ATOM      2  C   UNL d   1      32.973  20.898 -22.219  0.00  0.00     0.085 A 
ATOM      3  C   UNL d   1      32.945  21.145 -21.432  0.00  0.00     0.021 A 
ATOM      4  C   UNL d   1      32.693  22.485 -21.862  0.00  0.00     0.002 A 
ATOM      5  C   UNL d   1      32.722  22.235 -22.641  0.00  0.00     0.002 A 
ATOM      6  C   UNL d   1      32.862  21.442 -22.819  0.00  0.00     0.019 A 
ENDROOT
BRANCH   1   7
ATOM      7  C   UNL d   1      32.777  22.184 -20.457  0.00  0.00     0.103 A 
ATOM      8  N   UNL d   1      32.369  22.864 -20.254  0.00  0.00    -0.147 NA
ATOM      9  N   UNL d   1      32.344  23.104 -19.464  0.00  0.00    -0.130 NA
ATOM     10  C   UNL d   1      32.728  22.659 -18.885  0.00  0.00     0.169 A 
ATOM     11  C   UNL d   1      33.139  21.971 -19.099  0.00  0.00     0.041 A 
ATOM     12  C   UNL d   1      33.161  21.739 -19.879  0.00  0.00     0.024 A 
BRANCH  10  13
ATOM     13  N   UNL d   1      32.706  22.893 -18.102  0.00  0.00    -0.288 N 
ATOM     14  C   UNL d   1      33.240  22.572 -17.562  0.00  0.00     0.082 A 
ATOM     15  C   UNL d   1      33.220  22.806 -16.771  0.00  0.00     0.019 A 
ATOM     16  C   UNL d   1      32.665  23.362 -16.520  0.00  0.00     0.003 A 
ATOM     17  C   UNL d   1      32.130  23.685 -17.060  0.00  0.00     0.019 A 
ATOM     18  C   UNL d   1      32.151  23.450 -17.851  0.00  0.00     0.082 A 
ENDBRANCH  10  13
ENDBRANCH   1   7
BRANCH   2  19
ATOM     19  N   UNL d   1      33.114  20.105 -22.397  0.00  0.00    -0.205 NA
ATOM     20  C   UNL d   1      32.527  19.649 -22.740  0.00  0.00     0.351 C 
ATOM     21  O   UNL d   1      31.793  19.986 -22.907  0.00  0.00    -0.261 OA
BRANCH  20  22
ATOM     22  C   UNL d   1      32.667  18.861 -22.917  0.00  0.00     0.474 C 
ATOM     23  F   UNL d   1      32.807  18.068 -23.095  0.00  0.00    -0.162 F 
ATOM     24  F   UNL d   1      32.431  18.994 -23.696  0.00  0.00    -0.162 F 
ATOM     25  F   UNL d   1      32.903  18.727 -22.138  0.00  0.00    -0.162 F 
ENDBRANCH  20  22
ENDBRANCH   2  19
TORSDOF 4
ENDMDL
