MODEL 1
REMARK VINA RESULT:      21.9      0.000      0.000
REMARK  3 active torsions:
REMARK  status: ('A' for Active; 'I' for Inactive)
REMARK    1  A    between atoms: C_2  and  S_1 
REMARK    2  A    between atoms: N_3  and  S_1 
REMARK    3  A    between atoms: O_17  and  C_7 
ROOT
ATOM      1  S   UNL d   1     -57.627 -98.822 -44.199  0.00  0.00     0.273 S 
ATOM      2  O   UNL d   1     -57.924 -98.769 -44.983  0.00  0.00    -0.200 OA
ATOM      3  O   UNL d   1     -57.339 -98.874 -43.420  0.00  0.00    -0.200 OA
ENDROOT
BRANCH   1   4
ATOM      4  C   UNL d   1     -58.421 -98.811 -43.898  0.00  0.00     0.127 A 
ATOM      5  C   UNL d   1     -58.532 -98.795 -43.089  0.00  0.00     0.026 A 
ATOM      6  C   UNL d   1     -59.297 -98.783 -42.773  0.00  0.00     0.059 A 
ATOM      7 CL   UNL d   1     -59.405 -98.767 -41.949  0.00  0.00    -0.082 Cl
ATOM      8  C   UNL d   1     -59.961 -98.789 -43.281  0.00  0.00     0.013 A 
ATOM      9  C   UNL d   1     -59.829 -98.805 -44.113  0.00  0.00     0.026 A 
ATOM     10  C   UNL d   1     -59.061 -98.816 -44.412  0.00  0.00     0.106 A 
BRANCH  10  11
ATOM     11  O   UNL d   1     -58.953 -98.833 -45.237  0.00  0.00    -0.327 OA
ATOM     12  C   UNL d   1     -59.609 -98.810 -45.739  0.00  0.00     0.181 C 
ENDBRANCH  10  11
ENDBRANCH   1   4
BRANCH   1  13
ATOM     13  N   UNL d   1     -56.852 -98.834 -44.481  0.00  0.00    -0.226 N 
ATOM     14  C   UNL d   1     -56.686 -98.756 -45.281  0.00  0.00     0.111 A 
ATOM     15  C   UNL d   1     -55.911 -98.767 -45.563  0.00  0.00     0.100 A 
ATOM     16  N   UNL d   1     -55.284 -98.859 -45.037  0.00  0.00    -0.299 N 
ATOM     17  C   UNL d   1     -55.445 -98.937 -44.234  0.00  0.00     0.100 A 
ATOM     18  C   UNL d   1     -54.714 -98.864 -45.273  0.00  0.00     0.100 C 
ATOM     19  C   UNL d   1     -56.221 -98.925 -43.956  0.00  0.00     0.111 A 
ENDBRANCH   1  13
TORSDOF 3
ENDMDL
