MODEL 1
REMARK VINA RESULT:      13.6      0.000      0.000
REMARK  4 active torsions:
REMARK  status: ('A' for Active; 'I' for Inactive)
REMARK    1  A    between atoms: N_10  and  C_3 
REMARK    2  A    between atoms: C_12  and  C_5 
REMARK    3  A    between atoms: C_20  and  N_11 
REMARK    4  A    between atoms: C_24  and  C_20 
ROOT
ATOM      1  N   UNL d   1     -41.972-122.448 -53.306  0.00  0.00    -0.196 N 
ATOM      2  C   UNL d   1     -41.891-122.021 -54.013  0.00  0.00     0.167 A 
ATOM      3  C   UNL d   1     -41.837-122.065 -52.592  0.00  0.00     0.152 A 
ATOM      4  N   UNL d   1     -42.313-123.597 -54.045  0.00  0.00    -0.163 NA
ATOM      5  C   UNL d   1     -42.020-122.378 -54.727  0.00  0.00     0.055 A 
ATOM      6  N   UNL d   1     -41.676-121.221 -53.990  0.00  0.00    -0.227 NA
ATOM      7  C   UNL d   1     -41.625-121.278 -52.566  0.00  0.00     0.052 A 
ATOM      8  C   UNL d   1     -42.233-123.173 -54.748  0.00  0.00     0.104 A 
ATOM      9  C   UNL d   1     -41.545-120.853 -53.269  0.00  0.00     0.086 A 
ATOM     10  C   UNL d   1     -41.493-120.911 -51.835  0.00  0.00     0.004 A 
ATOM     11  C   UNL d   1     -42.364-123.541 -55.454  0.00  0.00     0.023 C 
ATOM     12  C   UNL d   1     -41.331-120.058 -53.248  0.00  0.00     0.019 A 
ATOM     13  C   UNL d   1     -41.277-120.104 -51.818  0.00  0.00     0.000 A 
ATOM     14  C   UNL d   1     -41.196-119.680 -52.521  0.00  0.00     0.002 A 
ENDROOT
BRANCH   3  15
ATOM     15  N   UNL d   1     -41.918-122.496 -51.871  0.00  0.00    -0.286 N 
ATOM     16  C   UNL d   1     -42.658-122.373 -51.465  0.00  0.00     0.101 A 
ATOM     17  C   UNL d   1     -42.814-122.773 -50.731  0.00  0.00     0.100 A 
ATOM     18  N   UNL d   1     -42.230-123.297 -50.400  0.00  0.00    -0.297 N 
ATOM     19  C   UNL d   1     -41.502-123.417 -50.803  0.00  0.00     0.100 A 
ATOM     20  C   UNL d   1     -41.346-123.014 -51.540  0.00  0.00     0.101 A 
BRANCH  18  21
ATOM     21  C   UNL d   1     -42.385-123.695 -49.671  0.00  0.00     0.126 C 
BRANCH  21  22
ATOM     22  C   UNL d   1     -42.085-123.396 -48.936  0.00  0.00     0.253 C 
ATOM     23  O   UNL d   1     -41.495-123.814 -48.505  0.00  0.00    -0.281 OA
ENDBRANCH  21  22
ENDBRANCH  18  21
ENDBRANCH   3  15
BRANCH   5  24
ATOM     24  C   UNL d   1     -41.939-121.954 -55.430  0.00  0.00     0.004 A 
ATOM     25  C   UNL d   1     -42.595-121.610 -55.767  0.00  0.00     0.000 A 
ATOM     26  C   UNL d   1     -42.515-121.185 -56.470  0.00  0.00     0.000 A 
ATOM     27  C   UNL d   1     -41.779-121.112 -56.825  0.00  0.00     0.000 A 
ATOM     28  C   UNL d   1     -41.124-121.462 -56.478  0.00  0.00     0.000 A 
ATOM     29  C   UNL d   1     -41.204-121.887 -55.775  0.00  0.00     0.000 A 
ENDBRANCH   5  24
TORSDOF 4
ENDMDL
