MODEL 1
REMARK VINA RESULT:      47.2      0.000      0.000
REMARK  6 active torsions:
REMARK  status: ('A' for Active; 'I' for Inactive)
REMARK    1  A    between atoms: C_2  and  C_1 
REMARK    2  A    between atoms: N_13  and  C_8 
REMARK    3  A    between atoms: C_12  and  C_20 
REMARK    4  A    between atoms: C_20  and  N_13 
REMARK    5  A    between atoms: O_21  and  C_16 
REMARK    6  A    between atoms: C_25  and  O_21 
ROOT
ATOM      1  C   UNL d   1      13.476  14.537  -4.519  0.00  0.00     0.089 A 
ATOM      2  C   UNL d   1      13.837  14.539  -3.778  0.00  0.00     0.302 A 
ATOM      3  O   UNL d   1      13.842  13.847  -3.315  0.00  0.00    -0.271 OA
ATOM      4  C   UNL d   1      13.119  13.843  -4.800  0.00  0.00     0.009 A 
ATOM      5  C   UNL d   1      13.485  13.161  -3.602  0.00  0.00     0.126 A 
ATOM      6  C   UNL d   1      13.124  13.159  -4.343  0.00  0.00     0.025 A 
ATOM      7  O   UNL d   1      14.202  15.233  -3.480  0.00  0.00    -0.259 OA
ATOM      8  C   UNL d   1      13.492  12.477  -3.140  0.00  0.00     0.123 A 
ATOM      9  C   UNL d   1      12.769  12.472  -4.625  0.00  0.00     0.002 A 
ATOM     10  C   UNL d   1      12.775  11.780  -4.160  0.00  0.00     0.002 A 
ATOM     11  C   UNL d   1      13.132  11.783  -3.426  0.00  0.00     0.027 A 
ENDROOT
BRANCH   1  12
ATOM     12  C   UNL d   1      13.471  15.220  -4.976  0.00  0.00     0.140 A 
ATOM     13  S   UNL d   1      13.792  15.970  -4.793  0.00  0.00    -0.026 SA
ATOM     14  C   UNL d   1      13.645  16.473  -5.429  0.00  0.00     0.216 A 
ATOM     15  N   UNL d   1      13.233  16.033  -6.003  0.00  0.00    -0.121 NA
ATOM     16  N   UNL d   1      13.127  15.263  -5.723  0.00  0.00    -0.139 NA
BRANCH  14  17
ATOM     17  N   UNL d   1      13.862  17.267  -5.493  0.00  0.00    -0.216 NA
BRANCH  17  18
ATOM     18  C   UNL d   1      13.620  17.709  -6.152  0.00  0.00     0.126 C 
BRANCH  18  19
ATOM     19  C   UNL d   1      13.756  18.522  -6.178  0.00  0.00     0.119 A 
ATOM     20  O   UNL d   1      14.424  18.980  -6.030  0.00  0.00    -0.304 OA
ATOM     21  C   UNL d   1      14.227  19.769  -6.146  0.00  0.00     0.123 A 
ATOM     22  C   UNL d   1      13.441  19.808  -6.367  0.00  0.00     0.029 A 
ATOM     23  C   UNL d   1      13.141  19.035  -6.389  0.00  0.00     0.028 A 
ENDBRANCH  18  19
ENDBRANCH  17  18
ENDBRANCH  14  17
ENDBRANCH   1  12
BRANCH   8  24
ATOM     24  O   UNL d   1      13.855  12.487  -2.399  0.00  0.00    -0.303 OA
BRANCH  24  25
ATOM     25  C   UNL d   1      13.884  11.788  -1.952  0.00  0.00     0.123 C 
ATOM     26  C   UNL d   1      13.825  11.830  -1.130  0.00  0.00     0.029 C 
ENDBRANCH  24  25
ENDBRANCH   8  24
TORSDOF 6
ENDMDL
