MODEL 1
REMARK VINA RESULT:      -5.5      0.000      0.000
REMARK  1 active torsions:
REMARK  status: ('A' for Active; 'I' for Inactive)
REMARK    1  A    between atoms: C_8  and  CA_5 
ROOT
ATOM      1  N   UNL d   1      55.861   0.677  32.941  0.00  0.00    -0.224 NA
ATOM      2  C   UNL d   1      56.320   0.270  32.399  0.00  0.00     0.162 A 
ATOM      3  N   UNL d   1      56.798   0.682  31.878  0.00  0.00    -0.225 NA
ATOM      4  C   UNL d   1      56.296  -0.555  32.381  0.00  0.00     0.036 A 
ATOM      5  CA  UNL d   1      55.377   0.274  33.469  0.00  0.00     0.125 A 
ATOM      6  C   UNL d   1      55.815  -0.967  32.906  0.00  0.00     0.005 A 
ATOM      7  C   UNL d   1      55.354  -0.551  33.452  0.00  0.00     0.023 A 
ATOM      8  C   UNL d   1      57.258   0.266  31.332  0.00  0.00     0.101 A 
ATOM      9  C   UNL d   1      56.751  -0.971  31.842  0.00  0.00     0.005 A 
ATOM     10  C   UNL d   1      57.235  -0.558  31.315  0.00  0.00     0.021 A 
ENDROOT
BRANCH   5  11
ATOM     11  C   UNL d   1      54.922   0.681  34.008  0.00  0.00     0.253 C 
ATOM     12  O   UNL d   1      55.085   0.617  34.814  0.00  0.00    -0.281 OA
ENDBRANCH   5  11
TORSDOF 1
ENDMDL
MODEL 2
REMARK VINA RESULT:      -4.6      1.411      2.041
REMARK  1 active torsions:
REMARK  status: ('A' for Active; 'I' for Inactive)
REMARK    1  A    between atoms: C_8  and  CA_5 
ROOT
ATOM      1  N   UNL d   1      56.840  -1.100  31.666  0.00  0.00    -0.224 NA
ATOM      2  C   UNL d   1      57.268  -0.622  31.158  0.00  0.00     0.162 A 
ATOM      3  N   UNL d   1      57.688  -0.956  30.539  0.00  0.00    -0.225 NA
ATOM      4  C   UNL d   1      57.273   0.195  31.273  0.00  0.00     0.036 A 
ATOM      5  CA  UNL d   1      56.415  -0.776  32.290  0.00  0.00     0.125 A 
ATOM      6  C   UNL d   1      56.851   0.529  31.895  0.00  0.00     0.005 A 
ATOM      7  C   UNL d   1      56.420   0.041  32.405  0.00  0.00     0.023 A 
ATOM      8  C   UNL d   1      58.119  -0.469  30.029  0.00  0.00     0.101 A 
ATOM      9  C   UNL d   1      57.699   0.682  30.770  0.00  0.00     0.005 A 
ATOM     10  C   UNL d   1      58.124   0.348  30.144  0.00  0.00     0.021 A 
ENDROOT
BRANCH   5  11
ATOM     11  C   UNL d   1      55.990  -1.253  32.794  0.00  0.00     0.253 C 
ATOM     12  O   UNL d   1      55.285  -0.978  33.123  0.00  0.00    -0.281 OA
ENDBRANCH   5  11
TORSDOF 1
ENDMDL
MODEL 3
REMARK VINA RESULT:      -4.6      8.770      9.231
REMARK  1 active torsions:
REMARK  status: ('A' for Active; 'I' for Inactive)
REMARK    1  A    between atoms: C_8  and  CA_5 
ROOT
ATOM      1  N   UNL d   1      60.654  -7.200  35.483  0.00  0.00    -0.224 NA
ATOM      2  C   UNL d   1      60.401  -7.943  35.251  0.00  0.00     0.162 A 
ATOM      3  N   UNL d   1      60.843  -8.376  34.715  0.00  0.00    -0.225 NA
ATOM      4  C   UNL d   1      59.701  -8.251  35.559  0.00  0.00     0.036 A 
ATOM      5  CA  UNL d   1      60.219  -6.757  36.020  0.00  0.00     0.125 A 
ATOM      6  C   UNL d   1      59.257  -7.814  36.098  0.00  0.00     0.005 A 
ATOM      7  C   UNL d   1      59.518  -7.064  36.329  0.00  0.00     0.023 A 
ATOM      8  C   UNL d   1      60.583  -9.126  34.484  0.00  0.00     0.101 A 
ATOM      9  C   UNL d   1      59.439  -8.993  35.333  0.00  0.00     0.005 A 
ATOM     10  C   UNL d   1      59.882  -9.433  34.792  0.00  0.00     0.021 A 
ENDROOT
BRANCH   5  11
ATOM     11  C   UNL d   1      60.472  -6.018  36.250  0.00  0.00     0.253 C 
ATOM     12  O   UNL d   1      60.270  -5.356  35.800  0.00  0.00    -0.281 OA
ENDBRANCH   5  11
TORSDOF 1
ENDMDL
MODEL 4
REMARK VINA RESULT:      -4.2      2.431      3.633
REMARK  1 active torsions:
REMARK  status: ('A' for Active; 'I' for Inactive)
REMARK    1  A    between atoms: C_8  and  CA_5 
ROOT
ATOM      1  N   UNL d   1      57.682  -0.900  30.486  0.00  0.00    -0.224 NA
ATOM      2  C   UNL d   1      57.219  -0.737  31.141  0.00  0.00     0.162 A 
ATOM      3  N   UNL d   1      56.841  -1.347  31.536  0.00  0.00    -0.225 NA
ATOM      4  C   UNL d   1      57.137   0.042  31.400  0.00  0.00     0.036 A 
ATOM      5  CA  UNL d   1      58.066  -0.296  30.082  0.00  0.00     0.125 A 
ATOM      6  C   UNL d   1      57.518   0.654  31.002  0.00  0.00     0.005 A 
ATOM      7  C   UNL d   1      57.984   0.483  30.341  0.00  0.00     0.023 A 
ATOM      8  C   UNL d   1      56.375  -1.177  32.197  0.00  0.00     0.101 A 
ATOM      9  C   UNL d   1      56.677   0.215  32.055  0.00  0.00     0.005 A 
ATOM     10  C   UNL d   1      56.293  -0.398  32.456  0.00  0.00     0.021 A 
ENDROOT
BRANCH   5  11
ATOM     11  C   UNL d   1      58.526  -0.460  29.431  0.00  0.00     0.253 C 
ATOM     12  O   UNL d   1      58.369  -0.085  28.713  0.00  0.00    -0.281 OA
ENDBRANCH   5  11
TORSDOF 1
ENDMDL
MODEL 5
REMARK VINA RESULT:      -3.7      9.132      9.743
REMARK  1 active torsions:
REMARK  status: ('A' for Active; 'I' for Inactive)
REMARK    1  A    between atoms: C_8  and  CA_5 
ROOT
ATOM      1  N   UNL d   1      60.817  -8.322  34.764  0.00  0.00    -0.224 NA
ATOM      2  C   UNL d   1      60.434  -7.820  35.285  0.00  0.00     0.162 A 
ATOM      3  N   UNL d   1      60.825  -7.166  35.584  0.00  0.00    -0.225 NA
ATOM      4  C   UNL d   1      59.655  -7.977  35.505  0.00  0.00     0.036 A 
ATOM      5  CA  UNL d   1      60.434  -8.981  34.457  0.00  0.00     0.125 A 
ATOM      6  C   UNL d   1      59.263  -8.635  35.204  0.00  0.00     0.005 A 
ATOM      7  C   UNL d   1      59.655  -9.138  34.678  0.00  0.00     0.023 A 
ATOM      8  C   UNL d   1      60.434  -6.663  36.109  0.00  0.00     0.101 A 
ATOM      9  C   UNL d   1      59.263  -7.481  36.026  0.00  0.00     0.005 A 
ATOM     10  C   UNL d   1      59.655  -6.820  36.330  0.00  0.00     0.021 A 
ENDROOT
BRANCH   5  11
ATOM     11  C   UNL d   1      60.817  -9.479  33.939  0.00  0.00     0.253 C 
ATOM     12  O   UNL d   1      60.669  -9.421  33.130  0.00  0.00    -0.281 OA
ENDBRANCH   5  11
TORSDOF 1
ENDMDL
MODEL 6
REMARK VINA RESULT:      -3.5      9.178      9.668
REMARK  1 active torsions:
REMARK  status: ('A' for Active; 'I' for Inactive)
REMARK    1  A    between atoms: C_8  and  CA_5 
ROOT
ATOM      1  N   UNL d   1      59.373  -8.254  35.983  0.00  0.00    -0.224 NA
ATOM      2  C   UNL d   1      59.787  -7.553  36.069  0.00  0.00     0.162 A 
ATOM      3  N   UNL d   1      59.401  -6.837  35.982  0.00  0.00    -0.225 NA
ATOM      4  C   UNL d   1      60.594  -7.574  36.242  0.00  0.00     0.036 A 
ATOM      5  CA  UNL d   1      59.751  -8.979  36.067  0.00  0.00     0.125 A 
ATOM      6  C   UNL d   1      60.981  -8.295  36.329  0.00  0.00     0.005 A 
ATOM      7  C   UNL d   1      60.557  -8.999  36.241  0.00  0.00     0.023 A 
ATOM      8  C   UNL d   1      59.824  -6.132  36.070  0.00  0.00     0.101 A 
ATOM      9  C   UNL d   1      61.017  -6.878  36.330  0.00  0.00     0.005 A 
ATOM     10  C   UNL d   1      60.630  -6.153  36.243  0.00  0.00     0.021 A 
ENDROOT
BRANCH   5  11
ATOM     11  C   UNL d   1      59.337  -9.674  35.982  0.00  0.00     0.253 C 
ATOM     12  O   UNL d   1      58.532  -9.698  36.163  0.00  0.00    -0.281 OA
ENDBRANCH   5  11
TORSDOF 1
ENDMDL
MODEL 7
REMARK VINA RESULT:      -3.3      9.245      9.746
REMARK  1 active torsions:
REMARK  status: ('A' for Active; 'I' for Inactive)
REMARK    1  A    between atoms: C_8  and  CA_5 
ROOT
ATOM      1  N   UNL d   1      59.432  -8.439  35.095  0.00  0.00    -0.224 NA
ATOM      2  C   UNL d   1      59.865  -8.820  34.514  0.00  0.00     0.162 A 
ATOM      3  N   UNL d   1      59.478  -9.219  33.913  0.00  0.00    -0.225 NA
ATOM      4  C   UNL d   1      60.689  -8.799  34.539  0.00  0.00     0.036 A 
ATOM      5  CA  UNL d   1      59.809  -8.035  35.703  0.00  0.00     0.125 A 
ATOM      6  C   UNL d   1      61.076  -8.397  35.144  0.00  0.00     0.005 A 
ATOM      7  C   UNL d   1      60.633  -8.014  35.728  0.00  0.00     0.023 A 
ATOM      8  C   UNL d   1      59.920  -9.603  33.329  0.00  0.00     0.101 A 
ATOM      9  C   UNL d   1      61.131  -9.177  33.963  0.00  0.00     0.005 A 
ATOM     10  C   UNL d   1      60.744  -9.582  33.354  0.00  0.00     0.021 A 
ENDROOT
BRANCH   5  11
ATOM     11  C   UNL d   1      59.376  -7.657  36.280  0.00  0.00     0.253 C 
ATOM     12  O   UNL d   1      59.371  -6.832  36.314  0.00  0.00    -0.281 OA
ENDBRANCH   5  11
TORSDOF 1
ENDMDL
MODEL 8
REMARK VINA RESULT:      -2.8      1.101      1.441
REMARK  1 active torsions:
REMARK  status: ('A' for Active; 'I' for Inactive)
REMARK    1  A    between atoms: C_8  and  CA_5 
ROOT
ATOM      1  N   UNL d   1      57.342   0.335  33.215  0.00  0.00    -0.224 NA
ATOM      2  C   UNL d   1      57.640   0.424  32.458  0.00  0.00     0.162 A 
ATOM      3  N   UNL d   1      58.435   0.584  32.349  0.00  0.00    -0.225 NA
ATOM      4  C   UNL d   1      57.136   0.351  31.809  0.00  0.00     0.036 A 
ATOM      5  CA  UNL d   1      56.545   0.174  33.337  0.00  0.00     0.125 A 
ATOM      6  C   UNL d   1      56.336   0.189  31.921  0.00  0.00     0.005 A 
ATOM      7  C   UNL d   1      56.041   0.101  32.688  0.00  0.00     0.023 A 
ATOM      8  C   UNL d   1      58.731   0.673  31.582  0.00  0.00     0.101 A 
ATOM      9  C   UNL d   1      57.424   0.438  31.048  0.00  0.00     0.005 A 
ATOM     10  C   UNL d   1      58.227   0.600  30.933  0.00  0.00     0.021 A 
ENDROOT
BRANCH   5  11
ATOM     11  C   UNL d   1      56.251   0.086  34.091  0.00  0.00     0.253 C 
ATOM     12  O   UNL d   1      55.554   0.471  34.307  0.00  0.00    -0.281 OA
ENDBRANCH   5  11
TORSDOF 1
ENDMDL
MODEL 9
REMARK VINA RESULT:      -2.6      3.933      5.070
REMARK  1 active torsions:
REMARK  status: ('A' for Active; 'I' for Inactive)
REMARK    1  A    between atoms: C_8  and  CA_5 
ROOT
ATOM      1  N   UNL d   1      58.365  -1.355  29.579  0.00  0.00    -0.224 NA
ATOM      2  C   UNL d   1      58.837  -1.943  29.260  0.00  0.00     0.162 A 
ATOM      3  N   UNL d   1      58.572  -2.717  29.250  0.00  0.00    -0.225 NA
ATOM      4  C   UNL d   1      59.577  -1.750  28.951  0.00  0.00     0.036 A 
ATOM      5  CA  UNL d   1      58.620  -0.573  29.595  0.00  0.00     0.125 A 
ATOM      6  C   UNL d   1      59.841  -0.970  28.963  0.00  0.00     0.005 A 
ATOM      7  C   UNL d   1      59.360  -0.381  29.286  0.00  0.00     0.023 A 
ATOM      8  C   UNL d   1      59.053  -3.307  28.927  0.00  0.00     0.101 A 
ATOM      9  C   UNL d   1      60.057  -2.331  28.630  0.00  0.00     0.005 A 
ATOM     10  C   UNL d   1      59.793  -3.114  28.618  0.00  0.00     0.021 A 
ENDROOT
BRANCH   5  11
ATOM     11  C   UNL d   1      58.149   0.010  29.912  0.00  0.00     0.253 C 
ATOM     12  O   UNL d   1      57.672   0.467  29.417  0.00  0.00    -0.281 OA
ENDBRANCH   5  11
TORSDOF 1
ENDMDL
