MODEL 1
REMARK VINA RESULT:      -2.8      0.000      0.000
REMARK  6 active torsions:
REMARK  status: ('A' for Active; 'I' for Inactive)
REMARK    1  A    between atoms: C_13  and  C_4 
REMARK    2  A    between atoms: N_16  and  C_5 
REMARK    3  A    between atoms: N_11  and  C_18 
REMARK    4  A    between atoms: C_21  and  N_16 
REMARK    5  A    between atoms: C_18  and  C_19 
REMARK    6  A    between atoms: C_19  and  C_21 
ROOT
ATOM      1  N   UNL d   1      30.795  17.488 -24.507  0.00  0.00    -0.195 N 
ATOM      2  C   UNL d   1      30.408  16.806 -24.254  0.00  0.00     0.167 A 
ATOM      3  N   UNL d   1      30.230  18.017 -24.773  0.00  0.00    -0.163 NA
ATOM      4  C   UNL d   1      29.605  16.919 -24.365  0.00  0.00     0.055 A 
ATOM      5  C   UNL d   1      31.616  17.537 -24.463  0.00  0.00     0.167 A 
ATOM      6  C   UNL d   1      29.492  17.665 -24.685  0.00  0.00     0.104 A 
ATOM      7  N   UNL d   1      30.839  16.172 -23.955  0.00  0.00    -0.227 NA
ATOM      8  C   UNL d   1      32.055  16.900 -24.162  0.00  0.00     0.058 A 
ATOM      9  C   UNL d   1      31.667  16.218 -23.908  0.00  0.00     0.086 A 
ATOM     10  C   UNL d   1      28.762  17.997 -24.882  0.00  0.00     0.023 C 
ATOM     11  C   UNL d   1      32.098  15.576 -23.606  0.00  0.00     0.021 C 
ENDROOT
BRANCH   5  12
ATOM     12  N   UNL d   1      32.003  18.218 -24.716  0.00  0.00    -0.225 NA
BRANCH  12  13
ATOM     13  C   UNL d   1      32.676  18.481 -24.322  0.00  0.00     0.102 C 
BRANCH  13  14
ATOM     14  C   UNL d   1      32.602  18.945 -23.639  0.00  0.00     0.040 C 
BRANCH  14  15
ATOM     15  C   UNL d   1      33.240  19.392 -23.374  0.00  0.00     0.083 C 
BRANCH  15  16
ATOM     16  N   UNL d   1      33.152  19.895 -22.716  0.00  0.00    -0.285 N 
ATOM     17  C   UNL d   1      33.079  19.742 -21.908  0.00  0.00     0.183 A 
ATOM     18  N   UNL d   1      33.008  20.458 -21.520  0.00  0.00    -0.222 NA
ATOM     19  C   UNL d   1      33.037  21.056 -22.080  0.00  0.00     0.120 A 
ATOM     20  C   UNL d   1      33.126  20.711 -22.820  0.00  0.00     0.102 A 
ENDBRANCH  15  16
ENDBRANCH  14  15
ENDBRANCH  13  14
ENDBRANCH  12  13
ENDBRANCH   5  12
BRANCH   4  21
ATOM     21  C   UNL d   1      28.951  16.431 -24.213  0.00  0.00     0.004 A 
ATOM     22  C   UNL d   1      28.631  16.400 -23.453  0.00  0.00     0.000 A 
ATOM     23  C   UNL d   1      27.977  15.911 -23.301  0.00  0.00     0.000 A 
ATOM     24  C   UNL d   1      27.648  15.459 -23.907  0.00  0.00     0.000 A 
ATOM     25  C   UNL d   1      27.972  15.494 -24.670  0.00  0.00     0.000 A 
ATOM     26  C   UNL d   1      28.623  15.980 -24.820  0.00  0.00     0.000 A 
ENDBRANCH   4  21
TORSDOF 6
ENDMDL
MODEL 2
REMARK VINA RESULT:      -1.6      1.918      3.355
REMARK  6 active torsions:
REMARK  status: ('A' for Active; 'I' for Inactive)
REMARK    1  A    between atoms: C_13  and  C_4 
REMARK    2  A    between atoms: N_16  and  C_5 
REMARK    3  A    between atoms: N_11  and  C_18 
REMARK    4  A    between atoms: C_21  and  N_16 
REMARK    5  A    between atoms: C_18  and  C_19 
REMARK    6  A    between atoms: C_19  and  C_21 
ROOT
ATOM      1  N   UNL d   1      32.721  19.356 -23.427  0.00  0.00    -0.195 N 
ATOM      2  C   UNL d   1      32.552  18.619 -23.098  0.00  0.00     0.167 A 
ATOM      3  N   UNL d   1      32.493  19.341 -24.214  0.00  0.00    -0.163 NA
ATOM      4  C   UNL d   1      32.221  18.154 -23.685  0.00  0.00     0.055 A 
ATOM      5  C   UNL d   1      33.060  19.946 -22.964  0.00  0.00     0.167 A 
ATOM      6  C   UNL d   1      32.184  18.596 -24.374  0.00  0.00     0.104 A 
ATOM      7  N   UNL d   1      32.723  18.471 -22.307  0.00  0.00    -0.227 NA
ATOM      8  C   UNL d   1      33.234  19.800 -22.166  0.00  0.00     0.058 A 
ATOM      9  C   UNL d   1      33.065  19.063 -21.838  0.00  0.00     0.086 A 
ATOM     10  C   UNL d   1      31.886  18.333 -25.097  0.00  0.00     0.023 C 
ATOM     11  C   UNL d   1      33.236  18.909 -21.040  0.00  0.00     0.021 C 
ENDROOT
BRANCH   5  12
ATOM     12  N   UNL d   1      33.229  20.683 -23.293  0.00  0.00    -0.225 NA
BRANCH  12  13
ATOM     13  C   UNL d   1      33.230  21.355 -22.818  0.00  0.00     0.102 C 
BRANCH  13  14
ATOM     14  C   UNL d   1      32.822  22.034 -23.060  0.00  0.00     0.040 C 
BRANCH  14  15
ATOM     15  C   UNL d   1      33.018  22.767 -22.743  0.00  0.00     0.083 C 
BRANCH  15  16
ATOM     16  N   UNL d   1      32.554  23.096 -22.134  0.00  0.00    -0.285 N 
ATOM     17  C   UNL d   1      31.745  23.248 -22.075  0.00  0.00     0.183 A 
ATOM     18  N   UNL d   1      31.601  23.579 -21.342  0.00  0.00    -0.222 NA
ATOM     19  C   UNL d   1      32.315  23.634 -20.942  0.00  0.00     0.120 A 
ATOM     20  C   UNL d   1      32.906  23.336 -21.430  0.00  0.00     0.102 A 
ENDBRANCH  15  16
ENDBRANCH  14  15
ENDBRANCH  13  14
ENDBRANCH  12  13
ENDBRANCH   5  12
BRANCH   4  21
ATOM     21  C   UNL d   1      31.945  17.371 -23.680  0.00  0.00     0.004 A 
ATOM     22  C   UNL d   1      31.133  17.224 -23.645  0.00  0.00     0.000 A 
ATOM     23  C   UNL d   1      30.857  16.441 -23.641  0.00  0.00     0.000 A 
ATOM     24  C   UNL d   1      31.390  15.813 -23.671  0.00  0.00     0.000 A 
ATOM     25  C   UNL d   1      32.205  15.965 -23.706  0.00  0.00     0.000 A 
ATOM     26  C   UNL d   1      32.479  16.744 -23.710  0.00  0.00     0.000 A 
ENDBRANCH   4  21
TORSDOF 6
ENDMDL
MODEL 3
REMARK VINA RESULT:      -0.4      2.779      6.844
REMARK  6 active torsions:
REMARK  status: ('A' for Active; 'I' for Inactive)
REMARK    1  A    between atoms: C_13  and  C_4 
REMARK    2  A    between atoms: N_16  and  C_5 
REMARK    3  A    between atoms: N_11  and  C_18 
REMARK    4  A    between atoms: C_21  and  N_16 
REMARK    5  A    between atoms: C_18  and  C_19 
REMARK    6  A    between atoms: C_19  and  C_21 
ROOT
ATOM      1  N   UNL d   1      33.054  21.402 -20.841  0.00  0.00    -0.195 N 
ATOM      2  C   UNL d   1      32.870  22.115 -20.472  0.00  0.00     0.167 A 
ATOM      3  N   UNL d   1      33.215  20.849 -20.258  0.00  0.00    -0.163 NA
ATOM      4  C   UNL d   1      32.918  21.998 -19.664  0.00  0.00     0.055 A 
ATOM      5  C   UNL d   1      33.050  21.349 -21.662  0.00  0.00     0.167 A 
ATOM      6  C   UNL d   1      33.131  21.219 -19.528  0.00  0.00     0.104 A 
ATOM      7  N   UNL d   1      32.682  22.777 -20.923  0.00  0.00    -0.227 NA
ATOM      8  C   UNL d   1      32.861  22.015 -22.121  0.00  0.00     0.058 A 
ATOM      9  C   UNL d   1      32.677  22.728 -21.752  0.00  0.00     0.086 A 
ATOM     10  C   UNL d   1      33.240  20.872 -18.787  0.00  0.00     0.023 C 
ATOM     11  C   UNL d   1      32.487  23.399 -22.203  0.00  0.00     0.021 C 
ENDROOT
BRANCH   5  12
ATOM     12  N   UNL d   1      33.234  20.636 -22.031  0.00  0.00    -0.225 NA
BRANCH  12  13
ATOM     13  C   UNL d   1      32.798  20.384 -22.682  0.00  0.00     0.102 C 
BRANCH  13  14
ATOM     14  C   UNL d   1      32.807  19.585 -22.904  0.00  0.00     0.040 C 
BRANCH  14  15
ATOM     15  C   UNL d   1      33.174  19.357 -23.604  0.00  0.00     0.083 C 
BRANCH  15  16
ATOM     16  N   UNL d   1      32.855  18.736 -24.059  0.00  0.00    -0.285 N 
ATOM     17  C   UNL d   1      32.252  18.715 -24.622  0.00  0.00     0.183 A 
ATOM     18  N   UNL d   1      32.179  17.946 -24.887  0.00  0.00    -0.222 NA
ATOM     19  C   UNL d   1      32.733  17.486 -24.494  0.00  0.00     0.120 A 
ATOM     20  C   UNL d   1      33.152  17.972 -23.981  0.00  0.00     0.102 A 
ENDBRANCH  15  16
ENDBRANCH  14  15
ENDBRANCH  13  14
ENDBRANCH  12  13
ENDBRANCH   5  12
BRANCH   4  21
ATOM     21  C   UNL d   1      32.794  22.510 -19.022  0.00  0.00     0.004 A 
ATOM     22  C   UNL d   1      32.338  23.191 -19.123  0.00  0.00     0.000 A 
ATOM     23  C   UNL d   1      32.214  23.702 -18.481  0.00  0.00     0.000 A 
ATOM     24  C   UNL d   1      32.545  23.532 -17.745  0.00  0.00     0.000 A 
ATOM     25  C   UNL d   1      33.003  22.847 -17.648  0.00  0.00     0.000 A 
ATOM     26  C   UNL d   1      33.126  22.338 -18.287  0.00  0.00     0.000 A 
ENDBRANCH   4  21
TORSDOF 6
ENDMDL
