MODEL 1
REMARK VINA RESULT:      -5.1      0.000      0.000
REMARK  5 active torsions:
REMARK  status: ('A' for Active; 'I' for Inactive)
REMARK    1  A    between atoms: N_3  and  C_1 
REMARK       I    between atoms: C_9  and  N_3 
REMARK       I    between atoms: N_7  and  C_8 
REMARK    2  A    between atoms: C_8  and  C_14 
REMARK    3  A    between atoms: C_15  and  C_9 
REMARK    4  A    between atoms: S_12  and  C_15 
REMARK    5  A    between atoms: C_14  and  S_12 
ROOT
ATOM      1  N   UNL d   1     -41.734-123.816 -50.372  0.00  0.00    -0.183 NA
ATOM      2  C   UNL d   1     -41.328-123.176 -50.708  0.00  0.00     0.287 C 
ATOM      3  O   UNL d   1     -41.123-122.523 -50.240  0.00  0.00    -0.265 OA
ENDROOT
BRANCH   2   4
ATOM      4  C   UNL d   1     -41.126-123.183 -51.502  0.00  0.00     0.098 C 
BRANCH   4   5
ATOM      5  S   UNL d   1     -41.297-122.531 -51.986  0.00  0.00    -0.076 SA
BRANCH   5   6
ATOM      6  C   UNL d   1     -41.387-122.632 -52.801  0.00  0.00     0.097 C 
BRANCH   6   7
ATOM      7  C   UNL d   1     -41.600-121.996 -53.279  0.00  0.00     0.271 C 
ATOM      8  N   UNL d   1     -41.816-122.130 -54.059  0.00  0.00    -0.272 N 
ATOM      9  C   UNL d   1     -41.814-122.905 -54.344  0.00  0.00     0.083 A 
ATOM     10  C   UNL d   1     -42.027-121.508 -54.534  0.00  0.00     0.083 A 
ATOM     11  C   UNL d   1     -42.031-123.043 -55.129  0.00  0.00     0.019 A 
ATOM     12  C   UNL d   1     -42.245-122.419 -55.613  0.00  0.00     0.003 A 
ATOM     13  C   UNL d   1     -42.245-121.645 -55.322  0.00  0.00     0.019 A 
ATOM     14  O   UNL d   1     -41.595-121.232 -52.974  0.00  0.00    -0.266 OA
ENDBRANCH   6   7
ENDBRANCH   5   6
ENDBRANCH   4   5
ENDBRANCH   2   4
BRANCH   1  15
ATOM     15  C   UNL d   1     -41.836-123.608 -49.578  0.00  0.00     0.182 A 
ATOM     16  N   UNL d   1     -42.559-123.539 -49.181  0.00  0.00    -0.283 N 
ATOM     17  C   UNL d   1     -42.403-123.321 -48.396  0.00  0.00     0.072 A 
ATOM     18  C   UNL d   1     -43.296-123.666 -49.512  0.00  0.00     0.101 C 
ATOM     19  C   UNL d   1     -42.893-123.174 -47.755  0.00  0.00     0.017 A 
ATOM     20  C   UNL d   1     -41.585-123.255 -48.308  0.00  0.00     0.048 A 
ATOM     21  C   UNL d   1     -42.579-122.965 -47.034  0.00  0.00    -0.011 A 
ATOM     22  C   UNL d   1     -41.760-122.900 -46.946  0.00  0.00     0.027 A 
ATOM     23  C   UNL d   1     -41.254-123.043 -47.578  0.00  0.00    -0.004 A 
ATOM     24  S   UNL d   1     -41.231-123.433 -49.038  0.00  0.00    -0.048 SA
ENDBRANCH   1  15
TORSDOF 5
ENDMDL
MODEL 2
REMARK VINA RESULT:      -4.8      1.087      5.744
REMARK  5 active torsions:
REMARK  status: ('A' for Active; 'I' for Inactive)
REMARK    1  A    between atoms: N_3  and  C_1 
REMARK       I    between atoms: C_9  and  N_3 
REMARK       I    between atoms: N_7  and  C_8 
REMARK    2  A    between atoms: C_8  and  C_14 
REMARK    3  A    between atoms: C_15  and  C_9 
REMARK    4  A    between atoms: S_12  and  C_15 
REMARK    5  A    between atoms: C_14  and  S_12 
ROOT
ATOM      1  N   UNL d   1     -41.124-122.477 -52.260  0.00  0.00    -0.183 NA
ATOM      2  C   UNL d   1     -41.321-123.242 -52.009  0.00  0.00     0.287 C 
ATOM      3  O   UNL d   1     -41.686-123.770 -52.535  0.00  0.00    -0.265 OA
ENDROOT
BRANCH   2   4
ATOM      4  C   UNL d   1     -41.158-123.483 -51.243  0.00  0.00     0.098 C 
BRANCH   4   5
ATOM      5  S   UNL d   1     -41.775-123.679 -50.723  0.00  0.00    -0.076 SA
BRANCH   5   6
ATOM      6  C   UNL d   1     -41.681-123.569 -49.910  0.00  0.00     0.097 C 
BRANCH   6   7
ATOM      7  C   UNL d   1     -42.328-123.632 -49.403  0.00  0.00     0.271 C 
ATOM      8  N   UNL d   1     -42.208-123.639 -48.592  0.00  0.00    -0.272 N 
ATOM      9  C   UNL d   1     -41.437-123.582 -48.304  0.00  0.00     0.083 A 
ATOM     10  C   UNL d   1     -42.842-123.700 -48.088  0.00  0.00     0.083 A 
ATOM     11  C   UNL d   1     -41.314-123.588 -47.487  0.00  0.00     0.019 A 
ATOM     12  C   UNL d   1     -41.948-123.650 -46.975  0.00  0.00     0.003 A 
ATOM     13  C   UNL d   1     -42.719-123.707 -47.269  0.00  0.00     0.019 A 
ATOM     14  O   UNL d   1     -43.089-123.688 -49.712  0.00  0.00    -0.266 OA
ENDBRANCH   6   7
ENDBRANCH   5   6
ENDBRANCH   4   5
ENDBRANCH   2   4
BRANCH   1  15
ATOM     15  C   UNL d   1     -41.369-122.443 -53.049  0.00  0.00     0.182 A 
ATOM     16  N   UNL d   1     -41.848-121.859 -53.386  0.00  0.00    -0.283 N 
ATOM     17  C   UNL d   1     -41.955-122.042 -54.188  0.00  0.00     0.072 A 
ATOM     18  C   UNL d   1     -42.159-121.214 -52.990  0.00  0.00     0.101 C 
ATOM     19  C   UNL d   1     -42.369-121.670 -54.790  0.00  0.00     0.017 A 
ATOM     20  C   UNL d   1     -41.542-122.739 -54.346  0.00  0.00     0.048 A 
ATOM     21  C   UNL d   1     -42.377-121.983 -55.541  0.00  0.00    -0.011 A 
ATOM     22  C   UNL d   1     -41.964-122.681 -55.700  0.00  0.00     0.027 A 
ATOM     23  C   UNL d   1     -41.543-123.067 -55.107  0.00  0.00    -0.004 A 
ATOM     24  S   UNL d   1     -41.179-122.991 -53.643  0.00  0.00    -0.048 SA
ENDBRANCH   1  15
TORSDOF 5
ENDMDL
