MODEL 1
REMARK VINA RESULT:      83.9      0.000      0.000
REMARK  6 active torsions:
REMARK  status: ('A' for Active; 'I' for Inactive)
REMARK    1  A    between atoms: N_2  and  S_1 
REMARK    2  A    between atoms: C_6  and  S_1 
REMARK    3  A    between atoms: C_3  and  N_2 
REMARK       I    between atoms: C_7  and  N_13 
REMARK    4  A    between atoms: C_10  and  C_7 
REMARK    5  A    between atoms: C_12  and  C_10 
REMARK    6  A    between atoms: C_11  and  C_12 
ROOT
ATOM      1  C   UNL d   1      61.256  48.230  50.156  0.00  0.00     0.105 A 
ATOM      2  C   UNL d   1      62.108  45.045  49.427  0.00  0.00     0.280 C 
ATOM      3  N   UNL d   1      62.374  45.776  49.150  0.00  0.00    -0.208 NA
ATOM      4  O   UNL d   1      62.425  44.342  49.142  0.00  0.00    -0.265 OA
ATOM      5  C   UNL d   1      61.845  48.259  49.587  0.00  0.00     0.015 A 
ATOM      6  C   UNL d   1      60.980  47.524  50.442  0.00  0.00     0.015 A 
ATOM      7  C   UNL d   1      61.899  46.831  49.577  0.00  0.00     0.085 A 
ATOM      8  C   UNL d   1      62.171  47.553  49.294  0.00  0.00     0.020 A 
ATOM      9  C   UNL d   1      61.304  46.816  50.151  0.00  0.00     0.020 A 
ENDROOT
BRANCH   1  10
ATOM     10  S   UNL d   1      60.925  48.965  50.453  0.00  0.00     0.285 S 
ATOM     11  O   UNL d   1      60.241  48.574  50.684  0.00  0.00    -0.198 OA
ATOM     12  O   UNL d   1      61.632  49.359  50.213  0.00  0.00    -0.198 OA
BRANCH  10  13
ATOM     13  N   UNL d   1      60.618  49.696  50.739  0.00  0.00    -0.158 NA
BRANCH  13  14
ATOM     14  C   UNL d   1      59.968  49.699  51.239  0.00  0.00     0.094 A 
ATOM     15  C   UNL d   1      59.211  49.705  50.925  0.00  0.00     0.018 A 
ATOM     16  C   UNL d   1      58.569  49.707  51.438  0.00  0.00     0.002 A 
ATOM     17  C   UNL d   1      59.100  49.708  50.077  0.00  0.00     0.002 C 
ATOM     18  C   UNL d   1      58.683  49.704  52.232  0.00  0.00     0.000 A 
ATOM     19  C   UNL d   1      59.438  49.698  52.566  0.00  0.00     0.002 A 
ATOM     20  C   UNL d   1      58.004  49.707  52.739  0.00  0.00     0.000 C 
ATOM     21  C   UNL d   1      60.083  49.696  52.071  0.00  0.00     0.018 A 
ATOM     22  C   UNL d   1      60.833  49.690  52.407  0.00  0.00     0.002 C 
ENDBRANCH  13  14
ENDBRANCH  10  13
ENDBRANCH   1  10
BRANCH   2  23
ATOM     23  C   UNL d   1      61.509  45.040  50.005  0.00  0.00     0.069 C 
BRANCH  23  24
ATOM     24  C   UNL d   1      61.356  44.326  50.421  0.00  0.00     0.075 C 
BRANCH  24  25
ATOM     25  C   UNL d   1      60.885  44.340  51.097  0.00  0.00     0.211 C 
ATOM     26  O   UNL d   1      61.208  44.191  51.859  0.00  0.00    -0.644 OA
ATOM     27  O   UNL d   1      60.074  44.502  51.043  0.00  0.00    -0.644 OA
ENDBRANCH  24  25
ENDBRANCH  23  24
ENDBRANCH   2  23
TORSDOF 6
ENDMDL
