MODEL 1
REMARK VINA RESULT:      81.4      0.000      0.000
REMARK  8 active torsions:
REMARK  status: ('A' for Active; 'I' for Inactive)
REMARK    1  A    between atoms: C_8  and  N_1 
REMARK    2  A    between atoms: C_7  and  N_3 
REMARK    3  A    between atoms: C_11  and  C_7 
REMARK    4  A    between atoms: C_20  and  C_8 
REMARK    5  A    between atoms: C_9  and  C_13 
REMARK       I    between atoms: N_16  and  C_9 
REMARK    6  A    between atoms: C_24  and  N_16 
REMARK    7  A    between atoms: C_27  and  C_24 
REMARK    8  A    between atoms: C_25  and  C_27 
ROOT
ATOM      1  N   UNL d   1      13.916  14.437  -2.078  0.00  0.00    -0.226 N 
ATOM      2  C   UNL d   1      13.532  13.803  -2.441  0.00  0.00     0.342 A 
ATOM      3  N   UNL d   1      13.759  13.031  -2.269  0.00  0.00    -0.259 N 
ATOM      4  C   UNL d   1      14.530  14.305  -1.539  0.00  0.00     0.270 A 
ATOM      5  C   UNL d   1      14.753  13.526  -1.372  0.00  0.00     0.073 A 
ATOM      6  C   UNL d   1      14.370  12.892  -1.734  0.00  0.00     0.073 A 
ATOM      7  O   UNL d   1      12.912  13.946  -2.984  0.00  0.00    -0.245 OA
ATOM      8  O   UNL d   1      14.910  14.932  -1.180  0.00  0.00    -0.266 OA
ATOM      9  C   UNL d   1      15.368  13.393  -0.833  0.00  0.00     0.006 A 
ATOM     10  C   UNL d   1      14.597  12.120  -1.562  0.00  0.00     0.018 A 
ATOM     11  C   UNL d   1      15.594  12.612  -0.663  0.00  0.00     0.000 A 
ATOM     12  C   UNL d   1      15.210  11.978  -1.026  0.00  0.00     0.002 A 
ENDROOT
BRANCH   1  13
ATOM     13  C   UNL d   1      13.685  15.224  -2.252  0.00  0.00     0.087 C 
BRANCH  13  14
ATOM     14  C   UNL d   1      14.096  15.658  -2.810  0.00  0.00     0.018 A 
ATOM     15  C   UNL d   1      14.580  16.281  -2.572  0.00  0.00     0.002 A 
ATOM     16  C   UNL d   1      14.999  16.723  -3.141  0.00  0.00     0.005 A 
ATOM     17  C   UNL d   1      14.929  16.538  -3.941  0.00  0.00     0.058 A 
ATOM     18  C   UNL d   1      14.442  15.911  -4.182  0.00  0.00     0.005 A 
ATOM     19  C   UNL d   1      14.023  15.469  -3.614  0.00  0.00     0.002 A 
BRANCH  17  20
ATOM     20  C   UNL d   1      15.344  16.976  -4.503  0.00  0.00     0.279 C 
ATOM     21  O   UNL d   1      16.032  16.671  -4.838  0.00  0.00    -0.265 OA
ATOM     22  N   UNL d   1      15.071  17.718  -4.731  0.00  0.00    -0.206 NA
BRANCH  22  23
ATOM     23  C   UNL d   1      15.486  18.156  -5.294  0.00  0.00     0.102 C 
BRANCH  23  24
ATOM     24  C   UNL d   1      15.080  18.539  -5.901  0.00  0.00     0.021 C 
BRANCH  24  25
ATOM     25  C   UNL d   1      14.778  19.302  -5.782  0.00  0.00     0.002 A 
ATOM     26  C   UNL d   1      14.835  19.865  -6.388  0.00  0.00     0.000 A 
ATOM     27  C   UNL d   1      14.531  20.633  -6.269  0.00  0.00     0.000 A 
ATOM     28  C   UNL d   1      14.176  20.828  -5.546  0.00  0.00     0.000 A 
ATOM     29  C   UNL d   1      14.121  20.266  -4.946  0.00  0.00     0.000 A 
ATOM     30  C   UNL d   1      14.425  19.498  -5.065  0.00  0.00     0.000 A 
ENDBRANCH  24  25
ENDBRANCH  23  24
ENDBRANCH  22  23
ENDBRANCH  17  20
ENDBRANCH  13  14
ENDBRANCH   1  13
BRANCH   3  31
ATOM     31  C   UNL d   1      13.376  12.397  -2.631  0.00  0.00     0.084 C 
BRANCH  31  32
ATOM     32  C   UNL d   1      13.413  12.305  -3.449  0.00  0.00     0.018 A 
ATOM     33  C   UNL d   1      14.098  11.998  -3.802  0.00  0.00     0.001 A 
ATOM     34  C   UNL d   1      14.758  11.779  -3.330  0.00  0.00     0.000 C 
ATOM     35  C   UNL d   1      14.136  11.906  -4.619  0.00  0.00     0.000 A 
ATOM     36  C   UNL d   1      13.491  12.120  -5.086  0.00  0.00     0.000 A 
ATOM     37  C   UNL d   1      12.806  12.426  -4.733  0.00  0.00     0.000 A 
ATOM     38  C   UNL d   1      12.769  12.518  -3.915  0.00  0.00     0.002 A 
ENDBRANCH  31  32
ENDBRANCH   3  31
TORSDOF 8
ENDMDL
MODEL 2
REMARK VINA RESULT:      81.6      1.396      2.868
REMARK  8 active torsions:
REMARK  status: ('A' for Active; 'I' for Inactive)
REMARK    1  A    between atoms: C_8  and  N_1 
REMARK    2  A    between atoms: C_7  and  N_3 
REMARK    3  A    between atoms: C_11  and  C_7 
REMARK    4  A    between atoms: C_20  and  C_8 
REMARK    5  A    between atoms: C_9  and  C_13 
REMARK       I    between atoms: N_16  and  C_9 
REMARK    6  A    between atoms: C_24  and  N_16 
REMARK    7  A    between atoms: C_27  and  C_24 
REMARK    8  A    between atoms: C_25  and  C_27 
ROOT
ATOM      1  N   UNL d   1      13.795  13.176  -2.443  0.00  0.00    -0.226 N 
ATOM      2  C   UNL d   1      13.782  13.827  -1.937  0.00  0.00     0.342 A 
ATOM      3  N   UNL d   1      14.195  13.804  -1.225  0.00  0.00    -0.259 N 
ATOM      4  C   UNL d   1      14.221  12.495  -2.243  0.00  0.00     0.270 A 
ATOM      5  C   UNL d   1      14.634  12.479  -1.526  0.00  0.00     0.073 A 
ATOM      6  C   UNL d   1      14.621  13.130  -1.019  0.00  0.00     0.073 A 
ATOM      7  O   UNL d   1      13.349  14.511  -2.147  0.00  0.00    -0.245 OA
ATOM      8  O   UNL d   1      14.234  11.850  -2.744  0.00  0.00    -0.266 OA
ATOM      9  C   UNL d   1      15.060  11.798  -1.325  0.00  0.00     0.006 A 
ATOM     10  C   UNL d   1      15.034  13.106  -0.308  0.00  0.00     0.018 A 
ATOM     11  C   UNL d   1      15.475  11.779  -0.605  0.00  0.00     0.000 A 
ATOM     12  C   UNL d   1      15.462  12.431  -0.099  0.00  0.00     0.002 A 
ENDROOT
BRANCH   1  13
ATOM     13  C   UNL d   1      13.375  13.199  -3.168  0.00  0.00     0.087 C 
BRANCH  13  14
ATOM     14  C   UNL d   1      13.562  13.758  -3.734  0.00  0.00     0.018 A 
ATOM     15  C   UNL d   1      14.344  13.991  -3.840  0.00  0.00     0.002 A 
ATOM     16  C   UNL d   1      14.535  14.561  -4.417  0.00  0.00     0.005 A 
ATOM     17  C   UNL d   1      13.940  14.894  -4.881  0.00  0.00     0.058 A 
ATOM     18  C   UNL d   1      13.151  14.661  -4.775  0.00  0.00     0.005 A 
ATOM     19  C   UNL d   1      12.960  14.091  -4.199  0.00  0.00     0.002 A 
BRANCH  17  20
ATOM     20  C   UNL d   1      14.129  15.459  -5.451  0.00  0.00     0.279 C 
ATOM     21  O   UNL d   1      14.631  15.264  -6.074  0.00  0.00    -0.265 OA
ATOM     22  N   UNL d   1      13.816  16.218  -5.399  0.00  0.00    -0.206 NA
BRANCH  22  23
ATOM     23  C   UNL d   1      14.005  16.783  -5.969  0.00  0.00     0.102 C 
BRANCH  23  24
ATOM     24  C   UNL d   1      13.480  17.398  -6.130  0.00  0.00     0.021 C 
BRANCH  24  25
ATOM     25  C   UNL d   1      13.743  18.184  -6.108  0.00  0.00     0.002 A 
ATOM     26  C   UNL d   1      13.249  18.791  -6.385  0.00  0.00     0.000 A 
ATOM     27  C   UNL d   1      13.513  19.582  -6.362  0.00  0.00     0.000 A 
ATOM     28  C   UNL d   1      14.267  19.756  -6.064  0.00  0.00     0.000 A 
ATOM     29  C   UNL d   1      14.755  19.152  -5.791  0.00  0.00     0.000 A 
ATOM     30  C   UNL d   1      14.491  18.361  -5.813  0.00  0.00     0.000 A 
ENDBRANCH  24  25
ENDBRANCH  23  24
ENDBRANCH  22  23
ENDBRANCH  17  20
ENDBRANCH  13  14
ENDBRANCH   1  13
BRANCH   3  31
ATOM     31  C   UNL d   1      14.183  14.455  -0.718  0.00  0.00     0.084 C 
BRANCH  31  32
ATOM     32  C   UNL d   1      14.839  14.949  -0.665  0.00  0.00     0.018 A 
ATOM     33  C   UNL d   1      14.803  15.722  -0.964  0.00  0.00     0.001 A 
ATOM     34  C   UNL d   1      14.099  16.006  -1.323  0.00  0.00     0.000 C 
ATOM     35  C   UNL d   1      15.459  16.216  -0.911  0.00  0.00     0.000 A 
ATOM     36  C   UNL d   1      16.152  15.941  -0.559  0.00  0.00     0.000 A 
ATOM     37  C   UNL d   1      16.188  15.169  -0.260  0.00  0.00     0.000 A 
ATOM     38  C   UNL d   1      15.531  14.674  -0.314  0.00  0.00     0.002 A 
ENDBRANCH  31  32
ENDBRANCH   3  31
TORSDOF 8
ENDMDL
