MODEL 1
REMARK VINA RESULT:      -7.0      0.000      0.000
REMARK  2 active torsions:
REMARK  status: ('A' for Active; 'I' for Inactive)
REMARK    1  A    between atoms: C_6  and  C_4 
REMARK    2  A    between atoms: C_7  and  C_6 
ROOT
ATOM      1  N   UNL d   1      52.316  32.776  53.172  0.00  0.00    -0.163 NA
ATOM      2  C   UNL d   1      52.698  33.311  53.665  0.00  0.00     0.288 A 
ATOM      3  C   UNL d   1      52.842  32.162  53.008  0.00  0.00     0.313 A 
ATOM      4  C   UNL d   1      53.461  33.031  53.806  0.00  0.00     0.098 A 
ATOM      5  S   UNL d   1      53.550  32.318  53.399  0.00  0.00    -0.020 SA
ATOM      6  O   UNL d   1      52.382  34.005  53.966  0.00  0.00    -0.265 OA
ATOM      7  O   UNL d   1      52.685  31.506  52.533  0.00  0.00    -0.258 OA
ENDROOT
BRANCH   4   8
ATOM      8  C   UNL d   1      54.214  33.079  54.148  0.00  0.00     0.075 C 
ATOM      9  C   UNL d   1      54.888  32.943  53.696  0.00  0.00     0.007 C 
BRANCH   8  10
ATOM     10  C   UNL d   1      54.294  33.265  54.949  0.00  0.00     0.211 C 
ATOM     11  O   UNL d   1      54.468  34.039  55.174  0.00  0.00    -0.644 OA
ATOM     12  O   UNL d   1      54.200  32.685  55.523  0.00  0.00    -0.644 OA
ENDBRANCH   8  10
ENDBRANCH   4   8
TORSDOF 2
ENDMDL
MODEL 2
REMARK VINA RESULT:      -6.8      1.472      2.211
REMARK  2 active torsions:
REMARK  status: ('A' for Active; 'I' for Inactive)
REMARK    1  A    between atoms: C_6  and  C_4 
REMARK    2  A    between atoms: C_7  and  C_6 
ROOT
ATOM      1  N   UNL d   1      52.488  34.557  53.933  0.00  0.00    -0.163 NA
ATOM      2  C   UNL d   1      52.614  33.755  53.802  0.00  0.00     0.288 A 
ATOM      3  C   UNL d   1      53.107  34.838  54.400  0.00  0.00     0.313 A 
ATOM      4  C   UNL d   1      53.312  33.539  54.187  0.00  0.00     0.098 A 
ATOM      5  S   UNL d   1      53.617  34.211  54.558  0.00  0.00    -0.020 SA
ATOM      6  O   UNL d   1      52.136  33.253  53.365  0.00  0.00    -0.265 OA
ATOM      7  O   UNL d   1      53.198  35.615  54.664  0.00  0.00    -0.258 OA
ENDROOT
BRANCH   4   8
ATOM      8  C   UNL d   1      53.893  32.993  54.411  0.00  0.00     0.075 C 
ATOM      9  C   UNL d   1      54.140  32.943  55.195  0.00  0.00     0.007 C 
BRANCH   8  10
ATOM     10  C   UNL d   1      54.230  32.493  53.847  0.00  0.00     0.211 C 
ATOM     11  O   UNL d   1      53.929  31.732  53.742  0.00  0.00    -0.644 OA
ATOM     12  O   UNL d   1      54.864  32.746  53.389  0.00  0.00    -0.644 OA
ENDBRANCH   8  10
ENDBRANCH   4   8
TORSDOF 2
ENDMDL
MODEL 3
REMARK VINA RESULT:      -6.6      1.198      2.653
REMARK  2 active torsions:
REMARK  status: ('A' for Active; 'I' for Inactive)
REMARK    1  A    between atoms: C_6  and  C_4 
REMARK    2  A    between atoms: C_7  and  C_6 
ROOT
ATOM      1  N   UNL d   1      53.496  32.225  53.739  0.00  0.00    -0.163 NA
ATOM      2  C   UNL d   1      53.000  32.489  53.139  0.00  0.00     0.288 A 
ATOM      3  C   UNL d   1      53.567  32.829  54.295  0.00  0.00     0.313 A 
ATOM      4  C   UNL d   1      52.762  33.258  53.323  0.00  0.00     0.098 A 
ATOM      5  S   UNL d   1      53.114  33.468  54.041  0.00  0.00    -0.020 SA
ATOM      6  O   UNL d   1      52.776  32.068  52.473  0.00  0.00    -0.265 OA
ATOM      7  O   UNL d   1      54.014  32.798  54.988  0.00  0.00    -0.258 OA
ENDROOT
BRANCH   4   8
ATOM      8  C   UNL d   1      52.346  33.959  53.173  0.00  0.00     0.075 C 
ATOM      9  C   UNL d   1      52.690  34.690  53.329  0.00  0.00     0.007 C 
BRANCH   8  10
ATOM     10  C   UNL d   1      51.581  33.927  52.864  0.00  0.00     0.211 C 
ATOM     11  O   UNL d   1      51.451  34.116  52.072  0.00  0.00    -0.644 OA
ATOM     12  O   UNL d   1      50.948  33.709  53.340  0.00  0.00    -0.644 OA
ENDBRANCH   8  10
ENDBRANCH   4   8
TORSDOF 2
ENDMDL
