MODEL 1
REMARK VINA RESULT:      98.4      0.000      0.000
REMARK  9 active torsions:
REMARK  status: ('A' for Active; 'I' for Inactive)
REMARK    1  A    between atoms: C_12  and  C_3 
REMARK    2  A    between atoms: S_14  and  C_7 
REMARK       I    between atoms: C_9  and  N_18 
REMARK    3  A    between atoms: C_13  and  C_9 
REMARK    4  A    between atoms: C_11  and  C_21 
REMARK       I    between atoms: N_15  and  C_11 
REMARK    5  A    between atoms: C_22  and  C_12 
REMARK    6  A    between atoms: C_21  and  S_14 
REMARK    7  A    between atoms: C_23  and  N_15 
REMARK    8  A    between atoms: N_18  and  C_22 
REMARK    9  A    between atoms: C_25  and  C_23 
ROOT
ATOM      1  N   UNL d   1     -55.376-101.695 -42.257  0.00  0.00    -0.191 N 
ATOM      2  C   UNL d   1     -55.896-102.343 -42.234  0.00  0.00     0.187 A 
ATOM      3  C   UNL d   1     -55.246-101.496 -43.051  0.00  0.00     0.188 A 
ATOM      4  N   UNL d   1     -55.090-101.370 -41.553  0.00  0.00    -0.156 NA
ATOM      5  N   UNL d   1     -56.082-102.539 -43.016  0.00  0.00    -0.127 NA
ATOM      6  N   UNL d   1     -55.685-102.022 -43.520  0.00  0.00    -0.127 NA
ATOM      7  C   UNL d   1     -55.324-101.695 -40.826  0.00  0.00     0.131 A 
ATOM      8  C   UNL d   1     -56.121-102.656 -41.511  0.00  0.00     0.043 A 
ATOM      9  C   UNL d   1     -55.838-102.336 -40.805  0.00  0.00     0.031 A 
ENDROOT
BRANCH   7  10
ATOM     10  S   UNL d   1     -55.032-101.364 -40.120  0.00  0.00    -0.061 SA
BRANCH  10  11
ATOM     11  C   UNL d   1     -54.714-101.862 -39.533  0.00  0.00     0.099 C 
BRANCH  11  12
ATOM     12  C   UNL d   1     -54.801-101.656 -38.733  0.00  0.00     0.286 C 
ATOM     13  N   UNL d   1     -54.851-100.878 -38.517  0.00  0.00    -0.206 NA
ATOM     14  O   UNL d   1     -54.838-102.242 -38.153  0.00  0.00    -0.265 OA
BRANCH  13  15
ATOM     15  C   UNL d   1     -54.938-100.669 -37.719  0.00  0.00     0.102 C 
BRANCH  15  16
ATOM     16  C   UNL d   1     -55.241-101.209 -37.196  0.00  0.00     0.019 A 
ATOM     17  C   UNL d   1     -55.212-101.084 -36.380  0.00  0.00     0.004 A 
ATOM     18  C   UNL d   1     -55.519-101.631 -35.853  0.00  0.00     0.030 A 
ATOM     19  C   UNL d   1     -55.864-102.323 -36.141  0.00  0.00     0.140 A 
ATOM     20  C   UNL d   1     -55.892-102.445 -36.953  0.00  0.00     0.030 A 
ATOM     21  F   UNL d   1     -56.176-102.880 -35.621  0.00  0.00    -0.204 F 
ATOM     22  C   UNL d   1     -55.589-101.905 -37.471  0.00  0.00     0.004 A 
ENDBRANCH  15  16
ENDBRANCH  13  15
ENDBRANCH  11  12
ENDBRANCH  10  11
ENDBRANCH   7  10
BRANCH   3  23
ATOM     23  C   UNL d   1     -54.762-100.882 -43.320  0.00  0.00     0.061 C 
BRANCH  23  24
ATOM     24  C   UNL d   1     -55.053-100.106 -43.356  0.00  0.00     0.105 C 
BRANCH  24  25
ATOM     25  N   UNL d   1     -55.855 -99.978 -43.501  0.00  0.00    -0.206 NA
ATOM     26  C   UNL d   1     -56.281 -99.446 -43.022  0.00  0.00     0.279 C 
ATOM     27  O   UNL d   1     -55.890 -99.050 -42.403  0.00  0.00    -0.265 OA
BRANCH  26  28
ATOM     28  C   UNL d   1     -57.081 -99.316 -43.163  0.00  0.00     0.058 A 
ATOM     29  C   UNL d   1     -57.528 -98.888 -42.617  0.00  0.00     0.005 A 
ATOM     30  C   UNL d   1     -58.329 -98.755 -42.754  0.00  0.00     0.000 A 
ATOM     31  C   UNL d   1     -58.682 -99.054 -43.441  0.00  0.00     0.000 A 
ATOM     32  C   UNL d   1     -58.235 -99.482 -43.987  0.00  0.00     0.000 A 
ATOM     33  C   UNL d   1     -59.481 -98.923 -43.579  0.00  0.00     0.000 C 
ATOM     34  C   UNL d   1     -57.429 -99.612 -43.844  0.00  0.00     0.005 A 
ENDBRANCH  26  28
ENDBRANCH  24  25
ENDBRANCH  23  24
ENDBRANCH   3  23
TORSDOF 9
ENDMDL
