MODEL 1
REMARK VINA RESULT:      -9.4      0.000      0.000
REMARK  3 active torsions:
REMARK  status: ('A' for Active; 'I' for Inactive)
REMARK    1  A    between atoms: S_6  and  C_1 
REMARK    2  A    between atoms: C_3  and  C_9 
REMARK       I    between atoms: N_4  and  C_3 
REMARK    3  A    between atoms: C_9  and  S_6 
ROOT
ATOM      1  C   UNL d   1      53.732  33.161  54.069  0.00  0.00     0.114 A 
ATOM      2  C   UNL d   1      53.418  33.919  54.113  0.00  0.00     0.042 A 
ATOM      3  N   UNL d   1      54.361  32.950  54.559  0.00  0.00    -0.217 NA
ATOM      4  N   UNL d   1      54.358  34.260  55.134  0.00  0.00    -0.224 NA
ATOM      5  C   UNL d   1      54.674  33.500  55.092  0.00  0.00     0.200 A 
ATOM      6  C   UNL d   1      53.732  34.469  54.645  0.00  0.00     0.085 A 
ATOM      7  C   UNL d   1      52.789  34.130  53.623  0.00  0.00     0.004 A 
ATOM      8  C   UNL d   1      53.415  35.230  54.688  0.00  0.00     0.019 A 
ATOM      9  C   UNL d   1      52.473  34.891  53.666  0.00  0.00     0.000 A 
ATOM     10  C   UNL d   1      52.786  35.441  54.198  0.00  0.00     0.002 A 
ENDROOT
BRANCH   1  11
ATOM     11  S   UNL d   1      53.419  32.612  53.537  0.00  0.00    -0.062 SA
BRANCH  11  12
ATOM     12  C   UNL d   1      53.535  31.810  53.653  0.00  0.00     0.098 C 
BRANCH  12  13
ATOM     13  C   UNL d   1      53.150  31.256  53.176  0.00  0.00     0.271 C 
ATOM     14  N   UNL d   1      53.106  30.460  53.413  0.00  0.00    -0.272 N 
ATOM     15  C   UNL d   1      53.414  30.146  54.097  0.00  0.00     0.083 A 
ATOM     16  C   UNL d   1      52.742  29.852  52.995  0.00  0.00     0.083 A 
ATOM     17  C   UNL d   1      53.245  29.336  54.112  0.00  0.00     0.021 A 
ATOM     18  C   UNL d   1      52.827  29.165  53.422  0.00  0.00     0.021 A 
ATOM     19  O   UNL d   1      52.813  31.491  52.473  0.00  0.00    -0.266 OA
ENDBRANCH  12  13
ENDBRANCH  11  12
ENDBRANCH   1  11
TORSDOF 3
ENDMDL
MODEL 2
REMARK VINA RESULT:      -8.3      2.197      3.697
REMARK  3 active torsions:
REMARK  status: ('A' for Active; 'I' for Inactive)
REMARK    1  A    between atoms: S_6  and  C_1 
REMARK    2  A    between atoms: C_3  and  C_9 
REMARK       I    between atoms: N_4  and  C_3 
REMARK    3  A    between atoms: C_9  and  S_6 
ROOT
ATOM      1  C   UNL d   1      52.782  34.310  53.841  0.00  0.00     0.114 A 
ATOM      2  C   UNL d   1      53.307  33.801  54.217  0.00  0.00     0.042 A 
ATOM      3  N   UNL d   1      52.731  35.097  54.083  0.00  0.00    -0.217 NA
ATOM      4  N   UNL d   1      53.734  34.860  55.076  0.00  0.00    -0.224 NA
ATOM      5  C   UNL d   1      53.208  35.372  54.701  0.00  0.00     0.200 A 
ATOM      6  C   UNL d   1      53.783  34.076  54.834  0.00  0.00     0.085 A 
ATOM      7  C   UNL d   1      53.357  33.014  53.974  0.00  0.00     0.004 A 
ATOM      8  C   UNL d   1      54.309  33.564  55.210  0.00  0.00     0.019 A 
ATOM      9  C   UNL d   1      53.884  32.502  54.351  0.00  0.00     0.000 A 
ATOM     10  C   UNL d   1      54.360  32.777  54.968  0.00  0.00     0.002 A 
ENDROOT
BRANCH   1  11
ATOM     11  S   UNL d   1      52.306  34.035  53.224  0.00  0.00    -0.062 SA
BRANCH  11  12
ATOM     12  C   UNL d   1      51.586  34.391  53.067  0.00  0.00     0.098 C 
BRANCH  12  13
ATOM     13  C   UNL d   1      51.179  34.224  52.368  0.00  0.00     0.271 C 
ATOM     14  N   UNL d   1      50.373  34.418  52.297  0.00  0.00    -0.272 N 
ATOM     15  C   UNL d   1      49.914  34.773  52.867  0.00  0.00     0.083 A 
ATOM     16  C   UNL d   1      49.901  34.284  51.636  0.00  0.00     0.083 A 
ATOM     17  C   UNL d   1      49.148  34.864  52.566  0.00  0.00     0.021 A 
ATOM     18  C   UNL d   1      49.153  34.556  51.801  0.00  0.00     0.021 A 
ATOM     19  O   UNL d   1      51.567  33.868  51.747  0.00  0.00    -0.266 OA
ENDBRANCH  12  13
ENDBRANCH  11  12
ENDBRANCH   1  11
TORSDOF 3
ENDMDL
MODEL 3
REMARK VINA RESULT:      -7.7      1.938      3.920
REMARK  3 active torsions:
REMARK  status: ('A' for Active; 'I' for Inactive)
REMARK    1  A    between atoms: S_6  and  C_1 
REMARK    2  A    between atoms: C_3  and  C_9 
REMARK       I    between atoms: N_4  and  C_3 
REMARK    3  A    between atoms: C_9  and  S_6 
ROOT
ATOM      1  C   UNL d   1      52.922  32.680  53.296  0.00  0.00     0.114 A 
ATOM      2  C   UNL d   1      53.102  31.881  53.369  0.00  0.00     0.042 A 
ATOM      3  N   UNL d   1      53.334  33.234  53.747  0.00  0.00    -0.217 NA
ATOM      4  N   UNL d   1      54.103  32.185  54.342  0.00  0.00    -0.224 NA
ATOM      5  C   UNL d   1      53.924  32.987  54.271  0.00  0.00     0.200 A 
ATOM      6  C   UNL d   1      53.692  31.634  53.892  0.00  0.00     0.085 A 
ATOM      7  C   UNL d   1      52.690  31.327  52.917  0.00  0.00     0.004 A 
ATOM      8  C   UNL d   1      53.871  30.832  53.964  0.00  0.00     0.019 A 
ATOM      9  C   UNL d   1      52.869  30.524  52.990  0.00  0.00     0.000 A 
ATOM     10  C   UNL d   1      53.460  30.277  53.513  0.00  0.00     0.002 A 
ENDROOT
BRANCH   1  11
ATOM     11  S   UNL d   1      52.332  32.927  52.773  0.00  0.00    -0.062 SA
BRANCH  11  12
ATOM     12  C   UNL d   1      51.903  33.607  52.925  0.00  0.00     0.098 C 
BRANCH  12  13
ATOM     13  C   UNL d   1      51.398  33.922  52.352  0.00  0.00     0.271 C 
ATOM     14  N   UNL d   1      50.679  34.274  52.577  0.00  0.00    -0.272 N 
ATOM     15  C   UNL d   1      50.399  34.348  53.337  0.00  0.00     0.083 A 
ATOM     16  C   UNL d   1      50.125  34.608  52.068  0.00  0.00     0.083 A 
ATOM     17  C   UNL d   1      49.666  34.731  53.309  0.00  0.00     0.021 A 
ATOM     18  C   UNL d   1      49.507  34.887  52.515  0.00  0.00     0.021 A 
ATOM     19  O   UNL d   1      51.605  33.887  51.565  0.00  0.00    -0.266 OA
ENDBRANCH  12  13
ENDBRANCH  11  12
ENDBRANCH   1  11
TORSDOF 3
ENDMDL
MODEL 4
REMARK VINA RESULT:      -7.5      2.459      3.888
REMARK  3 active torsions:
REMARK  status: ('A' for Active; 'I' for Inactive)
REMARK    1  A    between atoms: S_6  and  C_1 
REMARK    2  A    between atoms: C_3  and  C_9 
REMARK       I    between atoms: N_4  and  C_3 
REMARK    3  A    between atoms: C_9  and  S_6 
ROOT
ATOM      1  C   UNL d   1      52.464  33.168  53.472  0.00  0.00     0.114 A 
ATOM      2  C   UNL d   1      53.137  33.221  53.941  0.00  0.00     0.042 A 
ATOM      3  N   UNL d   1      52.352  32.506  52.993  0.00  0.00    -0.217 NA
ATOM      4  N   UNL d   1      53.589  31.956  53.456  0.00  0.00    -0.224 NA
ATOM      5  C   UNL d   1      52.915  31.900  52.984  0.00  0.00     0.200 A 
ATOM      6  C   UNL d   1      53.700  32.615  53.933  0.00  0.00     0.085 A 
ATOM      7  C   UNL d   1      53.250  33.883  54.421  0.00  0.00     0.004 A 
ATOM      8  C   UNL d   1      54.375  32.671  54.404  0.00  0.00     0.019 A 
ATOM      9  C   UNL d   1      53.925  33.939  54.892  0.00  0.00     0.000 A 
ATOM     10  C   UNL d   1      54.487  33.332  54.884  0.00  0.00     0.002 A 
ENDROOT
BRANCH   1  11
ATOM     11  S   UNL d   1      51.903  33.773  53.481  0.00  0.00    -0.062 SA
BRANCH  11  12
ATOM     12  C   UNL d   1      51.328  33.813  52.899  0.00  0.00     0.098 C 
BRANCH  12  13
ATOM     13  C   UNL d   1      50.665  34.296  52.996  0.00  0.00     0.271 C 
ATOM     14  N   UNL d   1      50.122  34.389  52.374  0.00  0.00    -0.272 N 
ATOM     15  C   UNL d   1      50.169  34.041  51.640  0.00  0.00     0.083 A 
ATOM     16  C   UNL d   1      49.440  34.850  52.393  0.00  0.00     0.083 A 
ATOM     17  C   UNL d   1      49.516  34.283  51.193  0.00  0.00     0.021 A 
ATOM     18  C   UNL d   1      49.070  34.785  51.672  0.00  0.00     0.021 A 
ATOM     19  O   UNL d   1      50.544  34.681  53.703  0.00  0.00    -0.266 OA
ENDBRANCH  12  13
ENDBRANCH  11  12
ENDBRANCH   1  11
TORSDOF 3
ENDMDL
MODEL 5
REMARK VINA RESULT:      -7.4      1.067      4.383
REMARK  3 active torsions:
REMARK  status: ('A' for Active; 'I' for Inactive)
REMARK    1  A    between atoms: S_6  and  C_1 
REMARK    2  A    between atoms: C_3  and  C_9 
REMARK       I    between atoms: N_4  and  C_3 
REMARK    3  A    between atoms: C_9  and  S_6 
ROOT
ATOM      1  C   UNL d   1      53.299  31.500  53.567  0.00  0.00     0.114 A 
ATOM      2  C   UNL d   1      53.260  30.706  53.775  0.00  0.00     0.042 A 
ATOM      3  N   UNL d   1      53.068  31.736  52.811  0.00  0.00    -0.217 NA
ATOM      4  N   UNL d   1      52.759  30.379  52.477  0.00  0.00    -0.224 NA
ATOM      5  C   UNL d   1      52.798  31.176  52.266  0.00  0.00     0.200 A 
ATOM      6  C   UNL d   1      52.990  30.145  53.230  0.00  0.00     0.085 A 
ATOM      7  C   UNL d   1      53.491  30.470  54.531  0.00  0.00     0.004 A 
ATOM      8  C   UNL d   1      52.951  29.349  53.441  0.00  0.00     0.019 A 
ATOM      9  C   UNL d   1      53.452  29.673  54.742  0.00  0.00     0.000 A 
ATOM     10  C   UNL d   1      53.182  29.112  54.197  0.00  0.00     0.002 A 
ENDROOT
BRANCH   1  11
ATOM     11  S   UNL d   1      53.569  32.060  54.112  0.00  0.00    -0.062 SA
BRANCH  11  12
ATOM     12  C   UNL d   1      53.463  32.859  53.970  0.00  0.00     0.098 C 
BRANCH  12  13
ATOM     13  C   UNL d   1      53.654  33.416  54.549  0.00  0.00     0.271 C 
ATOM     14  N   UNL d   1      53.378  34.198  54.483  0.00  0.00    -0.272 N 
ATOM     15  C   UNL d   1      52.917  34.494  53.882  0.00  0.00     0.083 A 
ATOM     16  C   UNL d   1      53.524  34.808  55.016  0.00  0.00     0.083 A 
ATOM     17  C   UNL d   1      52.770  35.294  54.034  0.00  0.00     0.021 A 
ATOM     18  C   UNL d   1      53.153  35.477  54.742  0.00  0.00     0.021 A 
ATOM     19  O   UNL d   1      54.112  33.200  55.186  0.00  0.00    -0.266 OA
ENDBRANCH  12  13
ENDBRANCH  11  12
ENDBRANCH   1  11
TORSDOF 3
ENDMDL
MODEL 6
REMARK VINA RESULT:      -6.5      1.519      1.996
REMARK  3 active torsions:
REMARK  status: ('A' for Active; 'I' for Inactive)
REMARK    1  A    between atoms: S_6  and  C_1 
REMARK    2  A    between atoms: C_3  and  C_9 
REMARK       I    between atoms: N_4  and  C_3 
REMARK    3  A    between atoms: C_9  and  S_6 
ROOT
ATOM      1  C   UNL d   1      52.587  33.443  53.462  0.00  0.00     0.114 A 
ATOM      2  C   UNL d   1      51.845  33.727  53.253  0.00  0.00     0.042 A 
ATOM      3  N   UNL d   1      53.258  33.897  53.305  0.00  0.00    -0.217 NA
ATOM      4  N   UNL d   1      52.437  34.919  52.730  0.00  0.00    -0.224 NA
ATOM      5  C   UNL d   1      53.183  34.635  52.939  0.00  0.00     0.200 A 
ATOM      6  C   UNL d   1      51.770  34.465  52.887  0.00  0.00     0.085 A 
ATOM      7  C   UNL d   1      51.174  33.273  53.410  0.00  0.00     0.004 A 
ATOM      8  C   UNL d   1      51.024  34.749  52.678  0.00  0.00     0.019 A 
ATOM      9  C   UNL d   1      50.428  33.557  53.201  0.00  0.00     0.000 A 
ATOM     10  C   UNL d   1      50.353  34.295  52.835  0.00  0.00     0.002 A 
ENDROOT
BRANCH   1  11
ATOM     11  S   UNL d   1      52.662  32.706  53.827  0.00  0.00    -0.062 SA
BRANCH  11  12
ATOM     12  C   UNL d   1      53.178  32.146  53.527  0.00  0.00     0.098 C 
BRANCH  12  13
ATOM     13  C   UNL d   1      53.431  31.514  53.995  0.00  0.00     0.271 C 
ATOM     14  N   UNL d   1      53.342  30.733  53.726  0.00  0.00    -0.272 N 
ATOM     15  C   UNL d   1      53.017  30.505  53.016  0.00  0.00     0.083 A 
ATOM     16  C   UNL d   1      53.568  30.054  54.132  0.00  0.00     0.083 A 
ATOM     17  C   UNL d   1      53.037  29.678  52.973  0.00  0.00     0.021 A 
ATOM     18  C   UNL d   1      53.381  29.410  53.672  0.00  0.00     0.021 A 
ATOM     19  O   UNL d   1      53.769  31.658  54.722  0.00  0.00    -0.266 OA
ENDBRANCH  12  13
ENDBRANCH  11  12
ENDBRANCH   1  11
TORSDOF 3
ENDMDL
