MODEL 1
REMARK VINA RESULT:      -3.7      0.000      0.000
REMARK  9 active torsions:
REMARK  status: ('A' for Active; 'I' for Inactive)
REMARK    1  A    between atoms: N_2  and  S_1 
REMARK    2  A    between atoms: C_5  and  S_1 
REMARK    3  A    between atoms: C_15  and  C_3 
REMARK       I    between atoms: C_4  and  N_11 
REMARK    4  A    between atoms: C_7  and  C_4 
REMARK       I    between atoms: N_22  and  C_7 
REMARK    5  A    between atoms: N_8  and  C_28 
REMARK    6  A    between atoms: N_11  and  C_15 
REMARK    7  A    between atoms: C_30  and  N_22 
REMARK    8  A    between atoms: C_28  and  C_29 
REMARK    9  A    between atoms: C_29  and  C_30 
ROOT
ATOM      1  N   UNL d   1     -38.861  13.552  18.413  0.00  0.00    -0.207 N 
ATOM      2  C   UNL d   1     -38.790  13.555  19.228  0.00  0.00     0.197 A 
ATOM      3  O   UNL d   1     -38.229  12.997  19.458  0.00  0.00    -0.285 OA
ATOM      4  C   UNL d   1     -38.335  12.982  18.121  0.00  0.00     0.120 A 
ATOM      5  C   UNL d   1     -37.940  12.633  18.763  0.00  0.00     0.144 A 
ENDROOT
BRANCH   2   6
ATOM      6  C   UNL d   1     -39.212  14.038  19.747  0.00  0.00     0.146 C 
BRANCH   6   7
ATOM      7  N   UNL d   1     -38.921  14.198  20.500  0.00  0.00    -0.199 NA
ATOM      8  C   UNL d   1     -39.434  14.430  21.095  0.00  0.00     0.337 C 
ATOM      9  O   UNL d   1     -39.143  14.590  21.848  0.00  0.00    -0.260 OA
BRANCH   8  10
ATOM     10  C   UNL d   1     -40.243  14.505  20.947  0.00  0.00     0.337 C 
ATOM     11  O   UNL d   1     -40.538  15.213  20.647  0.00  0.00    -0.260 OA
ATOM     12  N   UNL d   1     -40.748  13.888  21.093  0.00  0.00    -0.202 NA
BRANCH  12  13
ATOM     13  C   UNL d   1     -41.560  13.957  20.946  0.00  0.00     0.104 C 
BRANCH  13  14
ATOM     14  C   UNL d   1     -42.100  13.469  21.322  0.00  0.00     0.040 C 
BRANCH  14  15
ATOM     15  C   UNL d   1     -42.898  13.616  21.280  0.00  0.00     0.083 C 
BRANCH  15  16
ATOM     16  N   UNL d   1     -43.442  13.094  21.601  0.00  0.00    -0.285 N 
ATOM     17  C   UNL d   1     -43.117  12.386  21.882  0.00  0.00     0.183 A 
ATOM     18  N   UNL d   1     -43.724  11.920  22.187  0.00  0.00    -0.222 NA
ATOM     19  C   UNL d   1     -44.432  12.338  22.095  0.00  0.00     0.120 A 
ATOM     20  C   UNL d   1     -44.258  13.062  21.735  0.00  0.00     0.102 A 
ENDBRANCH  15  16
ENDBRANCH  14  15
ENDBRANCH  13  14
ENDBRANCH  12  13
ENDBRANCH   8  10
ENDBRANCH   6   7
ENDBRANCH   2   6
BRANCH   1  21
ATOM     21  S   UNL d   1     -39.358  14.024  17.962  0.00  0.00     0.273 S 
ATOM     22  O   UNL d   1     -38.795  14.622  17.967  0.00  0.00    -0.200 OA
ATOM     23  O   UNL d   1     -39.921  13.426  17.957  0.00  0.00    -0.200 OA
BRANCH  21  24
ATOM     24  C   UNL d   1     -39.856  14.496  17.511  0.00  0.00     0.104 A 
ATOM     25  C   UNL d   1     -39.534  15.077  17.004  0.00  0.00     0.013 A 
ATOM     26  C   UNL d   1     -40.031  15.549  16.552  0.00  0.00     0.007 A 
ATOM     27  C   UNL d   1     -40.858  15.450  16.599  0.00  0.00     0.035 A 
ATOM     28  C   UNL d   1     -41.172  14.873  17.103  0.00  0.00     0.007 A 
ATOM     29 BR   UNL d   1     -41.361  15.922  16.148  0.00  0.00    -0.049 Br
ATOM     30  C   UNL d   1     -40.674  14.401  17.554  0.00  0.00     0.013 A 
ENDBRANCH  21  24
ENDBRANCH   1  21
TORSDOF 9
ENDMDL
MODEL 2
REMARK VINA RESULT:      -3.3      5.145      8.294
REMARK  9 active torsions:
REMARK  status: ('A' for Active; 'I' for Inactive)
REMARK    1  A    between atoms: N_2  and  S_1 
REMARK    2  A    between atoms: C_5  and  S_1 
REMARK    3  A    between atoms: C_15  and  C_3 
REMARK       I    between atoms: C_4  and  N_11 
REMARK    4  A    between atoms: C_7  and  C_4 
REMARK       I    between atoms: N_22  and  C_7 
REMARK    5  A    between atoms: N_8  and  C_28 
REMARK    6  A    between atoms: N_11  and  C_15 
REMARK    7  A    between atoms: C_30  and  N_22 
REMARK    8  A    between atoms: C_28  and  C_29 
REMARK    9  A    between atoms: C_29  and  C_30 
ROOT
ATOM      1  N   UNL d   1     -48.033  11.808  23.018  0.00  0.00    -0.207 N 
ATOM      2  C   UNL d   1     -47.237  11.998  23.030  0.00  0.00     0.197 A 
ATOM      3  O   UNL d   1     -46.821  11.419  23.443  0.00  0.00    -0.285 OA
ATOM      4  C   UNL d   1     -48.122  11.095  23.432  0.00  0.00     0.120 A 
ATOM      5  C   UNL d   1     -47.375  10.848  23.698  0.00  0.00     0.144 A 
ENDROOT
BRANCH   2   6
ATOM      6  C   UNL d   1     -46.896  12.666  22.684  0.00  0.00     0.146 C 
BRANCH   6   7
ATOM      7  N   UNL d   1     -46.571  13.259  23.152  0.00  0.00    -0.199 NA
ATOM      8  C   UNL d   1     -45.868  13.616  22.928  0.00  0.00     0.337 C 
ATOM      9  O   UNL d   1     -45.543  14.210  23.396  0.00  0.00    -0.260 OA
BRANCH   8  10
ATOM     10  C   UNL d   1     -45.481  13.385  22.236  0.00  0.00     0.337 C 
ATOM     11  O   UNL d   1     -45.895  13.374  21.524  0.00  0.00    -0.260 OA
ATOM     12  N   UNL d   1     -44.700  13.169  22.253  0.00  0.00    -0.202 NA
BRANCH  12  13
ATOM     13  C   UNL d   1     -44.308  12.937  21.562  0.00  0.00     0.104 C 
BRANCH  13  14
ATOM     14  C   UNL d   1     -43.490  12.887  21.537  0.00  0.00     0.040 C 
BRANCH  14  15
ATOM     15  C   UNL d   1     -43.074  13.136  20.885  0.00  0.00     0.083 C 
BRANCH  15  16
ATOM     16  N   UNL d   1     -42.300  13.398  20.951  0.00  0.00    -0.285 N 
ATOM     17  C   UNL d   1     -41.983  13.712  20.254  0.00  0.00     0.183 A 
ATOM     18  N   UNL d   1     -41.208  13.951  20.402  0.00  0.00    -0.222 NA
ATOM     19  C   UNL d   1     -41.041  13.785  21.195  0.00  0.00     0.120 A 
ATOM     20  C   UNL d   1     -41.715  13.445  21.533  0.00  0.00     0.102 A 
ENDBRANCH  15  16
ENDBRANCH  14  15
ENDBRANCH  13  14
ENDBRANCH  12  13
ENDBRANCH   8  10
ENDBRANCH   6   7
ENDBRANCH   2   6
BRANCH   1  21
ATOM     21  S   UNL d   1     -48.635  12.239  22.665  0.00  0.00     0.273 S 
ATOM     22  O   UNL d   1     -48.889  12.489  23.405  0.00  0.00    -0.200 OA
ATOM     23  O   UNL d   1     -48.381  11.989  21.926  0.00  0.00    -0.200 OA
BRANCH  21  24
ATOM     24  C   UNL d   1     -49.238  12.670  22.312  0.00  0.00     0.104 A 
ATOM     25  C   UNL d   1     -49.661  12.345  21.667  0.00  0.00     0.013 A 
ATOM     26  C   UNL d   1     -50.264  12.776  21.314  0.00  0.00     0.007 A 
ATOM     27  C   UNL d   1     -50.455  13.537  21.596  0.00  0.00     0.035 A 
ATOM     28  C   UNL d   1     -50.034  13.854  22.235  0.00  0.00     0.007 A 
ATOM     29 BR   UNL d   1     -51.060  13.973  21.244  0.00  0.00    -0.049 Br
ATOM     30  C   UNL d   1     -49.431  13.423  22.587  0.00  0.00     0.013 A 
ENDBRANCH  21  24
ENDBRANCH   1  21
TORSDOF 9
ENDMDL
MODEL 3
REMARK VINA RESULT:      -3.2      1.614      2.218
REMARK  9 active torsions:
REMARK  status: ('A' for Active; 'I' for Inactive)
REMARK    1  A    between atoms: N_2  and  S_1 
REMARK    2  A    between atoms: C_5  and  S_1 
REMARK    3  A    between atoms: C_15  and  C_3 
REMARK       I    between atoms: C_4  and  N_11 
REMARK    4  A    between atoms: C_7  and  C_4 
REMARK       I    between atoms: N_22  and  C_7 
REMARK    5  A    between atoms: N_8  and  C_28 
REMARK    6  A    between atoms: N_11  and  C_15 
REMARK    7  A    between atoms: C_30  and  N_22 
REMARK    8  A    between atoms: C_28  and  C_29 
REMARK    9  A    between atoms: C_29  and  C_30 
ROOT
ATOM      1  N   UNL d   1     -38.570  14.243  20.581  0.00  0.00    -0.207 N 
ATOM      2  C   UNL d   1     -39.242  14.423  21.013  0.00  0.00     0.197 A 
ATOM      3  O   UNL d   1     -39.048  14.483  21.811  0.00  0.00    -0.285 OA
ATOM      4  C   UNL d   1     -37.940  14.188  21.117  0.00  0.00     0.120 A 
ATOM      5  C   UNL d   1     -38.228  14.336  21.882  0.00  0.00     0.144 A 
ENDROOT
BRANCH   2   6
ATOM      6  C   UNL d   1     -39.999  14.529  20.703  0.00  0.00     0.146 C 
BRANCH   6   7
ATOM      7  N   UNL d   1     -40.442  15.194  20.901  0.00  0.00    -0.199 NA
ATOM      8  C   UNL d   1     -41.261  15.158  20.887  0.00  0.00     0.337 C 
ATOM      9  O   UNL d   1     -41.703  15.824  21.085  0.00  0.00    -0.260 OA
BRANCH   8  10
ATOM     10  C   UNL d   1     -41.646  14.459  20.676  0.00  0.00     0.337 C 
ATOM     11  O   UNL d   1     -41.574  14.171  19.909  0.00  0.00    -0.260 OA
ATOM     12  N   UNL d   1     -42.095  14.057  21.219  0.00  0.00    -0.202 NA
BRANCH  12  13
ATOM     13  C   UNL d   1     -42.484  13.355  21.013  0.00  0.00     0.104 C 
BRANCH  13  14
ATOM     14  C   UNL d   1     -43.022  13.006  21.523  0.00  0.00     0.040 C 
BRANCH  14  15
ATOM     15  C   UNL d   1     -43.806  12.938  21.323  0.00  0.00     0.083 C 
BRANCH  15  16
ATOM     16  N   UNL d   1     -44.369  12.727  21.880  0.00  0.00    -0.285 N 
ATOM     17  C   UNL d   1     -44.969  13.286  21.992  0.00  0.00     0.183 A 
ATOM     18  N   UNL d   1     -45.491  13.001  22.563  0.00  0.00    -0.222 NA
ATOM     19  C   UNL d   1     -45.215  12.261  22.808  0.00  0.00     0.120 A 
ATOM     20  C   UNL d   1     -44.524  12.093  22.387  0.00  0.00     0.102 A 
ENDBRANCH  15  16
ENDBRANCH  14  15
ENDBRANCH  13  14
ENDBRANCH  12  13
ENDBRANCH   8  10
ENDBRANCH   6   7
ENDBRANCH   2   6
BRANCH   1  21
ATOM     21  S   UNL d   1     -38.523  14.135  19.770  0.00  0.00     0.273 S 
ATOM     22  O   UNL d   1     -38.437  14.945  19.667  0.00  0.00    -0.200 OA
ATOM     23  O   UNL d   1     -38.609  13.325  19.871  0.00  0.00    -0.200 OA
BRANCH  21  24
ATOM     24  C   UNL d   1     -38.476  14.027  18.957  0.00  0.00     0.104 A 
ATOM     25  C   UNL d   1     -38.221  14.655  18.466  0.00  0.00     0.013 A 
ATOM     26  C   UNL d   1     -38.174  14.547  17.653  0.00  0.00     0.007 A 
ATOM     27  C   UNL d   1     -38.380  13.813  17.317  0.00  0.00     0.035 A 
ATOM     28  C   UNL d   1     -38.631  13.194  17.806  0.00  0.00     0.007 A 
ATOM     29 BR   UNL d   1     -38.334  13.700  16.501  0.00  0.00    -0.049 Br
ATOM     30  C   UNL d   1     -38.678  13.303  18.618  0.00  0.00     0.013 A 
ENDBRANCH  21  24
ENDBRANCH   1  21
TORSDOF 9
ENDMDL
MODEL 4
REMARK VINA RESULT:      -3.1      5.432      8.508
REMARK  9 active torsions:
REMARK  status: ('A' for Active; 'I' for Inactive)
REMARK    1  A    between atoms: N_2  and  S_1 
REMARK    2  A    between atoms: C_5  and  S_1 
REMARK    3  A    between atoms: C_15  and  C_3 
REMARK       I    between atoms: C_4  and  N_11 
REMARK    4  A    between atoms: C_7  and  C_4 
REMARK       I    between atoms: N_22  and  C_7 
REMARK    5  A    between atoms: N_8  and  C_28 
REMARK    6  A    between atoms: N_11  and  C_15 
REMARK    7  A    between atoms: C_30  and  N_22 
REMARK    8  A    between atoms: C_28  and  C_29 
REMARK    9  A    between atoms: C_29  and  C_30 
ROOT
ATOM      1  N   UNL d   1     -48.697  12.835  21.717  0.00  0.00    -0.207 N 
ATOM      2  C   UNL d   1     -47.929  12.577  21.833  0.00  0.00     0.197 A 
ATOM      3  O   UNL d   1     -47.770  11.949  21.325  0.00  0.00    -0.285 OA
ATOM      4  C   UNL d   1     -49.030  12.361  21.124  0.00  0.00     0.120 A 
ATOM      5  C   UNL d   1     -48.461  11.809  20.876  0.00  0.00     0.144 A 
ENDROOT
BRANCH   2   6
ATOM      6  C   UNL d   1     -47.392  12.892  22.374  0.00  0.00     0.146 C 
BRANCH   6   7
ATOM      7  N   UNL d   1     -47.057  12.416  22.956  0.00  0.00    -0.199 NA
ATOM      8  C   UNL d   1     -46.254  12.469  23.114  0.00  0.00     0.337 C 
ATOM      9  O   UNL d   1     -45.919  11.993  23.696  0.00  0.00    -0.260 OA
BRANCH   8  10
ATOM     10  C   UNL d   1     -45.778  12.997  22.694  0.00  0.00     0.337 C 
ATOM     11  O   UNL d   1     -45.895  13.807  22.780  0.00  0.00    -0.260 OA
ATOM     12  N   UNL d   1     -45.197  12.723  22.200  0.00  0.00    -0.202 NA
BRANCH  12  13
ATOM     13  C   UNL d   1     -44.716  13.247  21.776  0.00  0.00     0.104 C 
BRANCH  13  14
ATOM     14  C   UNL d   1     -43.905  13.136  21.735  0.00  0.00     0.040 C 
BRANCH  14  15
ATOM     15  C   UNL d   1     -43.479  13.391  21.092  0.00  0.00     0.083 C 
BRANCH  15  16
ATOM     16  N   UNL d   1     -42.660  13.410  21.107  0.00  0.00    -0.285 N 
ATOM     17  C   UNL d   1     -42.309  13.687  20.410  0.00  0.00     0.183 A 
ATOM     18  N   UNL d   1     -41.490  13.676  20.505  0.00  0.00    -0.222 NA
ATOM     19  C   UNL d   1     -41.329  13.391  21.265  0.00  0.00     0.120 A 
ATOM     20  C   UNL d   1     -42.050  13.227  21.636  0.00  0.00     0.102 A 
ENDBRANCH  15  16
ENDBRANCH  14  15
ENDBRANCH  13  14
ENDBRANCH  12  13
ENDBRANCH   8  10
ENDBRANCH   6   7
ENDBRANCH   2   6
BRANCH   1  21
ATOM     21  S   UNL d   1     -49.074  13.448  22.111  0.00  0.00     0.273 S 
ATOM     22  O   UNL d   1     -48.851  13.968  21.515  0.00  0.00    -0.200 OA
ATOM     23  O   UNL d   1     -49.296  12.929  22.707  0.00  0.00    -0.200 OA
BRANCH  21  24
ATOM     24  C   UNL d   1     -49.450  14.062  22.506  0.00  0.00     0.104 A 
ATOM     25  C   UNL d   1     -50.106  13.901  22.999  0.00  0.00     0.013 A 
ATOM     26  C   UNL d   1     -50.483  14.515  23.394  0.00  0.00     0.007 A 
ATOM     27  C   UNL d   1     -50.213  15.298  23.303  0.00  0.00     0.035 A 
ATOM     28  C   UNL d   1     -49.563  15.452  22.814  0.00  0.00     0.007 A 
ATOM     29 BR   UNL d   1     -50.589  15.917  23.698  0.00  0.00    -0.049 Br
ATOM     30  C   UNL d   1     -49.187  14.838  22.420  0.00  0.00     0.013 A 
ENDBRANCH  21  24
ENDBRANCH   1  21
TORSDOF 9
ENDMDL
MODEL 5
REMARK VINA RESULT:      -2.9      6.886      9.458
REMARK  9 active torsions:
REMARK  status: ('A' for Active; 'I' for Inactive)
REMARK    1  A    between atoms: N_2  and  S_1 
REMARK    2  A    between atoms: C_5  and  S_1 
REMARK    3  A    between atoms: C_15  and  C_3 
REMARK       I    between atoms: C_4  and  N_11 
REMARK    4  A    between atoms: C_7  and  C_4 
REMARK       I    between atoms: N_22  and  C_7 
REMARK    5  A    between atoms: N_8  and  C_28 
REMARK    6  A    between atoms: N_11  and  C_15 
REMARK    7  A    between atoms: C_30  and  N_22 
REMARK    8  A    between atoms: C_28  and  C_29 
REMARK    9  A    between atoms: C_29  and  C_30 
ROOT
ATOM      1  N   UNL d   1     -50.008  12.814  21.780  0.00  0.00    -0.207 N 
ATOM      2  C   UNL d   1     -50.072  13.629  21.821  0.00  0.00     0.197 A 
ATOM      3  O   UNL d   1     -50.714  13.879  21.369  0.00  0.00    -0.285 OA
ATOM      4  C   UNL d   1     -50.622  12.543  21.293  0.00  0.00     0.120 A 
ATOM      5  C   UNL d   1     -51.064  13.197  21.034  0.00  0.00     0.144 A 
ENDROOT
BRANCH   2   6
ATOM      6  C   UNL d   1     -49.574  14.131  22.246  0.00  0.00     0.146 C 
BRANCH   6   7
ATOM      7  N   UNL d   1     -49.886  14.692  22.760  0.00  0.00    -0.199 NA
ATOM      8  C   UNL d   1     -49.450  15.360  22.949  0.00  0.00     0.337 C 
ATOM      9  O   UNL d   1     -49.762  15.922  23.463  0.00  0.00    -0.260 OA
BRANCH   8  10
ATOM     10  C   UNL d   1     -48.698  15.475  22.628  0.00  0.00     0.337 C 
ATOM     11  O   UNL d   1     -48.617  15.879  21.916  0.00  0.00    -0.260 OA
ATOM     12  N   UNL d   1     -48.040  15.192  23.008  0.00  0.00    -0.202 NA
BRANCH  12  13
ATOM     13  C   UNL d   1     -47.283  15.304  22.691  0.00  0.00     0.104 C 
BRANCH  13  14
ATOM     14  C   UNL d   1     -46.842  14.669  22.418  0.00  0.00     0.040 C 
BRANCH  14  15
ATOM     15  C   UNL d   1     -46.118  14.492  22.741  0.00  0.00     0.083 C 
BRANCH  15  16
ATOM     16  N   UNL d   1     -45.652  13.893  22.432  0.00  0.00    -0.285 N 
ATOM     17  C   UNL d   1     -45.280  13.419  22.999  0.00  0.00     0.183 A 
ATOM     18  N   UNL d   1     -44.833  12.845  22.610  0.00  0.00    -0.222 NA
ATOM     19  C   UNL d   1     -44.927  12.962  21.797  0.00  0.00     0.120 A 
ATOM     20  C   UNL d   1     -45.432  13.608  21.687  0.00  0.00     0.102 A 
ENDBRANCH  15  16
ENDBRANCH  14  15
ENDBRANCH  13  14
ENDBRANCH  12  13
ENDBRANCH   8  10
ENDBRANCH   6   7
ENDBRANCH   2   6
BRANCH   1  21
ATOM     21  S   UNL d   1     -49.444  12.347  22.149  0.00  0.00     0.273 S 
ATOM     22  O   UNL d   1     -48.871  12.631  21.634  0.00  0.00    -0.200 OA
ATOM     23  O   UNL d   1     -50.016  12.063  22.665  0.00  0.00    -0.200 OA
BRANCH  21  24
ATOM     24  C   UNL d   1     -48.880  11.880  22.520  0.00  0.00     0.104 A 
ATOM     25  C   UNL d   1     -48.447  11.317  22.076  0.00  0.00     0.013 A 
ATOM     26  C   UNL d   1     -47.883  10.850  22.446  0.00  0.00     0.007 A 
ATOM     27  C   UNL d   1     -47.740  10.934  23.263  0.00  0.00     0.035 A 
ATOM     28  C   UNL d   1     -48.171  11.492  23.698  0.00  0.00     0.007 A 
ATOM     29 BR   UNL d   1     -47.174  10.467  23.639  0.00  0.00    -0.049 Br
ATOM     30  C   UNL d   1     -48.735  11.959  23.327  0.00  0.00     0.013 A 
ENDBRANCH  21  24
ENDBRANCH   1  21
TORSDOF 9
ENDMDL
MODEL 6
REMARK VINA RESULT:      -2.0      3.700      6.913
REMARK  9 active torsions:
REMARK  status: ('A' for Active; 'I' for Inactive)
REMARK    1  A    between atoms: N_2  and  S_1 
REMARK    2  A    between atoms: C_5  and  S_1 
REMARK    3  A    between atoms: C_15  and  C_3 
REMARK       I    between atoms: C_4  and  N_11 
REMARK    4  A    between atoms: C_7  and  C_4 
REMARK       I    between atoms: N_22  and  C_7 
REMARK    5  A    between atoms: N_8  and  C_28 
REMARK    6  A    between atoms: N_11  and  C_15 
REMARK    7  A    between atoms: C_30  and  N_22 
REMARK    8  A    between atoms: C_28  and  C_29 
REMARK    9  A    between atoms: C_29  and  C_30 
ROOT
ATOM      1  N   UNL d   1     -45.677  12.195  23.091  0.00  0.00    -0.207 N 
ATOM      2  C   UNL d   1     -44.941  12.112  22.743  0.00  0.00     0.197 A 
ATOM      3  O   UNL d   1     -44.570  11.438  23.038  0.00  0.00    -0.285 OA
ATOM      4  C   UNL d   1     -45.774  11.560  23.616  0.00  0.00     0.120 A 
ATOM      5  C   UNL d   1     -45.092  11.087  23.589  0.00  0.00     0.144 A 
ENDROOT
BRANCH   2   6
ATOM      6  C   UNL d   1     -44.613  12.622  22.182  0.00  0.00     0.146 C 
BRANCH   6   7
ATOM      7  N   UNL d   1     -44.450  12.356  21.421  0.00  0.00    -0.199 NA
ATOM      8  C   UNL d   1     -43.811  12.663  21.010  0.00  0.00     0.337 C 
ATOM      9  O   UNL d   1     -43.648  12.397  20.248  0.00  0.00    -0.260 OA
BRANCH   8  10
ATOM     10  C   UNL d   1     -43.327  13.237  21.354  0.00  0.00     0.337 C 
ATOM     11  O   UNL d   1     -43.666  13.838  21.802  0.00  0.00    -0.260 OA
ATOM     12  N   UNL d   1     -42.523  13.212  21.253  0.00  0.00    -0.202 NA
BRANCH  12  13
ATOM     13  C   UNL d   1     -42.033  13.786  21.595  0.00  0.00     0.104 C 
BRANCH  13  14
ATOM     14  C   UNL d   1     -41.328  14.005  21.239  0.00  0.00     0.040 C 
BRANCH  14  15
ATOM     15  C   UNL d   1     -40.739  14.369  21.665  0.00  0.00     0.083 C 
BRANCH  15  16
ATOM     16  N   UNL d   1     -40.027  14.571  21.314  0.00  0.00    -0.285 N 
ATOM     17  C   UNL d   1     -39.377  14.566  21.827  0.00  0.00     0.183 A 
ATOM     18  N   UNL d   1     -38.704  14.778  21.401  0.00  0.00    -0.222 NA
ATOM     19  C   UNL d   1     -38.935  14.917  20.620  0.00  0.00     0.120 A 
ATOM     20  C   UNL d   1     -39.750  14.790  20.566  0.00  0.00     0.102 A 
ENDBRANCH  15  16
ENDBRANCH  14  15
ENDBRANCH  13  14
ENDBRANCH  12  13
ENDBRANCH   8  10
ENDBRANCH   6   7
ENDBRANCH   2   6
BRANCH   1  21
ATOM     21  S   UNL d   1     -46.222  12.791  22.951  0.00  0.00     0.273 S 
ATOM     22  O   UNL d   1     -45.905  13.227  23.571  0.00  0.00    -0.200 OA
ATOM     23  O   UNL d   1     -46.539  12.356  22.331  0.00  0.00    -0.200 OA
BRANCH  21  24
ATOM     24  C   UNL d   1     -46.768  13.388  22.810  0.00  0.00     0.104 A 
ATOM     25  C   UNL d   1     -47.518  13.202  22.491  0.00  0.00     0.013 A 
ATOM     26  C   UNL d   1     -48.064  13.799  22.351  0.00  0.00     0.007 A 
ATOM     27  C   UNL d   1     -47.871  14.591  22.525  0.00  0.00     0.035 A 
ATOM     28  C   UNL d   1     -47.127  14.771  22.840  0.00  0.00     0.007 A 
ATOM     29 BR   UNL d   1     -48.417  15.193  22.385  0.00  0.00    -0.049 Br
ATOM     30  C   UNL d   1     -46.582  14.173  22.981  0.00  0.00     0.013 A 
ENDBRANCH  21  24
ENDBRANCH   1  21
TORSDOF 9
ENDMDL
MODEL 7
REMARK VINA RESULT:      -1.9      6.089      9.265
REMARK  9 active torsions:
REMARK  status: ('A' for Active; 'I' for Inactive)
REMARK    1  A    between atoms: N_2  and  S_1 
REMARK    2  A    between atoms: C_5  and  S_1 
REMARK    3  A    between atoms: C_15  and  C_3 
REMARK       I    between atoms: C_4  and  N_11 
REMARK    4  A    between atoms: C_7  and  C_4 
REMARK       I    between atoms: N_22  and  C_7 
REMARK    5  A    between atoms: N_8  and  C_28 
REMARK    6  A    between atoms: N_11  and  C_15 
REMARK    7  A    between atoms: C_30  and  N_22 
REMARK    8  A    between atoms: C_28  and  C_29 
REMARK    9  A    between atoms: C_29  and  C_30 
ROOT
ATOM      1  N   UNL d   1     -49.862  14.457  22.786  0.00  0.00    -0.207 N 
ATOM      2  C   UNL d   1     -49.271  15.012  22.673  0.00  0.00     0.197 A 
ATOM      3  O   UNL d   1     -49.601  15.766  22.651  0.00  0.00    -0.285 OA
ATOM      4  C   UNL d   1     -50.580  14.869  22.837  0.00  0.00     0.120 A 
ATOM      5  C   UNL d   1     -50.426  15.680  22.754  0.00  0.00     0.144 A 
ENDROOT
BRANCH   2   6
ATOM      6  C   UNL d   1     -48.466  14.848  22.592  0.00  0.00     0.146 C 
BRANCH   6   7
ATOM      7  N   UNL d   1     -47.941  15.438  22.362  0.00  0.00    -0.199 NA
ATOM      8  C   UNL d   1     -47.133  15.302  22.396  0.00  0.00     0.337 C 
ATOM      9  O   UNL d   1     -46.608  15.892  22.166  0.00  0.00    -0.260 OA
BRANCH   8  10
ATOM     10  C   UNL d   1     -46.841  14.575  22.658  0.00  0.00     0.337 C 
ATOM     11  O   UNL d   1     -47.020  14.316  23.419  0.00  0.00    -0.260 OA
ATOM     12  N   UNL d   1     -46.381  14.117  22.173  0.00  0.00    -0.202 NA
BRANCH  12  13
ATOM     13  C   UNL d   1     -46.085  13.388  22.431  0.00  0.00     0.104 C 
BRANCH  13  14
ATOM     14  C   UNL d   1     -45.336  13.135  22.212  0.00  0.00     0.040 C 
BRANCH  14  15
ATOM     15  C   UNL d   1     -44.958  12.543  22.621  0.00  0.00     0.083 C 
BRANCH  15  16
ATOM     16  N   UNL d   1     -44.229  12.259  22.377  0.00  0.00    -0.285 N 
ATOM     17  C   UNL d   1     -44.012  11.534  22.712  0.00  0.00     0.183 A 
ATOM     18  N   UNL d   1     -43.273  11.319  22.417  0.00  0.00    -0.222 NA
ATOM     19  C   UNL d   1     -43.028  11.912  21.896  0.00  0.00     0.120 A 
ATOM     20  C   UNL d   1     -43.617  12.492  21.871  0.00  0.00     0.102 A 
ENDBRANCH  15  16
ENDBRANCH  14  15
ENDBRANCH  13  14
ENDBRANCH  12  13
ENDBRANCH   8  10
ENDBRANCH   6   7
ENDBRANCH   2   6
BRANCH   1  21
ATOM     21  S   UNL d   1     -49.768  13.644  22.840  0.00  0.00     0.273 S 
ATOM     22  O   UNL d   1     -49.675  13.709  23.654  0.00  0.00    -0.200 OA
ATOM     23  O   UNL d   1     -49.861  13.578  22.028  0.00  0.00    -0.200 OA
BRANCH  21  24
ATOM     24  C   UNL d   1     -49.674  12.830  22.895  0.00  0.00     0.104 A 
ATOM     25  C   UNL d   1     -49.717  12.454  23.640  0.00  0.00     0.013 A 
ATOM     26  C   UNL d   1     -49.623  11.639  23.695  0.00  0.00     0.007 A 
ATOM     27  C   UNL d   1     -49.485  11.188  23.008  0.00  0.00     0.035 A 
ATOM     28  C   UNL d   1     -49.443  11.565  22.272  0.00  0.00     0.007 A 
ATOM     29 BR   UNL d   1     -49.390  10.370  23.058  0.00  0.00    -0.049 Br
ATOM     30  C   UNL d   1     -49.537  12.379  22.218  0.00  0.00     0.013 A 
ENDBRANCH  21  24
ENDBRANCH   1  21
TORSDOF 9
ENDMDL
MODEL 8
REMARK VINA RESULT:      -1.9      7.537      9.514
REMARK  9 active torsions:
REMARK  status: ('A' for Active; 'I' for Inactive)
REMARK    1  A    between atoms: N_2  and  S_1 
REMARK    2  A    between atoms: C_5  and  S_1 
REMARK    3  A    between atoms: C_15  and  C_3 
REMARK       I    between atoms: C_4  and  N_11 
REMARK    4  A    between atoms: C_7  and  C_4 
REMARK       I    between atoms: N_22  and  C_7 
REMARK    5  A    between atoms: N_8  and  C_28 
REMARK    6  A    between atoms: N_11  and  C_15 
REMARK    7  A    between atoms: C_30  and  N_22 
REMARK    8  A    between atoms: C_28  and  C_29 
REMARK    9  A    between atoms: C_29  and  C_30 
ROOT
ATOM      1  N   UNL d   1     -49.760  14.578  23.057  0.00  0.00    -0.207 N 
ATOM      2  C   UNL d   1     -50.215  13.903  23.139  0.00  0.00     0.197 A 
ATOM      3  O   UNL d   1     -51.005  14.113  23.241  0.00  0.00    -0.285 OA
ATOM      4  C   UNL d   1     -50.272  15.228  23.107  0.00  0.00     0.120 A 
ATOM      5  C   UNL d   1     -51.045  14.948  23.221  0.00  0.00     0.144 A 
ENDROOT
BRANCH   2   6
ATOM      6  C   UNL d   1     -49.933  13.127  23.124  0.00  0.00     0.146 C 
BRANCH   6   7
ATOM      7  N   UNL d   1     -50.376  12.515  23.452  0.00  0.00    -0.199 NA
ATOM      8  C   UNL d   1     -50.140  11.738  23.344  0.00  0.00     0.337 C 
ATOM      9  O   UNL d   1     -50.582  11.126  23.672  0.00  0.00    -0.260 OA
BRANCH   8  10
ATOM     10  C   UNL d   1     -49.460  11.562  22.909  0.00  0.00     0.337 C 
ATOM     11  O   UNL d   1     -49.518  11.435  22.098  0.00  0.00    -0.260 OA
ATOM     12  N   UNL d   1     -48.738  11.514  23.275  0.00  0.00    -0.202 NA
BRANCH  12  13
ATOM     13  C   UNL d   1     -48.053  11.338  22.844  0.00  0.00     0.104 C 
BRANCH  13  14
ATOM     14  C   UNL d   1     -47.363  11.110  23.223  0.00  0.00     0.040 C 
BRANCH  14  15
ATOM     15  C   UNL d   1     -46.751  10.770  22.810  0.00  0.00     0.083 C 
BRANCH  15  16
ATOM     16  N   UNL d   1     -45.974  10.868  23.050  0.00  0.00    -0.285 N 
ATOM     17  C   UNL d   1     -45.658  10.226  23.467  0.00  0.00     0.183 A 
ATOM     18  N   UNL d   1     -44.879  10.402  23.670  0.00  0.00    -0.222 NA
ATOM     19  C   UNL d   1     -44.707  11.157  23.379  0.00  0.00     0.120 A 
ATOM     20  C   UNL d   1     -45.382  11.444  22.996  0.00  0.00     0.102 A 
ENDBRANCH  15  16
ENDBRANCH  14  15
ENDBRANCH  13  14
ENDBRANCH  12  13
ENDBRANCH   8  10
ENDBRANCH   6   7
ENDBRANCH   2   6
BRANCH   1  21
ATOM     21  S   UNL d   1     -48.948  14.611  22.945  0.00  0.00     0.273 S 
ATOM     22  O   UNL d   1     -49.039  14.297  22.191  0.00  0.00    -0.200 OA
ATOM     23  O   UNL d   1     -48.857  14.925  23.698  0.00  0.00    -0.200 OA
BRANCH  21  24
ATOM     24  C   UNL d   1     -48.135  14.645  22.833  0.00  0.00     0.104 A 
ATOM     25  C   UNL d   1     -47.623  14.260  23.371  0.00  0.00     0.013 A 
ATOM     26  C   UNL d   1     -46.810  14.294  23.259  0.00  0.00     0.007 A 
ATOM     27  C   UNL d   1     -46.495  14.711  22.610  0.00  0.00     0.035 A 
ATOM     28  C   UNL d   1     -47.005  15.090  22.080  0.00  0.00     0.007 A 
ATOM     29 BR   UNL d   1     -45.679  14.747  22.494  0.00  0.00    -0.049 Br
ATOM     30  C   UNL d   1     -47.818  15.056  22.193  0.00  0.00     0.013 A 
ENDBRANCH  21  24
ENDBRANCH   1  21
TORSDOF 9
ENDMDL
