MODEL 1
REMARK VINA RESULT:      -2.6      0.000      0.000
REMARK  3 active torsions:
REMARK  status: ('A' for Active; 'I' for Inactive)
REMARK       I    between atoms: C_4  and  N_1 
REMARK    1  A    between atoms: N_3  and  C_2 
REMARK    2  A    between atoms: C_9  and  C_4 
REMARK    3  A    between atoms: N_10  and  C_5 
ROOT
ATOM      1  C   UNL d   1      56.616  -0.729  32.141  0.00  0.00     0.143 A 
ATOM      2  C   UNL d   1      56.488   0.082  32.356  0.00  0.00     0.086 A 
ATOM      3  C   UNL d   1      57.042  -0.879  31.436  0.00  0.00     0.030 A 
ATOM      4  C   UNL d   1      57.319  -0.251  30.983  0.00  0.00     0.058 A 
ATOM      5  C   UNL d   1      56.775   0.681  31.885  0.00  0.00     0.019 A 
ATOM      6  C   UNL d   1      57.190   0.507  31.199  0.00  0.00     0.006 A 
ENDROOT
BRANCH   4   7
ATOM      7  C   UNL d   1      57.737  -0.435  30.293  0.00  0.00     0.265 C 
ATOM      8  N   UNL d   1      58.562  -0.271  30.273  0.00  0.00    -0.275 N 
ATOM      9  C   UNL d   1      59.068  -0.415  29.638  0.00  0.00     0.067 A 
ATOM     10  C   UNL d   1      59.003   0.061  30.889  0.00  0.00     0.067 A 
ATOM     11  C   UNL d   1      59.799  -0.179  29.852  0.00  0.00     0.019 A 
ATOM     12  C   UNL d   1      58.988  -0.818  28.651  0.00  0.00     0.019 C 
ATOM     13  C   UNL d   1      59.783   0.120  30.625  0.00  0.00     0.018 A 
ATOM     14  C   UNL d   1      60.358   0.435  31.125  0.00  0.00     0.002 A 
ATOM     15  C   UNL d   1      60.145   0.682  31.867  0.00  0.00     0.000 A 
ATOM     16  C   UNL d   1      59.378   0.627  32.133  0.00  0.00     0.002 A 
ATOM     17  C   UNL d   1      58.798   0.313  31.640  0.00  0.00     0.018 A 
ATOM     18  O   UNL d   1      57.369  -0.772  29.627  0.00  0.00    -0.267 OA
ENDBRANCH   4   7
BRANCH   1  19
ATOM     19  N   UNL d   1      56.325  -1.346  32.619  0.00  0.00    -0.112 N 
ATOM     20  O   UNL d   1      55.599  -1.736  32.417  0.00  0.00    -0.532 OA
ATOM     21  O   UNL d   1      56.737  -1.588  33.296  0.00  0.00    -0.532 OA
ENDBRANCH   1  19
BRANCH   2  22
ATOM     22  N   UNL d   1      56.066   0.255  33.053  0.00  0.00    -0.302 N 
ATOM     23  C   UNL d   1      56.458   0.425  33.781  0.00  0.00     0.080 A 
ATOM     24  C   UNL d   1      56.019   0.594  34.459  0.00  0.00     0.019 A 
ATOM     25  C   UNL d   1      55.201   0.599  34.434  0.00  0.00     0.003 A 
ATOM     26  C   UNL d   1      54.790   0.435  33.730  0.00  0.00     0.019 A 
ATOM     27  C   UNL d   1      55.225   0.266  33.049  0.00  0.00     0.080 A 
ENDBRANCH   2  22
TORSDOF 3
ENDMDL
