MODEL 1
REMARK VINA RESULT:      -9.4      0.000      0.000
REMARK  0 active torsions:
REMARK  status: ('A' for Active; 'I' for Inactive)
ROOT
ATOM      1  C   UNL d   1      53.853  33.079  54.392  0.00  0.00     0.110 A 
ATOM      2  C   UNL d   1      53.658  32.496  53.841  0.00  0.00     0.110 A 
ATOM      3  C   UNL d   1      53.469  33.814  54.381  0.00  0.00     0.207 A 
ATOM      4  C   UNL d   1      53.080  32.650  53.279  0.00  0.00     0.207 A 
ATOM      5  C   UNL d   1      52.897  33.947  53.812  0.00  0.00     0.043 A 
ATOM      6  C   UNL d   1      52.702  33.365  53.261  0.00  0.00     0.043 A 
ATOM      7  O   UNL d   1      53.662  34.390  54.926  0.00  0.00    -0.286 OA
ATOM      8  O   UNL d   1      52.882  32.071  52.725  0.00  0.00    -0.286 OA
ATOM      9 CL   UNL d   1      54.042  31.776  53.862  0.00  0.00    -0.078 Cl
ATOM     10 CL   UNL d   1      54.433  32.931  54.960  0.00  0.00    -0.078 Cl
ATOM     11  C   UNL d   1      52.513  34.683  53.801  0.00  0.00     0.003 A 
ATOM     12  C   UNL d   1      52.118  33.537  52.702  0.00  0.00     0.003 A 
ATOM     13  C   UNL d   1      51.934  34.833  53.236  0.00  0.00     0.000 A 
ATOM     14  C   UNL d   1      51.727  34.251  52.670  0.00  0.00     0.000 A 
ENDROOT
TORSDOF 0
ENDMDL
MODEL 2
REMARK VINA RESULT:      -9.4      0.026      1.732
REMARK  0 active torsions:
REMARK  status: ('A' for Active; 'I' for Inactive)
ROOT
ATOM      1  C   UNL d   1      53.666  32.487  53.833  0.00  0.00     0.110 A 
ATOM      2  C   UNL d   1      53.869  33.068  54.382  0.00  0.00     0.110 A 
ATOM      3  C   UNL d   1      53.076  32.628  53.268  0.00  0.00     0.207 A 
ATOM      4  C   UNL d   1      53.481  33.792  54.365  0.00  0.00     0.207 A 
ATOM      5  C   UNL d   1      52.701  33.355  53.268  0.00  0.00     0.043 A 
ATOM      6  C   UNL d   1      52.904  33.937  53.817  0.00  0.00     0.043 A 
ATOM      7  O   UNL d   1      52.875  32.053  52.726  0.00  0.00    -0.286 OA
ATOM      8  O   UNL d   1      53.680  34.377  54.912  0.00  0.00    -0.286 OA
ATOM      9 CL   UNL d   1      54.452  32.918  54.934  0.00  0.00    -0.078 Cl
ATOM     10 CL   UNL d   1      54.052  31.757  53.845  0.00  0.00    -0.078 Cl
ATOM     11  C   UNL d   1      52.111  33.497  52.703  0.00  0.00     0.003 A 
ATOM     12  C   UNL d   1      52.503  34.659  53.785  0.00  0.00     0.003 A 
ATOM     13  C   UNL d   1      51.724  34.223  52.689  0.00  0.00     0.000 A 
ATOM     14  C   UNL d   1      51.920  34.823  53.241  0.00  0.00     0.000 A 
ENDROOT
TORSDOF 0
ENDMDL
MODEL 3
REMARK VINA RESULT:      -9.3      1.350      2.192
REMARK  0 active torsions:
REMARK  status: ('A' for Active; 'I' for Inactive)
ROOT
ATOM      1  C   UNL d   1      52.454  33.067  53.223  0.00  0.00     0.110 A 
ATOM      2  C   UNL d   1      52.851  32.344  53.218  0.00  0.00     0.110 A 
ATOM      3  C   UNL d   1      52.717  33.689  53.705  0.00  0.00     0.207 A 
ATOM      4  C   UNL d   1      53.512  32.243  53.696  0.00  0.00     0.207 A 
ATOM      5  C   UNL d   1      53.377  33.568  54.174  0.00  0.00     0.043 A 
ATOM      6  C   UNL d   1      53.774  32.844  54.169  0.00  0.00     0.043 A 
ATOM      7  O   UNL d   1      52.325  34.404  53.710  0.00  0.00    -0.286 OA
ATOM      8  O   UNL d   1      53.912  31.521  53.694  0.00  0.00    -0.286 OA
ATOM      9 CL   UNL d   1      52.583  31.739  52.739  0.00  0.00    -0.078 Cl
ATOM     10 CL   UNL d   1      51.790  33.176  52.745  0.00  0.00    -0.078 Cl
ATOM     11  C   UNL d   1      53.640  34.189  54.656  0.00  0.00     0.003 A 
ATOM     12  C   UNL d   1      54.436  32.760  54.656  0.00  0.00     0.003 A 
ATOM     13  C   UNL d   1      54.302  34.084  55.134  0.00  0.00     0.000 A 
ATOM     14  C   UNL d   1      54.714  33.354  55.138  0.00  0.00     0.000 A 
ENDROOT
TORSDOF 0
ENDMDL
MODEL 4
REMARK VINA RESULT:      -9.2      1.428      2.788
REMARK  0 active torsions:
REMARK  status: ('A' for Active; 'I' for Inactive)
ROOT
ATOM      1  C   UNL d   1      52.341  33.441  53.154  0.00  0.00     0.110 A 
ATOM      2  C   UNL d   1      52.334  34.220  53.425  0.00  0.00     0.110 A 
ATOM      3  C   UNL d   1      52.881  32.892  53.463  0.00  0.00     0.207 A 
ATOM      4  C   UNL d   1      52.867  34.451  54.005  0.00  0.00     0.207 A 
ATOM      5  C   UNL d   1      53.404  33.142  54.040  0.00  0.00     0.043 A 
ATOM      6  C   UNL d   1      53.396  33.921  54.311  0.00  0.00     0.043 A 
ATOM      7  O   UNL d   1      52.888  32.121  53.195  0.00  0.00    -0.286 OA
ATOM      8  O   UNL d   1      52.863  35.229  54.279  0.00  0.00    -0.286 OA
ATOM      9 CL   UNL d   1      51.797  34.751  53.113  0.00  0.00    -0.078 Cl
ATOM     10 CL   UNL d   1      51.808  33.202  52.571  0.00  0.00    -0.078 Cl
ATOM     11  C   UNL d   1      53.944  32.594  54.350  0.00  0.00     0.003 A 
ATOM     12  C   UNL d   1      53.940  34.136  54.896  0.00  0.00     0.003 A 
ATOM     13  C   UNL d   1      54.477  32.828  54.932  0.00  0.00     0.000 A 
ATOM     14  C   UNL d   1      54.480  33.617  55.216  0.00  0.00     0.000 A 
ENDROOT
TORSDOF 0
ENDMDL
MODEL 5
REMARK VINA RESULT:      -9.2      1.458      2.280
REMARK  0 active torsions:
REMARK  status: ('A' for Active; 'I' for Inactive)
ROOT
ATOM      1  C   UNL d   1      52.939  34.725  54.071  0.00  0.00     0.110 A 
ATOM      2  C   UNL d   1      52.556  34.363  53.437  0.00  0.00     0.110 A 
ATOM      3  C   UNL d   1      53.441  34.286  54.566  0.00  0.00     0.207 A 
ATOM      4  C   UNL d   1      52.675  33.563  53.296  0.00  0.00     0.207 A 
ATOM      5  C   UNL d   1      53.546  33.490  54.409  0.00  0.00     0.043 A 
ATOM      6  C   UNL d   1      53.163  33.129  53.774  0.00  0.00     0.043 A 
ATOM      7  O   UNL d   1      53.820  34.644  55.194  0.00  0.00    -0.286 OA
ATOM      8  O   UNL d   1      52.294  33.197  52.662  0.00  0.00    -0.286 OA
ATOM      9 CL   UNL d   1      52.064  34.805  52.957  0.00  0.00    -0.078 Cl
ATOM     10 CL   UNL d   1      52.824  35.528  54.218  0.00  0.00    -0.078 Cl
ATOM     11  C   UNL d   1      54.048  33.052  54.903  0.00  0.00     0.003 A 
ATOM     12  C   UNL d   1      53.294  32.322  53.647  0.00  0.00     0.003 A 
ATOM     13  C   UNL d   1      54.165  32.250  54.759  0.00  0.00     0.000 A 
ATOM     14  C   UNL d   1      53.782  31.870  54.117  0.00  0.00     0.000 A 
ENDROOT
TORSDOF 0
ENDMDL
MODEL 6
REMARK VINA RESULT:      -9.2      1.259      2.523
REMARK  0 active torsions:
REMARK  status: ('A' for Active; 'I' for Inactive)
ROOT
ATOM      1  C   UNL d   1      53.001  33.892  53.764  0.00  0.00     0.110 A 
ATOM      2  C   UNL d   1      53.558  33.715  54.346  0.00  0.00     0.110 A 
ATOM      3  C   UNL d   1      52.703  33.296  53.271  0.00  0.00     0.207 A 
ATOM      4  C   UNL d   1      53.816  32.940  54.435  0.00  0.00     0.207 A 
ATOM      5  C   UNL d   1      52.973  32.531  53.375  0.00  0.00     0.043 A 
ATOM      6  C   UNL d   1      53.529  32.353  53.958  0.00  0.00     0.043 A 
ATOM      7  O   UNL d   1      52.152  33.472  52.695  0.00  0.00    -0.286 OA
ATOM      8  O   UNL d   1      54.373  32.758  55.016  0.00  0.00    -0.286 OA
ATOM      9 CL   UNL d   1      53.845  34.310  54.826  0.00  0.00    -0.078 Cl
ATOM     10 CL   UNL d   1      52.737  34.669  53.669  0.00  0.00    -0.078 Cl
ATOM     11  C   UNL d   1      52.674  31.934  52.882  0.00  0.00     0.003 A 
ATOM     12  C   UNL d   1      53.778  31.568  54.033  0.00  0.00     0.003 A 
ATOM     13  C   UNL d   1      52.935  31.159  52.974  0.00  0.00     0.000 A 
ATOM     14  C   UNL d   1      53.500  30.965  53.562  0.00  0.00     0.000 A 
ENDROOT
TORSDOF 0
ENDMDL
MODEL 7
REMARK VINA RESULT:      -9.1      0.911      1.292
REMARK  0 active torsions:
REMARK  status: ('A' for Active; 'I' for Inactive)
ROOT
ATOM      1  C   UNL d   1      53.525  32.147  53.884  0.00  0.00     0.110 A 
ATOM      2  C   UNL d   1      53.012  32.208  53.240  0.00  0.00     0.110 A 
ATOM      3  C   UNL d   1      53.703  32.813  54.345  0.00  0.00     0.207 A 
ATOM      4  C   UNL d   1      52.677  32.935  53.058  0.00  0.00     0.207 A 
ATOM      5  C   UNL d   1      53.359  33.528  54.146  0.00  0.00     0.043 A 
ATOM      6  C   UNL d   1      52.846  33.589  53.503  0.00  0.00     0.043 A 
ATOM      7  O   UNL d   1      54.210  32.753  54.981  0.00  0.00    -0.286 OA
ATOM      8  O   UNL d   1      52.163  33.000  52.416  0.00  0.00    -0.286 OA
ATOM      9 CL   UNL d   1      52.843  31.545  52.794  0.00  0.00    -0.078 Cl
ATOM     10 CL   UNL d   1      53.865  31.419  54.072  0.00  0.00    -0.078 Cl
ATOM     11  C   UNL d   1      53.537  34.195  54.607  0.00  0.00     0.003 A 
ATOM     12  C   UNL d   1      52.518  34.329  53.334  0.00  0.00     0.003 A 
ATOM     13  C   UNL d   1      53.200  34.923  54.422  0.00  0.00     0.000 A 
ATOM     14  C   UNL d   1      52.677  34.998  53.771  0.00  0.00     0.000 A 
ENDROOT
TORSDOF 0
ENDMDL
MODEL 8
REMARK VINA RESULT:      -9.0      0.931      1.885
REMARK  0 active torsions:
REMARK  status: ('A' for Active; 'I' for Inactive)
ROOT
ATOM      1  C   UNL d   1      52.903  32.296  53.260  0.00  0.00     0.110 A 
ATOM      2  C   UNL d   1      53.409  32.183  53.902  0.00  0.00     0.110 A 
ATOM      3  C   UNL d   1      52.604  33.051  53.088  0.00  0.00     0.207 A 
ATOM      4  C   UNL d   1      53.616  32.825  54.371  0.00  0.00     0.207 A 
ATOM      5  C   UNL d   1      52.822  33.676  53.567  0.00  0.00     0.043 A 
ATOM      6  C   UNL d   1      53.328  33.563  54.209  0.00  0.00     0.043 A 
ATOM      7  O   UNL d   1      52.104  33.162  52.453  0.00  0.00    -0.286 OA
ATOM      8  O   UNL d   1      54.122  32.717  55.014  0.00  0.00    -0.286 OA
ATOM      9 CL   UNL d   1      53.698  31.436  54.063  0.00  0.00    -0.078 Cl
ATOM     10 CL   UNL d   1      52.692  31.656  52.785  0.00  0.00    -0.078 Cl
ATOM     11  C   UNL d   1      52.523  34.431  53.395  0.00  0.00     0.003 A 
ATOM     12  C   UNL d   1      53.526  34.220  54.670  0.00  0.00     0.003 A 
ATOM     13  C   UNL d   1      52.732  35.072  53.867  0.00  0.00     0.000 A 
ATOM     14  C   UNL d   1      53.246  34.970  54.522  0.00  0.00     0.000 A 
ENDROOT
TORSDOF 0
ENDMDL
