MODEL 1
REMARK VINA RESULT:      -3.8      0.000      0.000
REMARK  4 active torsions:
REMARK  status: ('A' for Active; 'I' for Inactive)
REMARK    1  A    between atoms: C_10  and  C_1 
REMARK       I    between atoms: C_5  and  N_3 
REMARK    2  A    between atoms: O_18  and  C_5 
REMARK    3  A    between atoms: N_9  and  C_10 
REMARK    4  A    between atoms: C_22  and  O_18 
ROOT
ATOM      1  C   UNL d   1      58.810  -0.119  29.629  0.00  0.00     0.059 A 
ATOM      2  C   UNL d   1      59.960  -0.731  29.046  0.00  0.00     0.121 A 
ATOM      3  C   UNL d   1      59.565  -0.051  29.307  0.00  0.00     0.214 A 
ATOM      4  C   UNL d   1      59.595  -1.476  29.108  0.00  0.00     0.032 A 
ATOM      5  C   UNL d   1      58.838  -1.543  29.430  0.00  0.00     0.059 A 
ATOM      6  C   UNL d   1      58.445  -0.864  29.691  0.00  0.00     0.016 A 
ATOM      7  N   UNL d   1      60.706  -0.673  28.727  0.00  0.00    -0.241 NA
ATOM      8 CL   UNL d   1      58.473  -2.288  29.492  0.00  0.00    -0.082 Cl
ATOM      9  O   UNL d   1      59.925   0.682  29.246  0.00  0.00    -0.285 OA
ATOM     10  C   UNL d   1      59.984  -2.148  28.850  0.00  0.00     0.004 A 
ATOM     11  C   UNL d   1      61.112  -1.344  28.461  0.00  0.00     0.099 A 
ATOM     12  C   UNL d   1      60.751  -2.091  28.521  0.00  0.00     0.021 A 
ENDROOT
BRANCH   1  13
ATOM     13  C   UNL d   1      58.406   0.551  29.893  0.00  0.00     0.084 C 
BRANCH  13  14
ATOM     14  N   UNL d   1      58.050   0.568  30.628  0.00  0.00    -0.300 N 
ATOM     15  C   UNL d   1      58.497   0.627  31.315  0.00  0.00     0.100 A 
ATOM     16  C   UNL d   1      58.140   0.644  32.050  0.00  0.00     0.104 A 
ATOM     17  N   UNL d   1      57.311   0.601  32.105  0.00  0.00    -0.249 N 
ATOM     18  C   UNL d   1      56.855   0.541  31.411  0.00  0.00     0.104 A 
ATOM     19  C   UNL d   1      56.946   0.619  32.849  0.00  0.00     0.378 C 
ATOM     20  C   UNL d   1      57.221   0.525  30.683  0.00  0.00     0.100 A 
ATOM     21  O   UNL d   1      57.402   0.678  33.523  0.00  0.00    -0.237 OA
BRANCH  19  22
ATOM     22  O   UNL d   1      56.134   0.577  32.903  0.00  0.00    -0.257 OA
BRANCH  22  23
ATOM     23  C   UNL d   1      55.766   0.501  33.646  0.00  0.00     0.128 C 
ATOM     24  C   UNL d   1      55.058   0.588  33.925  0.00  0.00     0.029 C 
ENDBRANCH  22  23
ENDBRANCH  19  22
ENDBRANCH  13  14
ENDBRANCH   1  13
TORSDOF 4
ENDMDL
MODEL 2
REMARK VINA RESULT:      -2.8      1.676      5.261
REMARK  4 active torsions:
REMARK  status: ('A' for Active; 'I' for Inactive)
REMARK    1  A    between atoms: C_10  and  C_1 
REMARK       I    between atoms: C_5  and  N_3 
REMARK    2  A    between atoms: O_18  and  C_5 
REMARK    3  A    between atoms: N_9  and  C_10 
REMARK    4  A    between atoms: C_22  and  O_18 
ROOT
ATOM      1  C   UNL d   1      56.583   0.660  32.431  0.00  0.00     0.059 A 
ATOM      2  C   UNL d   1      55.979   0.667  33.724  0.00  0.00     0.121 A 
ATOM      3  C   UNL d   1      55.905   0.660  32.899  0.00  0.00     0.214 A 
ATOM      4  C   UNL d   1      56.733   0.674  34.076  0.00  0.00     0.032 A 
ATOM      5  C   UNL d   1      57.411   0.675  33.607  0.00  0.00     0.059 A 
ATOM      6  C   UNL d   1      57.337   0.668  32.783  0.00  0.00     0.016 A 
ATOM      7  N   UNL d   1      55.315   0.666  34.194  0.00  0.00    -0.241 NA
ATOM      8 CL   UNL d   1      58.165   0.682  33.959  0.00  0.00    -0.082 Cl
ATOM      9  O   UNL d   1      55.163   0.652  32.553  0.00  0.00    -0.285 OA
ATOM     10  C   UNL d   1      56.807   0.681  34.891  0.00  0.00     0.004 A 
ATOM     11  C   UNL d   1      55.374   0.673  35.020  0.00  0.00     0.099 A 
ATOM     12  C   UNL d   1      56.126   0.681  35.376  0.00  0.00     0.021 A 
ENDROOT
BRANCH   1  13
ATOM     13  C   UNL d   1      56.522   0.653  31.608  0.00  0.00     0.084 C 
BRANCH  13  14
ATOM     14  N   UNL d   1      57.066   0.254  31.147  0.00  0.00    -0.300 N 
ATOM     15  C   UNL d   1      57.645   0.658  30.727  0.00  0.00     0.100 A 
ATOM     16  C   UNL d   1      58.188   0.259  30.266  0.00  0.00     0.104 A 
ATOM     17  N   UNL d   1      58.155  -0.571  30.219  0.00  0.00    -0.249 N 
ATOM     18  C   UNL d   1      57.570  -0.985  30.643  0.00  0.00     0.104 A 
ATOM     19  C   UNL d   1      58.705  -0.980  29.753  0.00  0.00     0.378 C 
ATOM     20  C   UNL d   1      57.033  -0.576  31.100  0.00  0.00     0.100 A 
ATOM     21  O   UNL d   1      59.275  -0.566  29.341  0.00  0.00    -0.237 OA
BRANCH  19  22
ATOM     22  O   UNL d   1      58.673  -1.793  29.707  0.00  0.00    -0.257 OA
BRANCH  22  23
ATOM     23  C   UNL d   1      59.255  -2.213  29.285  0.00  0.00     0.128 C 
ATOM     24  C   UNL d   1      59.496  -2.939  29.247  0.00  0.00     0.029 C 
ENDBRANCH  22  23
ENDBRANCH  19  22
ENDBRANCH  13  14
ENDBRANCH   1  13
TORSDOF 4
ENDMDL
MODEL 3
REMARK VINA RESULT:      -1.7      1.370      2.036
REMARK  4 active torsions:
REMARK  status: ('A' for Active; 'I' for Inactive)
REMARK    1  A    between atoms: C_10  and  C_1 
REMARK       I    between atoms: C_5  and  N_3 
REMARK    2  A    between atoms: O_18  and  C_5 
REMARK    3  A    between atoms: N_9  and  C_10 
REMARK    4  A    between atoms: C_22  and  O_18 
ROOT
ATOM      1  C   UNL d   1      59.561  -1.618  28.969  0.00  0.00     0.059 A 
ATOM      2  C   UNL d   1      60.344  -2.810  28.931  0.00  0.00     0.121 A 
ATOM      3  C   UNL d   1      60.290  -1.992  29.049  0.00  0.00     0.214 A 
ATOM      4  C   UNL d   1      59.666  -3.250  28.735  0.00  0.00     0.032 A 
ATOM      5  C   UNL d   1      58.935  -2.875  28.656  0.00  0.00     0.059 A 
ATOM      6  C   UNL d   1      58.882  -2.058  28.773  0.00  0.00     0.016 A 
ATOM      7  N   UNL d   1      61.061  -3.188  29.008  0.00  0.00    -0.241 NA
ATOM      8 CL   UNL d   1      58.257  -3.314  28.459  0.00  0.00    -0.082 Cl
ATOM      9  O   UNL d   1      60.958  -1.559  29.242  0.00  0.00    -0.285 OA
ATOM     10  C   UNL d   1      59.718  -4.058  28.619  0.00  0.00     0.004 A 
ATOM     11  C   UNL d   1      61.129  -4.005  28.893  0.00  0.00     0.099 A 
ATOM     12  C   UNL d   1      60.453  -4.448  28.697  0.00  0.00     0.021 A 
ENDROOT
BRANCH   1  13
ATOM     13  C   UNL d   1      59.494  -0.804  29.084  0.00  0.00     0.084 C 
BRANCH  13  14
ATOM     14  N   UNL d   1      58.987  -0.495  29.646  0.00  0.00    -0.300 N 
ATOM     15  C   UNL d   1      58.184  -0.413  29.493  0.00  0.00     0.100 A 
ATOM     16  C   UNL d   1      57.677  -0.104  30.054  0.00  0.00     0.104 A 
ATOM     17  N   UNL d   1      57.978   0.132  30.793  0.00  0.00    -0.249 N 
ATOM     18  C   UNL d   1      58.792   0.050  30.952  0.00  0.00     0.104 A 
ATOM     19  C   UNL d   1      57.467   0.445  31.365  0.00  0.00     0.378 C 
ATOM     20  C   UNL d   1      59.288  -0.259  30.385  0.00  0.00     0.100 A 
ATOM     21  O   UNL d   1      56.671   0.521  31.201  0.00  0.00    -0.237 OA
BRANCH  19  22
ATOM     22  O   UNL d   1      57.761   0.676  32.089  0.00  0.00    -0.257 OA
BRANCH  22  23
ATOM     23  C   UNL d   1      57.269   0.682  32.761  0.00  0.00     0.128 C 
ATOM     24  C   UNL d   1      57.363   0.612  33.518  0.00  0.00     0.029 C 
ENDBRANCH  22  23
ENDBRANCH  19  22
ENDBRANCH  13  14
ENDBRANCH   1  13
TORSDOF 4
ENDMDL
MODEL 4
REMARK VINA RESULT:      -1.6      1.818      4.849
REMARK  4 active torsions:
REMARK  status: ('A' for Active; 'I' for Inactive)
REMARK    1  A    between atoms: C_10  and  C_1 
REMARK       I    between atoms: C_5  and  N_3 
REMARK    2  A    between atoms: O_18  and  C_5 
REMARK    3  A    between atoms: N_9  and  C_10 
REMARK    4  A    between atoms: C_22  and  O_18 
ROOT
ATOM      1  C   UNL d   1      57.552  -0.413  30.888  0.00  0.00     0.059 A 
ATOM      2  C   UNL d   1      57.566   0.134  32.206  0.00  0.00     0.121 A 
ATOM      3  C   UNL d   1      57.847   0.136  31.427  0.00  0.00     0.214 A 
ATOM      4  C   UNL d   1      56.990  -0.418  32.441  0.00  0.00     0.032 A 
ATOM      5  C   UNL d   1      56.695  -0.967  31.902  0.00  0.00     0.059 A 
ATOM      6  C   UNL d   1      56.976  -0.965  31.123  0.00  0.00     0.016 A 
ATOM      7  N   UNL d   1      57.852   0.672  32.745  0.00  0.00    -0.241 NA
ATOM      8 CL   UNL d   1      56.119  -1.520  32.137  0.00  0.00    -0.082 Cl
ATOM      9  O   UNL d   1      58.414   0.680  31.195  0.00  0.00    -0.285 OA
ATOM     10  C   UNL d   1      56.712  -0.421  33.211  0.00  0.00     0.004 A 
ATOM     11  C   UNL d   1      57.581   0.682  33.527  0.00  0.00     0.099 A 
ATOM     12  C   UNL d   1      57.005   0.131  33.767  0.00  0.00     0.021 A 
ENDROOT
BRANCH   1  13
ATOM     13  C   UNL d   1      57.824  -0.421  30.109  0.00  0.00     0.084 C 
BRANCH  13  14
ATOM     14  N   UNL d   1      58.377  -0.968  29.859  0.00  0.00    -0.300 N 
ATOM     15  C   UNL d   1      59.167  -0.761  29.768  0.00  0.00     0.100 A 
ATOM     16  C   UNL d   1      59.720  -1.308  29.518  0.00  0.00     0.104 A 
ATOM     17  N   UNL d   1      59.481  -2.088  29.353  0.00  0.00    -0.249 N 
ATOM     18  C   UNL d   1      58.681  -2.301  29.444  0.00  0.00     0.104 A 
ATOM     19  C   UNL d   1      60.039  -2.645  29.100  0.00  0.00     0.378 C 
ATOM     20  C   UNL d   1      58.138  -1.748  29.694  0.00  0.00     0.100 A 
ATOM     21  O   UNL d   1      60.820  -2.427  29.013  0.00  0.00    -0.237 OA
BRANCH  19  22
ATOM     22  O   UNL d   1      59.805  -3.409  28.938  0.00  0.00    -0.257 OA
BRANCH  22  23
ATOM     23  C   UNL d   1      60.369  -3.988  28.736  0.00  0.00     0.128 C 
ATOM     24  C   UNL d   1      60.355  -4.701  28.459  0.00  0.00     0.029 C 
ENDBRANCH  22  23
ENDBRANCH  19  22
ENDBRANCH  13  14
ENDBRANCH   1  13
TORSDOF 4
ENDMDL
MODEL 5
REMARK VINA RESULT:      -1.2      1.927      5.619
REMARK  4 active torsions:
REMARK  status: ('A' for Active; 'I' for Inactive)
REMARK    1  A    between atoms: C_10  and  C_1 
REMARK       I    between atoms: C_5  and  N_3 
REMARK    2  A    between atoms: O_18  and  C_5 
REMARK    3  A    between atoms: N_9  and  C_10 
REMARK    4  A    between atoms: C_22  and  O_18 
ROOT
ATOM      1  C   UNL d   1      56.666   0.681  33.407  0.00  0.00     0.059 A 
ATOM      2  C   UNL d   1      55.941   0.681  34.636  0.00  0.00     0.121 A 
ATOM      3  C   UNL d   1      56.663   0.682  34.230  0.00  0.00     0.214 A 
ATOM      4  C   UNL d   1      55.224   0.681  34.213  0.00  0.00     0.032 A 
ATOM      5  C   UNL d   1      55.228   0.681  33.388  0.00  0.00     0.059 A 
ATOM      6  C   UNL d   1      55.949   0.681  32.984  0.00  0.00     0.016 A 
ATOM      7  N   UNL d   1      55.928   0.681  35.449  0.00  0.00    -0.241 NA
ATOM      8 CL   UNL d   1      54.511   0.681  32.965  0.00  0.00    -0.082 Cl
ATOM      9  O   UNL d   1      57.368   0.682  34.647  0.00  0.00    -0.285 OA
ATOM     10  C   UNL d   1      54.510   0.681  34.612  0.00  0.00     0.004 A 
ATOM     11  C   UNL d   1      55.214   0.681  35.867  0.00  0.00     0.099 A 
ATOM     12  C   UNL d   1      54.495   0.681  35.448  0.00  0.00     0.021 A 
ENDROOT
BRANCH   1  13
ATOM     13  C   UNL d   1      57.379   0.682  32.991  0.00  0.00     0.084 C 
BRANCH  13  14
ATOM     14  N   UNL d   1      57.468   0.250  32.303  0.00  0.00    -0.300 N 
ATOM     15  C   UNL d   1      57.227  -0.534  32.259  0.00  0.00     0.100 A 
ATOM     16  C   UNL d   1      57.316  -0.965  31.571  0.00  0.00     0.104 A 
ATOM     17  N   UNL d   1      57.657  -0.606  30.903  0.00  0.00    -0.249 N 
ATOM     18  C   UNL d   1      57.904   0.189  30.943  0.00  0.00     0.104 A 
ATOM     19  C   UNL d   1      57.750  -1.040  30.203  0.00  0.00     0.378 C 
ATOM     20  C   UNL d   1      57.810   0.610  31.635  0.00  0.00     0.100 A 
ATOM     21  O   UNL d   1      57.506  -1.818  30.173  0.00  0.00    -0.237 OA
BRANCH  19  22
ATOM     22  O   UNL d   1      58.084  -0.688  29.549  0.00  0.00    -0.257 OA
BRANCH  22  23
ATOM     23  C   UNL d   1      58.677  -1.081  29.116  0.00  0.00     0.128 C 
ATOM     24  C   UNL d   1      59.187  -0.893  28.577  0.00  0.00     0.029 C 
ENDBRANCH  22  23
ENDBRANCH  19  22
ENDBRANCH  13  14
ENDBRANCH   1  13
TORSDOF 4
ENDMDL
