MODEL 1
REMARK VINA RESULT:     100.8      0.000      0.000
REMARK  7 active torsions:
REMARK  status: ('A' for Active; 'I' for Inactive)
REMARK    1  A    between atoms: P_4  and  C_1 
REMARK    2  A    between atoms: N_7  and  C_3 
REMARK    3  A    between atoms: C_9  and  P_4 
REMARK    4  A    between atoms: C_10  and  P_4 
REMARK    5  A    between atoms: C_11  and  C_5 
REMARK    6  A    between atoms: C_12  and  N_7 
REMARK    7  A    between atoms: C_13  and  C_12 
ROOT
ATOM      1  C   UNL d   1      59.523  49.169  50.923  0.00  0.00     0.161 A 
ATOM      2  N   UNL d   1      58.843  49.566  50.658  0.00  0.00    -0.215 NA
ATOM      3  C   UNL d   1      59.413  48.317  50.802  0.00  0.00     0.205 A 
ATOM      4  C   UNL d   1      58.310  49.023  50.378  0.00  0.00     0.184 A 
ATOM      5  O   UNL d   1      58.627  48.228  50.450  0.00  0.00    -0.270 OA
ENDROOT
BRANCH   1   6
ATOM      6  P   UNL d   1      60.170  49.315  51.219  0.00  0.00     0.195 P 
ATOM      7  O   UNL d   1      60.001  49.244  50.442  0.00  0.00    -0.305 OA
BRANCH   6   8
ATOM      8  C   UNL d   1      60.906  49.447  50.850  0.00  0.00     0.038 A 
ATOM      9  C   UNL d   1      60.939  49.561  50.042  0.00  0.00     0.004 A 
ATOM     10  C   UNL d   1      61.667  49.692  49.676  0.00  0.00     0.000 A 
ATOM     11  C   UNL d   1      62.349  49.707  50.126  0.00  0.00     0.000 A 
ATOM     12  C   UNL d   1      62.316  49.593  50.935  0.00  0.00     0.000 A 
ATOM     13  C   UNL d   1      61.588  49.463  51.300  0.00  0.00     0.004 A 
ENDBRANCH   6   8
BRANCH   6  14
ATOM     14  C   UNL d   1      60.573  49.437  52.065  0.00  0.00     0.038 A 
ATOM     15  C   UNL d   1      61.241  49.486  52.532  0.00  0.00     0.004 A 
ATOM     16  C   UNL d   1      61.171  49.618  53.322  0.00  0.00     0.000 A 
ATOM     17  C   UNL d   1      60.417  49.706  53.668  0.00  0.00     0.000 A 
ATOM     18  C   UNL d   1      59.755  49.659  53.214  0.00  0.00     0.000 A 
ATOM     19  C   UNL d   1      59.819  49.525  52.411  0.00  0.00     0.004 A 
ENDBRANCH   6  14
ENDBRANCH   1   6
BRANCH   3  20
ATOM     20  N   UNL d   1      60.031  47.917  51.040  0.00  0.00    -0.219 NA
BRANCH  20  21
ATOM     21  C   UNL d   1      60.684  47.454  50.821  0.00  0.00     0.101 C 
BRANCH  21  22
ATOM     22  C   UNL d   1      60.627  46.648  50.766  0.00  0.00     0.019 A 
ATOM     23  C   UNL d   1      60.851  46.254  50.073  0.00  0.00     0.002 A 
ATOM     24  C   UNL d   1      60.786  45.413  50.030  0.00  0.00     0.000 A 
ATOM     25  C   UNL d   1      60.502  44.978  50.669  0.00  0.00     0.000 A 
ATOM     26  C   UNL d   1      60.272  45.383  51.380  0.00  0.00     0.000 A 
ATOM     27  C   UNL d   1      60.337  46.220  51.421  0.00  0.00     0.002 A 
ENDBRANCH  21  22
ENDBRANCH  20  21
ENDBRANCH   3  20
BRANCH   4  28
ATOM     28  C   UNL d   1      57.574  49.249  50.074  0.00  0.00     0.041 A 
ATOM     29  C   UNL d   1      56.894  49.284  50.571  0.00  0.00     0.004 A 
ATOM     30  C   UNL d   1      56.158  49.516  50.238  0.00  0.00     0.000 A 
ATOM     31  C   UNL d   1      56.090  49.707  49.445  0.00  0.00     0.000 A 
ATOM     32  C   UNL d   1      56.774  49.671  48.948  0.00  0.00     0.000 A 
ATOM     33  C   UNL d   1      57.520  49.438  49.278  0.00  0.00     0.004 A 
ENDBRANCH   4  28
TORSDOF 7
ENDMDL
