MODEL 1
REMARK VINA RESULT:      -8.2      0.000      0.000
REMARK  6 active torsions:
REMARK  status: ('A' for Active; 'I' for Inactive)
REMARK    1  A    between atoms: O_8  and  S_1 
REMARK    2  A    between atoms: C_9  and  S_1 
REMARK    3  A    between atoms: C_7  and  C_2 
REMARK    4  A    between atoms: C_20  and  C_7 
REMARK    5  A    between atoms: C_14  and  O_8 
REMARK    6  A    between atoms: O_24  and  C_21 
ROOT
ATOM      1  C   UNL d   1      53.552  31.720  53.356  0.00  0.00     0.139 A 
ATOM      2  C   UNL d   1      53.344  33.030  53.447  0.00  0.00     0.064 A 
ATOM      3  C   UNL d   1      53.924  32.457  53.347  0.00  0.00     0.220 A 
ATOM      4  C   UNL d   1      52.613  32.654  53.518  0.00  0.00     0.105 A 
ATOM      5  O   UNL d   1      52.743  31.841  53.462  0.00  0.00    -0.304 OA
ATOM      6  C   UNL d   1      51.938  33.100  53.624  0.00  0.00     0.050 A 
ATOM      7  C   UNL d   1      53.390  33.851  53.482  0.00  0.00     0.007 A 
ATOM      8  C   UNL d   1      51.984  33.921  53.659  0.00  0.00     0.116 A 
ATOM      9  O   UNL d   1      54.733  32.584  53.253  0.00  0.00    -0.284 OA
ATOM     10  C   UNL d   1      52.708  34.293  53.588  0.00  0.00     0.026 A 
ENDROOT
BRANCH   8  11
ATOM     11  O   UNL d   1      51.301  34.366  53.765  0.00  0.00    -0.227 OA
BRANCH  11  12
ATOM     12  S   UNL d   1      50.750  34.430  53.154  0.00  0.00     0.304 S 
ATOM     13  O   UNL d   1      50.362  33.773  53.435  0.00  0.00    -0.193 OA
ATOM     14  O   UNL d   1      51.133  35.095  52.861  0.00  0.00    -0.193 OA
BRANCH  12  15
ATOM     15  C   UNL d   1      50.191  34.491  52.538  0.00  0.00     0.111 A 
ATOM     16  C   UNL d   1      50.374  34.190  51.790  0.00  0.00     0.015 A 
ATOM     17  C   UNL d   1      49.822  34.250  51.180  0.00  0.00     0.025 A 
ATOM     18  C   UNL d   1      49.086  34.610  51.319  0.00  0.00     0.094 A 
ATOM     19  C   UNL d   1      48.915  34.907  52.073  0.00  0.00     0.025 A 
ATOM     20  C   UNL d   1      49.470  34.846  52.681  0.00  0.00     0.015 A 
BRANCH  18  21
ATOM     21  O   UNL d   1      48.541  34.667  50.712  0.00  0.00    -0.328 OA
ATOM     22  C   UNL d   1      47.800  34.987  50.859  0.00  0.00     0.181 C 
ENDBRANCH  18  21
ENDBRANCH  12  15
ENDBRANCH  11  12
ENDBRANCH   8  11
BRANCH   1  23
ATOM     23  C   UNL d   1      53.921  30.986  53.274  0.00  0.00     0.029 C 
BRANCH  23  24
ATOM     24  C   UNL d   1      53.548  30.296  53.538  0.00  0.00     0.021 A 
ATOM     25  C   UNL d   1      52.982  29.941  53.063  0.00  0.00     0.099 A 
ATOM     26  N   UNL d   1      52.605  29.257  53.312  0.00  0.00    -0.242 NA
ATOM     27  C   UNL d   1      52.799  28.922  54.050  0.00  0.00     0.099 A 
ATOM     28  C   UNL d   1      53.371  29.283  54.526  0.00  0.00     0.021 A 
ATOM     29  C   UNL d   1      53.743  29.973  54.262  0.00  0.00     0.003 A 
ENDBRANCH  23  24
ENDBRANCH   1  23
TORSDOF 6
ENDMDL
MODEL 2
REMARK VINA RESULT:      -7.9      2.026      5.721
REMARK  6 active torsions:
REMARK  status: ('A' for Active; 'I' for Inactive)
REMARK    1  A    between atoms: O_8  and  S_1 
REMARK    2  A    between atoms: C_9  and  S_1 
REMARK    3  A    between atoms: C_7  and  C_2 
REMARK    4  A    between atoms: C_20  and  C_7 
REMARK    5  A    between atoms: C_14  and  O_8 
REMARK    6  A    between atoms: O_24  and  C_21 
ROOT
ATOM      1  C   UNL d   1      49.098  34.665  52.147  0.00  0.00     0.139 A 
ATOM      2  C   UNL d   1      50.343  34.368  51.786  0.00  0.00     0.064 A 
ATOM      3  C   UNL d   1      49.585  34.509  51.500  0.00  0.00     0.220 A 
ATOM      4  C   UNL d   1      50.329  34.434  52.608  0.00  0.00     0.105 A 
ATOM      5  O   UNL d   1      49.556  34.619  52.832  0.00  0.00    -0.304 OA
ATOM      6  C   UNL d   1      51.015  34.319  53.034  0.00  0.00     0.050 A 
ATOM      7  C   UNL d   1      51.046  34.185  51.399  0.00  0.00     0.007 A 
ATOM      8  C   UNL d   1      51.718  34.137  52.647  0.00  0.00     0.116 A 
ATOM      9  O   UNL d   1      49.346  34.500  50.711  0.00  0.00    -0.284 OA
ATOM     10  C   UNL d   1      51.731  34.071  51.833  0.00  0.00     0.026 A 
ENDROOT
BRANCH   8  11
ATOM     11  O   UNL d   1      52.407  34.021  53.081  0.00  0.00    -0.227 OA
BRANCH  11  12
ATOM     12  S   UNL d   1      52.681  33.257  53.226  0.00  0.00     0.304 S 
ATOM     13  O   UNL d   1      53.058  33.255  52.505  0.00  0.00    -0.193 OA
ATOM     14  O   UNL d   1      52.306  33.246  53.956  0.00  0.00    -0.193 OA
BRANCH  12  15
ATOM     15  C   UNL d   1      52.961  32.484  53.368  0.00  0.00     0.111 A 
ATOM     16  C   UNL d   1      53.520  32.355  53.963  0.00  0.00     0.015 A 
ATOM     17  C   UNL d   1      53.797  31.591  54.104  0.00  0.00     0.025 A 
ATOM     18  C   UNL d   1      53.514  30.955  53.650  0.00  0.00     0.094 A 
ATOM     19  C   UNL d   1      52.953  31.097  53.056  0.00  0.00     0.025 A 
ATOM     20  C   UNL d   1      52.678  31.863  52.918  0.00  0.00     0.015 A 
BRANCH  18  21
ATOM     21  O   UNL d   1      53.790  30.200  53.792  0.00  0.00    -0.328 OA
ATOM     22  C   UNL d   1      53.261  29.575  53.844  0.00  0.00     0.181 C 
ENDBRANCH  18  21
ENDBRANCH  12  15
ENDBRANCH  11  12
ENDBRANCH   8  11
BRANCH   1  23
ATOM     23  C   UNL d   1      48.291  34.838  52.120  0.00  0.00     0.029 C 
BRANCH  23  24
ATOM     24  C   UNL d   1      47.980  35.466  52.561  0.00  0.00     0.021 A 
ATOM     25  C   UNL d   1      48.062  35.461  53.376  0.00  0.00     0.099 A 
ATOM     26  N   UNL d   1      47.759  36.077  53.825  0.00  0.00    -0.242 NA
ATOM     27  C   UNL d   1      47.366  36.709  53.449  0.00  0.00     0.099 A 
ATOM     28  C   UNL d   1      47.287  36.709  52.626  0.00  0.00     0.021 A 
ATOM     29  C   UNL d   1      47.598  36.082  52.186  0.00  0.00     0.003 A 
ENDBRANCH  23  24
ENDBRANCH   1  23
TORSDOF 6
ENDMDL
MODEL 3
REMARK VINA RESULT:      -7.4      2.634      6.341
REMARK  6 active torsions:
REMARK  status: ('A' for Active; 'I' for Inactive)
REMARK    1  A    between atoms: O_8  and  S_1 
REMARK    2  A    between atoms: C_9  and  S_1 
REMARK    3  A    between atoms: C_7  and  C_2 
REMARK    4  A    between atoms: C_20  and  C_7 
REMARK    5  A    between atoms: C_14  and  O_8 
REMARK    6  A    between atoms: O_24  and  C_21 
ROOT
ATOM      1  C   UNL d   1      47.580  35.964  52.301  0.00  0.00     0.139 A 
ATOM      2  C   UNL d   1      48.651  35.542  52.967  0.00  0.00     0.064 A 
ATOM      3  C   UNL d   1      48.001  36.042  53.007  0.00  0.00     0.220 A 
ATOM      4  C   UNL d   1      48.638  35.152  52.240  0.00  0.00     0.105 A 
ATOM      5  O   UNL d   1      47.973  35.415  51.827  0.00  0.00    -0.304 OA
ATOM      6  C   UNL d   1      49.227  34.619  52.056  0.00  0.00     0.050 A 
ATOM      7  C   UNL d   1      49.257  35.391  53.504  0.00  0.00     0.007 A 
ATOM      8  C   UNL d   1      49.832  34.468  52.593  0.00  0.00     0.116 A 
ATOM      9  O   UNL d   1      47.797  36.537  53.635  0.00  0.00    -0.284 OA
ATOM     10  C   UNL d   1      49.845  34.854  53.314  0.00  0.00     0.026 A 
ENDROOT
BRANCH   8  11
ATOM     11  O   UNL d   1      50.424  33.929  52.404  0.00  0.00    -0.227 OA
BRANCH  11  12
ATOM     12  S   UNL d   1      51.145  33.948  52.805  0.00  0.00     0.304 S 
ATOM     13  O   UNL d   1      50.841  33.453  53.374  0.00  0.00    -0.193 OA
ATOM     14  O   UNL d   1      51.462  34.449  52.237  0.00  0.00    -0.193 OA
BRANCH  12  15
ATOM     15  C   UNL d   1      51.871  33.965  53.215  0.00  0.00     0.111 A 
ATOM     16  C   UNL d   1      52.326  34.656  53.209  0.00  0.00     0.015 A 
ATOM     17  C   UNL d   1      53.045  34.673  53.614  0.00  0.00     0.025 A 
ATOM     18  C   UNL d   1      53.309  34.000  54.023  0.00  0.00     0.094 A 
ATOM     19  C   UNL d   1      52.843  33.314  54.021  0.00  0.00     0.025 A 
ATOM     20  C   UNL d   1      52.125  33.300  53.615  0.00  0.00     0.015 A 
BRANCH  18  21
ATOM     21  O   UNL d   1      54.021  34.021  54.423  0.00  0.00    -0.328 OA
ATOM     22  C   UNL d   1      54.250  33.381  54.883  0.00  0.00     0.181 C 
ENDBRANCH  18  21
ENDBRANCH  12  15
ENDBRANCH  11  12
ENDBRANCH   8  11
BRANCH   1  23
ATOM     23  C   UNL d   1      46.887  36.364  52.100  0.00  0.00     0.029 C 
BRANCH  23  24
ATOM     24  C   UNL d   1      46.213  35.945  51.863  0.00  0.00     0.021 A 
ATOM     25  C   UNL d   1      46.112  35.766  51.070  0.00  0.00     0.099 A 
ATOM     26  N   UNL d   1      45.450  35.352  50.822  0.00  0.00    -0.242 NA
ATOM     27  C   UNL d   1      44.878  35.112  51.380  0.00  0.00     0.099 A 
ATOM     28  C   UNL d   1      44.985  35.295  52.179  0.00  0.00     0.021 A 
ATOM     29  C   UNL d   1      45.658  35.713  52.415  0.00  0.00     0.003 A 
ENDBRANCH  23  24
ENDBRANCH   1  23
TORSDOF 6
ENDMDL
MODEL 4
REMARK VINA RESULT:      -7.4      1.849      5.417
REMARK  6 active torsions:
REMARK  status: ('A' for Active; 'I' for Inactive)
REMARK    1  A    between atoms: O_8  and  S_1 
REMARK    2  A    between atoms: C_9  and  S_1 
REMARK    3  A    between atoms: C_7  and  C_2 
REMARK    4  A    between atoms: C_20  and  C_7 
REMARK    5  A    between atoms: C_14  and  O_8 
REMARK    6  A    between atoms: O_24  and  C_21 
ROOT
ATOM      1  C   UNL d   1      50.318  34.444  52.945  0.00  0.00     0.139 A 
ATOM      2  C   UNL d   1      51.601  34.257  53.244  0.00  0.00     0.064 A 
ATOM      3  C   UNL d   1      50.954  34.746  53.377  0.00  0.00     0.220 A 
ATOM      4  C   UNL d   1      51.372  33.652  52.732  0.00  0.00     0.105 A 
ATOM      5  O   UNL d   1      50.576  33.768  52.547  0.00  0.00    -0.304 OA
ATOM      6  C   UNL d   1      51.914  33.085  52.508  0.00  0.00     0.050 A 
ATOM      7  C   UNL d   1      52.373  34.287  53.527  0.00  0.00     0.007 A 
ATOM      8  C   UNL d   1      52.687  33.116  52.791  0.00  0.00     0.116 A 
ATOM      9  O   UNL d   1      50.932  35.419  53.853  0.00  0.00    -0.284 OA
ATOM     10  C   UNL d   1      52.913  33.715  53.298  0.00  0.00     0.026 A 
ENDROOT
BRANCH   8  11
ATOM     11  O   UNL d   1      53.230  32.542  52.563  0.00  0.00    -0.227 OA
BRANCH  11  12
ATOM     12  S   UNL d   1      53.216  31.796  52.914  0.00  0.00     0.304 S 
ATOM     13  O   UNL d   1      53.700  32.067  53.509  0.00  0.00    -0.193 OA
ATOM     14  O   UNL d   1      52.727  31.511  52.320  0.00  0.00    -0.193 OA
BRANCH  12  15
ATOM     15  C   UNL d   1      53.204  31.043  53.273  0.00  0.00     0.111 A 
ATOM     16  C   UNL d   1      52.718  30.451  52.963  0.00  0.00     0.015 A 
ATOM     17  C   UNL d   1      52.706  29.706  53.318  0.00  0.00     0.025 A 
ATOM     18  C   UNL d   1      53.180  29.554  53.983  0.00  0.00     0.094 A 
ATOM     19  C   UNL d   1      53.663  30.156  54.284  0.00  0.00     0.025 A 
ATOM     20  C   UNL d   1      53.673  30.900  53.927  0.00  0.00     0.015 A 
BRANCH  18  21
ATOM     21  O   UNL d   1      53.166  28.815  54.331  0.00  0.00    -0.328 OA
ATOM     22  C   UNL d   1      53.348  28.736  55.127  0.00  0.00     0.181 C 
ENDBRANCH  18  21
ENDBRANCH  12  15
ENDBRANCH  11  12
ENDBRANCH   8  11
BRANCH   1  23
ATOM     23  C   UNL d   1      49.556  34.758  52.913  0.00  0.00     0.029 C 
BRANCH  23  24
ATOM     24  C   UNL d   1      49.146  34.797  52.195  0.00  0.00     0.021 A 
ATOM     25  C   UNL d   1      48.444  35.218  52.158  0.00  0.00     0.099 A 
ATOM     26  N   UNL d   1      48.028  35.264  51.453  0.00  0.00    -0.242 NA
ATOM     27  C   UNL d   1      48.321  34.882  50.772  0.00  0.00     0.099 A 
ATOM     28  C   UNL d   1      49.030  34.458  50.815  0.00  0.00     0.021 A 
ATOM     29  C   UNL d   1      49.439  34.420  51.533  0.00  0.00     0.003 A 
ENDBRANCH  23  24
ENDBRANCH   1  23
TORSDOF 6
ENDMDL
MODEL 5
REMARK VINA RESULT:      -6.7      1.411      1.894
REMARK  6 active torsions:
REMARK  status: ('A' for Active; 'I' for Inactive)
REMARK    1  A    between atoms: O_8  and  S_1 
REMARK    2  A    between atoms: C_9  and  S_1 
REMARK    3  A    between atoms: C_7  and  C_2 
REMARK    4  A    between atoms: C_20  and  C_7 
REMARK    5  A    between atoms: C_14  and  O_8 
REMARK    6  A    between atoms: O_24  and  C_21 
ROOT
ATOM      1  C   UNL d   1      53.044  32.660  53.462  0.00  0.00     0.139 A 
ATOM      2  C   UNL d   1      52.385  33.743  53.058  0.00  0.00     0.064 A 
ATOM      3  C   UNL d   1      53.086  33.483  53.399  0.00  0.00     0.220 A 
ATOM      4  C   UNL d   1      51.907  33.087  52.907  0.00  0.00     0.105 A 
ATOM      5  O   UNL d   1      52.317  32.416  53.159  0.00  0.00    -0.304 OA
ATOM      6  C   UNL d   1      51.174  33.192  52.567  0.00  0.00     0.050 A 
ATOM      7  C   UNL d   1      52.122  34.498  52.864  0.00  0.00     0.007 A 
ATOM      8  C   UNL d   1      50.910  33.947  52.373  0.00  0.00     0.116 A 
ATOM      9  O   UNL d   1      53.722  33.950  53.639  0.00  0.00    -0.284 OA
ATOM     10  C   UNL d   1      51.384  34.596  52.522  0.00  0.00     0.026 A 
ENDROOT
BRANCH   8  11
ATOM     11  O   UNL d   1      50.170  34.048  52.029  0.00  0.00    -0.227 OA
BRANCH  11  12
ATOM     12  S   UNL d   1      49.626  34.571  52.364  0.00  0.00     0.304 S 
ATOM     13  O   UNL d   1      49.642  35.021  51.687  0.00  0.00    -0.193 OA
ATOM     14  O   UNL d   1      49.602  34.124  53.053  0.00  0.00    -0.193 OA
BRANCH  12  15
ATOM     15  C   UNL d   1      49.077  35.102  52.698  0.00  0.00     0.111 A 
ATOM     16  C   UNL d   1      49.177  35.353  53.480  0.00  0.00     0.015 A 
ATOM     17  C   UNL d   1      48.634  35.878  53.812  0.00  0.00     0.025 A 
ATOM     18  C   UNL d   1      47.992  36.153  53.362  0.00  0.00     0.094 A 
ATOM     19  C   UNL d   1      47.903  35.893  52.579  0.00  0.00     0.025 A 
ATOM     20  C   UNL d   1      48.448  35.368  52.251  0.00  0.00     0.015 A 
BRANCH  18  21
ATOM     21  O   UNL d   1      47.456  36.673  53.693  0.00  0.00    -0.328 OA
ATOM     22  C   UNL d   1      46.673  36.447  53.788  0.00  0.00     0.181 C 
ENDBRANCH  18  21
ENDBRANCH  12  15
ENDBRANCH  11  12
ENDBRANCH   8  11
BRANCH   1  23
ATOM     23  C   UNL d   1      53.626  32.165  53.773  0.00  0.00     0.029 C 
BRANCH  23  24
ATOM     24  C   UNL d   1      53.519  31.344  53.782  0.00  0.00     0.021 A 
ATOM     25  C   UNL d   1      53.274  30.980  54.474  0.00  0.00     0.099 A 
ATOM     26  N   UNL d   1      53.164  30.168  54.497  0.00  0.00    -0.242 NA
ATOM     27  C   UNL d   1      53.302  29.712  53.813  0.00  0.00     0.099 A 
ATOM     28  C   UNL d   1      53.549  30.084  53.117  0.00  0.00     0.021 A 
ATOM     29  C   UNL d   1      53.656  30.904  53.108  0.00  0.00     0.003 A 
ENDBRANCH  23  24
ENDBRANCH   1  23
TORSDOF 6
ENDMDL
