MODEL 1
REMARK VINA RESULT:      -6.9      0.000      0.000
REMARK  4 active torsions:
REMARK  status: ('A' for Active; 'I' for Inactive)
REMARK    1  A    between atoms: C_2  and  C_1 
REMARK    2  A    between atoms: O_6  and  C_3 
REMARK    3  A    between atoms: C_4  and  C_9 
REMARK    4  A    between atoms: C_9  and  O_6 
ROOT
ATOM      1  C   UNL d   1     -48.024  13.170  22.433  0.00  0.00     0.000 A 
ATOM      2  C   UNL d   1     -48.174  13.951  22.683  0.00  0.00     0.091 A 
ATOM      3  C   UNL d   1     -47.227  12.901  22.397  0.00  0.00     0.004 A 
ATOM      4  C   UNL d   1     -47.555  14.453  22.892  0.00  0.00     0.024 A 
ATOM      5  C   UNL d   1     -46.613  13.410  22.608  0.00  0.00     0.035 A 
ATOM      6  C   UNL d   1     -46.779  14.180  22.854  0.00  0.00     0.009 A 
ATOM      7 BR   UNL d   1     -45.814  13.142  22.573  0.00  0.00    -0.049 Br
ENDROOT
BRANCH   2   8
ATOM      8  O   UNL d   1     -48.965  14.213  22.717  0.00  0.00    -0.320 OA
BRANCH   8   9
ATOM      9  C   UNL d   1     -49.147  15.005  22.940  0.00  0.00     0.246 C 
BRANCH   9  10
ATOM     10  C   UNL d   1     -49.931  15.261  22.977  0.00  0.00     0.217 C 
ATOM     11  O   UNL d   1     -50.297  15.549  22.288  0.00  0.00    -0.645 OA
ATOM     12  O   UNL d   1     -50.329  15.222  23.698  0.00  0.00    -0.645 OA
ENDBRANCH   9  10
ENDBRANCH   8   9
ENDBRANCH   2   8
BRANCH   1  13
ATOM     13  C   UNL d   1     -48.642  12.669  22.224  0.00  0.00     0.021 C 
ATOM     14  C   UNL d   1     -49.263  12.166  22.014  0.00  0.00     0.004 C 
ATOM     15  C   UNL d   1     -48.697  12.409  23.011  0.00  0.00     0.004 C 
ATOM     16  C   UNL d   1     -48.588  12.926  21.450  0.00  0.00     0.004 C 
ENDBRANCH   1  13
TORSDOF 4
ENDMDL
MODEL 2
REMARK VINA RESULT:      -6.7      2.009      3.171
REMARK  4 active torsions:
REMARK  status: ('A' for Active; 'I' for Inactive)
REMARK    1  A    between atoms: C_2  and  C_1 
REMARK    2  A    between atoms: O_6  and  C_3 
REMARK    3  A    between atoms: C_4  and  C_9 
REMARK    4  A    between atoms: C_9  and  O_6 
ROOT
ATOM      1  C   UNL d   1     -49.079  13.287  22.934  0.00  0.00     0.000 A 
ATOM      2  C   UNL d   1     -48.365  12.894  23.110  0.00  0.00     0.091 A 
ATOM      3  C   UNL d   1     -49.808  12.914  23.134  0.00  0.00     0.004 A 
ATOM      4  C   UNL d   1     -48.369  12.153  23.473  0.00  0.00     0.024 A 
ATOM      5  C   UNL d   1     -49.801  12.173  23.497  0.00  0.00     0.035 A 
ATOM      6  C   UNL d   1     -49.086  11.798  23.664  0.00  0.00     0.009 A 
ATOM      7 BR   UNL d   1     -50.530  11.798  23.698  0.00  0.00    -0.049 Br
ENDROOT
BRANCH   2   8
ATOM      8  O   UNL d   1     -47.646  13.267  22.910  0.00  0.00    -0.320 OA
BRANCH   8   9
ATOM      9  C   UNL d   1     -46.908  12.886  23.054  0.00  0.00     0.246 C 
BRANCH   9  10
ATOM     10  C   UNL d   1     -46.198  13.288  22.934  0.00  0.00     0.217 C 
ATOM     11  O   UNL d   1     -45.856  13.290  22.175  0.00  0.00    -0.645 OA
ATOM     12  O   UNL d   1     -45.847  13.677  23.570  0.00  0.00    -0.645 OA
ENDBRANCH   9  10
ENDBRANCH   8   9
ENDBRANCH   2   8
BRANCH   1  13
ATOM     13  C   UNL d   1     -49.075  14.025  22.573  0.00  0.00     0.021 C 
ATOM     14  C   UNL d   1     -49.071  14.767  22.209  0.00  0.00     0.004 C 
ATOM     15  C   UNL d   1     -49.085  13.659  21.827  0.00  0.00     0.004 C 
ATOM     16  C   UNL d   1     -49.066  14.384  23.307  0.00  0.00     0.004 C 
ENDBRANCH   1  13
TORSDOF 4
ENDMDL
MODEL 3
REMARK VINA RESULT:      -6.1      1.188      2.113
REMARK  4 active torsions:
REMARK  status: ('A' for Active; 'I' for Inactive)
REMARK    1  A    between atoms: C_2  and  C_1 
REMARK    2  A    between atoms: O_6  and  C_3 
REMARK    3  A    between atoms: C_4  and  C_9 
REMARK    4  A    between atoms: C_9  and  O_6 
ROOT
ATOM      1  C   UNL d   1     -47.194  12.937  23.051  0.00  0.00     0.000 A 
ATOM      2  C   UNL d   1     -48.012  13.086  23.094  0.00  0.00     0.091 A 
ATOM      3  C   UNL d   1     -46.908  12.171  23.255  0.00  0.00     0.004 A 
ATOM      4  C   UNL d   1     -48.536  12.496  23.333  0.00  0.00     0.024 A 
ATOM      5  C   UNL d   1     -47.440  11.587  23.493  0.00  0.00     0.035 A 
ATOM      6  C   UNL d   1     -48.247  11.750  23.531  0.00  0.00     0.009 A 
ATOM      7 BR   UNL d   1     -47.156  10.819  23.698  0.00  0.00    -0.049 Br
ENDROOT
BRANCH   2   8
ATOM      8  O   UNL d   1     -48.290  13.846  22.891  0.00  0.00    -0.320 OA
BRANCH   8   9
ATOM      9  C   UNL d   1     -49.110  14.034  22.949  0.00  0.00     0.246 C 
BRANCH   9  10
ATOM     10  C   UNL d   1     -49.382  14.786  22.745  0.00  0.00     0.217 C 
ATOM     11  O   UNL d   1     -49.382  15.388  23.320  0.00  0.00    -0.645 OA
ATOM     12  O   UNL d   1     -49.647  14.919  21.976  0.00  0.00    -0.645 OA
ENDBRANCH   9  10
ENDBRANCH   8   9
ENDBRANCH   2   8
BRANCH   1  13
ATOM     13  C   UNL d   1     -46.671  13.525  22.813  0.00  0.00     0.021 C 
ATOM     14  C   UNL d   1     -46.146  14.117  22.573  0.00  0.00     0.004 C 
ATOM     15  C   UNL d   1     -46.780  13.301  22.020  0.00  0.00     0.004 C 
ATOM     16  C   UNL d   1     -46.565  13.746  23.592  0.00  0.00     0.004 C 
ENDBRANCH   1  13
TORSDOF 4
ENDMDL
MODEL 4
REMARK VINA RESULT:      -6.1      1.450      2.115
REMARK  4 active torsions:
REMARK  status: ('A' for Active; 'I' for Inactive)
REMARK    1  A    between atoms: C_2  and  C_1 
REMARK    2  A    between atoms: O_6  and  C_3 
REMARK    3  A    between atoms: C_4  and  C_9 
REMARK    4  A    between atoms: C_9  and  O_6 
ROOT
ATOM      1  C   UNL d   1     -48.164  13.269  22.294  0.00  0.00     0.000 A 
ATOM      2  C   UNL d   1     -48.415  12.774  22.916  0.00  0.00     0.091 A 
ATOM      3  C   UNL d   1     -47.341  13.425  22.204  0.00  0.00     0.004 A 
ATOM      4  C   UNL d   1     -47.868  12.442  23.437  0.00  0.00     0.024 A 
ATOM      5  C   UNL d   1     -46.802  13.087  22.730  0.00  0.00     0.035 A 
ATOM      6  C   UNL d   1     -47.066  12.600  23.341  0.00  0.00     0.009 A 
ATOM      7 BR   UNL d   1     -45.977  13.243  22.641  0.00  0.00    -0.049 Br
ENDROOT
BRANCH   2   8
ATOM      8  O   UNL d   1     -49.230  12.623  23.001  0.00  0.00    -0.320 OA
BRANCH   8   9
ATOM      9  C   UNL d   1     -49.530  12.254  23.698  0.00  0.00     0.246 C 
BRANCH   9  10
ATOM     10  C   UNL d   1     -50.259  11.868  23.688  0.00  0.00     0.217 C 
ATOM     11  O   UNL d   1     -50.958  12.320  23.698  0.00  0.00    -0.645 OA
ATOM     12  O   UNL d   1     -50.274  11.044  23.667  0.00  0.00    -0.645 OA
ENDBRANCH   9  10
ENDBRANCH   8   9
ENDBRANCH   2   8
BRANCH   1  13
ATOM     13  C   UNL d   1     -48.709  13.600  21.776  0.00  0.00     0.021 C 
ATOM     14  C   UNL d   1     -49.257  13.933  21.254  0.00  0.00     0.004 C 
ATOM     15  C   UNL d   1     -48.756  14.276  22.256  0.00  0.00     0.004 C 
ATOM     16  C   UNL d   1     -48.664  12.935  21.303  0.00  0.00     0.004 C 
ENDBRANCH   1  13
TORSDOF 4
ENDMDL
MODEL 5
REMARK VINA RESULT:      -5.7      1.873      2.882
REMARK  4 active torsions:
REMARK  status: ('A' for Active; 'I' for Inactive)
REMARK    1  A    between atoms: C_2  and  C_1 
REMARK    2  A    between atoms: O_6  and  C_3 
REMARK    3  A    between atoms: C_4  and  C_9 
REMARK    4  A    between atoms: C_9  and  O_6 
ROOT
ATOM      1  C   UNL d   1     -49.020  13.404  22.509  0.00  0.00     0.000 A 
ATOM      2  C   UNL d   1     -48.367  13.882  22.709  0.00  0.00     0.091 A 
ATOM      3  C   UNL d   1     -49.785  13.756  22.469  0.00  0.00     0.004 A 
ATOM      4  C   UNL d   1     -48.465  14.686  22.865  0.00  0.00     0.024 A 
ATOM      5  C   UNL d   1     -49.873  14.561  22.627  0.00  0.00     0.035 A 
ATOM      6  C   UNL d   1     -49.217  15.021  22.823  0.00  0.00     0.009 A 
ATOM      7 BR   UNL d   1     -50.638  14.915  22.587  0.00  0.00    -0.049 Br
ENDROOT
BRANCH   2   8
ATOM      8  O   UNL d   1     -47.613  13.529  22.747  0.00  0.00    -0.320 OA
BRANCH   8   9
ATOM      9  C   UNL d   1     -46.933  13.987  22.948  0.00  0.00     0.246 C 
BRANCH   9  10
ATOM     10  C   UNL d   1     -46.189  13.633  22.997  0.00  0.00     0.217 C 
ATOM     11  O   UNL d   1     -45.681  13.664  22.339  0.00  0.00    -0.645 OA
ATOM     12  O   UNL d   1     -45.972  13.258  23.698  0.00  0.00    -0.645 OA
ENDBRANCH   9  10
ENDBRANCH   8   9
ENDBRANCH   2   8
BRANCH   1  13
ATOM     13  C   UNL d   1     -48.923  12.603  22.354  0.00  0.00     0.021 C 
ATOM     14  C   UNL d   1     -48.825  11.797  22.198  0.00  0.00     0.004 C 
ATOM     15  C   UNL d   1     -48.800  12.774  21.550  0.00  0.00     0.004 C 
ATOM     16  C   UNL d   1     -49.043  12.435  23.144  0.00  0.00     0.004 C 
ENDBRANCH   1  13
TORSDOF 4
ENDMDL
