MODEL 1
REMARK VINA RESULT:      51.5      0.000      0.000
REMARK  7 active torsions:
REMARK  status: ('A' for Active; 'I' for Inactive)
REMARK    1  A    between atoms: C_2  and  S_1 
REMARK    2  A    between atoms: N_6  and  S_1 
REMARK    3  A    between atoms: O_14  and  C_5 
REMARK    4  A    between atoms: C_15  and  N_6 
REMARK    5  A    between atoms: O_16  and  C_7 
REMARK    6  A    between atoms: C_11  and  C_19 
REMARK    7  A    between atoms: C_19  and  C_15 
ROOT
ATOM      1  C   UNL d   1     -48.940  27.999  34.175  0.00  0.00     0.112 C 
ENDROOT
BRANCH   1   2
ATOM      2  N   UNL d   1     -49.550  27.488  33.969  0.00  0.00    -0.157 NA
BRANCH   2   3
ATOM      3  S   UNL d   1     -49.385  26.751  33.635  0.00  0.00     0.285 S 
ATOM      4  O   UNL d   1     -48.580  26.893  33.747  0.00  0.00    -0.198 OA
ATOM      5  O   UNL d   1     -49.211  26.024  33.306  0.00  0.00    -0.198 OA
BRANCH   3   6
ATOM      6  C   UNL d   1     -50.193  26.617  33.526  0.00  0.00     0.105 A 
ATOM      7  C   UNL d   1     -50.491  25.845  33.492  0.00  0.00     0.013 A 
ATOM      8  C   UNL d   1     -51.299  25.721  33.383  0.00  0.00     0.001 A 
ATOM      9  C   UNL d   1     -51.597  24.953  33.349  0.00  0.00     0.000 C 
ATOM     10  C   UNL d   1     -51.810  26.367  33.307  0.00  0.00     0.000 A 
ATOM     11  C   UNL d   1     -51.512  27.134  33.341  0.00  0.00     0.001 A 
ATOM     12  C   UNL d   1     -50.704  27.259  33.450  0.00  0.00     0.013 A 
ENDBRANCH   3   6
ENDBRANCH   2   3
ENDBRANCH   1   2
BRANCH   1  13
ATOM     13  C   UNL d   1     -49.123  28.744  34.458  0.00  0.00     0.022 C 
BRANCH  13  14
ATOM     14  C   UNL d   1     -48.552  29.180  34.850  0.00  0.00     0.004 A 
ATOM     15  C   UNL d   1     -48.355  29.939  34.594  0.00  0.00     0.026 A 
ATOM     16  C   UNL d   1     -47.778  30.375  34.992  0.00  0.00     0.116 A 
ATOM     17  C   UNL d   1     -47.396  30.040  35.656  0.00  0.00     0.116 A 
ATOM     18  C   UNL d   1     -47.593  29.291  35.905  0.00  0.00     0.026 A 
ATOM     19  C   UNL d   1     -48.166  28.855  35.510  0.00  0.00     0.002 A 
BRANCH  16  20
ATOM     20  O   UNL d   1     -47.584  31.134  34.733  0.00  0.00    -0.326 OA
ATOM     21  C   UNL d   1     -48.122  31.785  34.515  0.00  0.00     0.181 C 
ENDBRANCH  16  20
BRANCH  17  22
ATOM     22  O   UNL d   1     -46.833  30.451  36.054  0.00  0.00    -0.326 OA
ATOM     23  C   UNL d   1     -46.582  30.215  36.791  0.00  0.00     0.181 C 
ENDBRANCH  17  22
ENDBRANCH  13  14
ENDBRANCH   1  13
TORSDOF 7
ENDMDL
