MODEL 1
REMARK VINA RESULT:       6.0      0.000      0.000
REMARK  6 active torsions:
REMARK  status: ('A' for Active; 'I' for Inactive)
REMARK    1  A    between atoms: C_3  and  C_1 
REMARK    2  A    between atoms: S_2  and  C_3 
REMARK    3  A    between atoms: C_8  and  S_2 
REMARK    4  A    between atoms: C_9  and  C_3 
REMARK    5  A    between atoms: N_7  and  C_4 
REMARK    6  A    between atoms: C_25  and  N_16 
ROOT
ATOM      1  C   UNL d   1      58.182   0.172  31.675  0.00  0.00     0.128 A 
ATOM      2  C   UNL d   1      57.999   0.169  32.475  0.00  0.00     0.166 A 
ATOM      3  N   UNL d   1      58.953   0.301  31.427  0.00  0.00    -0.240 NA
ATOM      4  N   UNL d   1      58.587   0.294  33.028  0.00  0.00    -0.225 NA
ATOM      5  C   UNL d   1      59.539   0.426  31.986  0.00  0.00     0.099 A 
ATOM      6  C   UNL d   1      59.360   0.423  32.787  0.00  0.00     0.101 A 
ATOM      7  C   UNL d   1      59.955   0.549  33.342  0.00  0.00     0.021 A 
ATOM      8  C   UNL d   1      60.314   0.555  31.735  0.00  0.00     0.021 A 
ATOM      9  C   UNL d   1      60.910   0.682  32.291  0.00  0.00     0.002 A 
ATOM     10  C   UNL d   1      60.727   0.678  33.092  0.00  0.00     0.002 A 
ENDROOT
BRANCH   1  11
ATOM     11  C   UNL d   1      57.595   0.047  31.116  0.00  0.00     0.129 C 
BRANCH  11  12
ATOM     12  S   UNL d   1      57.841  -0.157  30.278  0.00  0.00     0.213 S 
ATOM     13  O   UNL d   1      57.611   0.647  30.255  0.00  0.00    -0.217 OA
ATOM     14  O   UNL d   1      57.792   0.482  29.661  0.00  0.00    -0.217 OA
BRANCH  12  15
ATOM     15  C   UNL d   1      58.123  -0.859  29.927  0.00  0.00     0.088 A 
ATOM     16  C   UNL d   1      58.741  -0.825  29.377  0.00  0.00     0.011 A 
ATOM     17  C   UNL d   1      59.022  -1.517  29.030  0.00  0.00     0.001 A 
ATOM     18  C   UNL d   1      59.636  -1.488  28.484  0.00  0.00     0.000 C 
ATOM     19  C   UNL d   1      58.683  -2.248  29.232  0.00  0.00     0.000 A 
ATOM     20  C   UNL d   1      58.066  -2.277  29.781  0.00  0.00     0.001 A 
ATOM     21  C   UNL d   1      58.963  -2.944  28.884  0.00  0.00     0.000 C 
ATOM     22  C   UNL d   1      57.783  -1.584  30.132  0.00  0.00     0.011 A 
ENDBRANCH  12  15
ENDBRANCH  11  12
BRANCH  11  23
ATOM     23  C   UNL d   1      56.729   0.077  31.190  0.00  0.00     0.135 C 
ATOM     24  N   UNL d   1      56.153   0.530  30.695  0.00  0.00    -0.146 N 
ENDBRANCH  11  23
ENDBRANCH   1  11
BRANCH   2  25
ATOM     25  N   UNL d   1      57.209   0.036  32.712  0.00  0.00    -0.285 N 
ATOM     26  C   UNL d   1      56.964  -0.715  32.949  0.00  0.00     0.101 A 
ATOM     27  C   UNL d   1      56.175  -0.835  33.184  0.00  0.00     0.100 A 
ATOM     28  N   UNL d   1      55.636  -0.199  33.179  0.00  0.00    -0.300 N 
ATOM     29  C   UNL d   1      55.887   0.558  32.940  0.00  0.00     0.100 A 
ATOM     30  C   UNL d   1      56.670   0.673  32.708  0.00  0.00     0.101 A 
BRANCH  28  31
ATOM     31  C   UNL d   1      54.841  -0.325  33.416  0.00  0.00     0.080 C 
ATOM     32  C   UNL d   1      54.597  -0.069  34.172  0.00  0.00     0.021 C 
ENDBRANCH  28  31
ENDBRANCH   2  25
TORSDOF 6
ENDMDL
MODEL 2
REMARK VINA RESULT:       6.6      1.135      3.276
REMARK  6 active torsions:
REMARK  status: ('A' for Active; 'I' for Inactive)
REMARK    1  A    between atoms: C_3  and  C_1 
REMARK    2  A    between atoms: S_2  and  C_3 
REMARK    3  A    between atoms: C_8  and  S_2 
REMARK    4  A    between atoms: C_9  and  C_3 
REMARK    5  A    between atoms: N_7  and  C_4 
REMARK    6  A    between atoms: C_25  and  N_16 
ROOT
ATOM      1  C   UNL d   1      57.402  -0.141  31.322  0.00  0.00     0.128 A 
ATOM      2  C   UNL d   1      57.994   0.194  31.782  0.00  0.00     0.166 A 
ATOM      3  N   UNL d   1      56.654  -0.262  31.634  0.00  0.00    -0.240 NA
ATOM      4  N   UNL d   1      57.837   0.408  32.555  0.00  0.00    -0.225 NA
ATOM      5  C   UNL d   1      56.502  -0.046  32.409  0.00  0.00     0.099 A 
ATOM      6  C   UNL d   1      57.091   0.290  32.873  0.00  0.00     0.101 A 
ATOM      7  C   UNL d   1      56.929   0.505  33.652  0.00  0.00     0.021 A 
ATOM      8  C   UNL d   1      55.748  -0.168  32.722  0.00  0.00     0.021 A 
ATOM      9  C   UNL d   1      55.587   0.048  33.502  0.00  0.00     0.002 A 
ATOM     10  C   UNL d   1      56.179   0.383  33.962  0.00  0.00     0.002 A 
ENDROOT
BRANCH   1  11
ATOM     11  C   UNL d   1      57.555  -0.358  30.546  0.00  0.00     0.129 C 
BRANCH  11  12
ATOM     12  S   UNL d   1      57.568  -1.232  30.342  0.00  0.00     0.213 S 
ATOM     13  O   UNL d   1      56.910  -1.128  30.849  0.00  0.00    -0.217 OA
ATOM     14  O   UNL d   1      56.935  -1.751  30.691  0.00  0.00    -0.217 OA
BRANCH  12  15
ATOM     15  C   UNL d   1      58.074  -1.694  29.867  0.00  0.00     0.088 A 
ATOM     16  C   UNL d   1      58.541  -2.282  30.214  0.00  0.00     0.011 A 
ATOM     17  C   UNL d   1      59.042  -2.740  29.747  0.00  0.00     0.001 A 
ATOM     18  C   UNL d   1      59.507  -3.325  30.087  0.00  0.00     0.000 C 
ATOM     19  C   UNL d   1      59.076  -2.609  28.927  0.00  0.00     0.000 A 
ATOM     20  C   UNL d   1      58.608  -2.020  28.585  0.00  0.00     0.001 A 
ATOM     21  C   UNL d   1      59.578  -3.067  28.456  0.00  0.00     0.000 C 
ATOM     22  C   UNL d   1      58.105  -1.560  29.052  0.00  0.00     0.011 A 
ENDBRANCH  12  15
ENDBRANCH  11  12
BRANCH  11  23
ATOM     23  C   UNL d   1      57.716   0.130  29.845  0.00  0.00     0.135 C 
ATOM     24  N   UNL d   1      57.154   0.639  29.391  0.00  0.00    -0.146 N 
ENDBRANCH  11  23
ENDBRANCH   1  11
BRANCH   2  25
ATOM     25  N   UNL d   1      58.752   0.311  31.451  0.00  0.00    -0.285 N 
ATOM     26  C   UNL d   1      58.832   0.563  30.670  0.00  0.00     0.101 A 
ATOM     27  C   UNL d   1      59.591   0.676  30.350  0.00  0.00     0.100 A 
ATOM     28  N   UNL d   1      60.267   0.535  30.818  0.00  0.00    -0.300 N 
ATOM     29  C   UNL d   1      60.182   0.280  31.605  0.00  0.00     0.100 A 
ATOM     30  C   UNL d   1      59.427   0.169  31.919  0.00  0.00     0.101 A 
BRANCH  28  31
ATOM     31  C   UNL d   1      61.032   0.651  30.491  0.00  0.00     0.080 C 
ATOM     32  C   UNL d   1      61.132   0.602  29.665  0.00  0.00     0.021 C 
ENDBRANCH  28  31
ENDBRANCH   2  25
TORSDOF 6
ENDMDL
