MODEL 1
REMARK VINA RESULT:      15.9      0.000      0.000
REMARK  3 active torsions:
REMARK  status: ('A' for Active; 'I' for Inactive)
REMARK    1  A    between atoms: C_8  and  C_1 
REMARK    2  A    between atoms: C_9  and  C_8 
REMARK    3  A    between atoms: O_16  and  C_13 
ROOT
ATOM      1  C   UNL d   1      14.229  12.470  -1.766  0.00  0.00     0.013 A 
ATOM      2  C   UNL d   1      13.883  13.166  -2.975  0.00  0.00     0.105 A 
ATOM      3  O   UNL d   1      14.239  13.840  -2.685  0.00  0.00    -0.273 OA
ATOM      4  C   UNL d   1      13.874  12.467  -2.514  0.00  0.00     0.023 A 
ATOM      5  C   UNL d   1      14.592  13.838  -1.938  0.00  0.00     0.300 A 
ATOM      6  C   UNL d   1      14.586  13.154  -1.481  0.00  0.00     0.069 A 
ATOM      7  C   UNL d   1      13.534  13.163  -3.711  0.00  0.00     0.049 A 
ATOM      8  C   UNL d   1      13.518  11.788  -2.802  0.00  0.00     0.004 A 
ATOM      9  O   UNL d   1      14.956  14.537  -1.649  0.00  0.00    -0.259 OA
ATOM     10  C   UNL d   1      13.171  12.474  -4.005  0.00  0.00     0.096 A 
ATOM     11  C   UNL d   1      13.164  11.791  -3.552  0.00  0.00     0.024 A 
ENDROOT
BRANCH   1  12
ATOM     12  C   UNL d   1      14.218  11.780  -1.315  0.00  0.00     0.070 C 
BRANCH  12  13
ATOM     13  C   UNL d   1      14.251  11.836  -0.490  0.00  0.00     0.211 C 
ATOM     14  O   UNL d   1      14.989  11.800  -0.102  0.00  0.00    -0.644 OA
ATOM     15  O   UNL d   1      13.561  11.929  -0.048  0.00  0.00    -0.644 OA
ENDBRANCH  12  13
ENDBRANCH   1  12
BRANCH  10  16
ATOM     16  O   UNL d   1      12.820  12.480  -4.751  0.00  0.00    -0.328 OA
ATOM     17  C   UNL d   1      12.786  11.783  -5.198  0.00  0.00     0.181 C 
ENDBRANCH  10  16
TORSDOF 3
ENDMDL
