MODEL 1
REMARK VINA RESULT:      77.2      0.000      0.000
REMARK  7 active torsions:
REMARK  status: ('A' for Active; 'I' for Inactive)
REMARK    1  A    between atoms: C_7  and  C_1 
REMARK    2  A    between atoms: N_5  and  C_2 
REMARK       I    between atoms: C_8  and  N_5 
REMARK    3  A    between atoms: N_9  and  C_7 
REMARK    4  A    between atoms: C_11  and  C_7 
REMARK    5  A    between atoms: C_15  and  C_8 
REMARK    6  A    between atoms: O_25  and  C_20 
REMARK    7  A    between atoms: C_29  and  O_25 
ROOT
ATOM      1  C   UNL d   1      14.537  14.473  -1.805  0.00  0.00     0.066 C 
ENDROOT
BRANCH   1   2
ATOM      2  C   UNL d   1      14.158  14.379  -2.527  0.00  0.00     0.041 A 
ATOM      3  C   UNL d   1      13.650  13.792  -2.801  0.00  0.00     0.115 A 
ATOM      4  S   UNL d   1      13.438  13.988  -3.576  0.00  0.00    -0.068 SA
ATOM      5  C   UNL d   1      13.819  14.692  -3.764  0.00  0.00     0.031 A 
ATOM      6  C   UNL d   1      14.266  14.938  -3.118  0.00  0.00     0.009 A 
ATOM      7  C   UNL d   1      13.735  15.075  -4.527  0.00  0.00     0.007 C 
ATOM      8  C   UNL d   1      14.750  15.627  -3.048  0.00  0.00     0.001 C 
BRANCH   3   9
ATOM      9  N   UNL d   1      13.384  13.121  -2.402  0.00  0.00    -0.201 NA
ATOM     10  C   UNL d   1      13.127  12.455  -2.816  0.00  0.00     0.280 C 
ATOM     11  O   UNL d   1      12.859  11.779  -2.395  0.00  0.00    -0.265 OA
BRANCH  10  12
ATOM     12  C   UNL d   1      13.137  12.461  -3.632  0.00  0.00     0.058 A 
ATOM     13  C   UNL d   1      13.508  11.860  -4.039  0.00  0.00     0.005 A 
ATOM     14  C   UNL d   1      13.520  11.865  -4.851  0.00  0.00     0.000 A 
ATOM     15  C   UNL d   1      13.163  12.465  -5.263  0.00  0.00     0.000 A 
ATOM     16  C   UNL d   1      12.786  13.076  -4.860  0.00  0.00     0.000 A 
ATOM     17  C   UNL d   1      12.771  13.077  -4.041  0.00  0.00     0.005 A 
ENDBRANCH  10  12
ENDBRANCH   3   9
ENDBRANCH   1   2
BRANCH   1  18
ATOM     18  N   UNL d   1      14.755  13.808  -1.359  0.00  0.00    -0.301 N 
ATOM     19  C   UNL d   1      14.376  13.641  -0.623  0.00  0.00     0.100 A 
ATOM     20  C   UNL d   1      14.618  12.960  -0.192  0.00  0.00     0.100 A 
ATOM     21  N   UNL d   1      15.210  12.453  -0.463  0.00  0.00    -0.299 N 
ATOM     22  C   UNL d   1      15.590  12.620  -1.199  0.00  0.00     0.100 A 
ATOM     23  C   UNL d   1      15.431  11.784  -0.015  0.00  0.00     0.100 C 
ATOM     24  C   UNL d   1      15.359  13.286  -1.630  0.00  0.00     0.100 A 
ENDBRANCH   1  18
BRANCH   1  25
ATOM     25  C   UNL d   1      14.709  15.228  -1.510  0.00  0.00     0.016 A 
ATOM     26  C   UNL d   1      15.473  15.514  -1.557  0.00  0.00     0.004 A 
ATOM     27  C   UNL d   1      15.665  16.255  -1.273  0.00  0.00     0.025 A 
ATOM     28  C   UNL d   1      15.083  16.739  -0.925  0.00  0.00     0.100 A 
ATOM     29  C   UNL d   1      14.281  16.457  -0.867  0.00  0.00     0.025 A 
ATOM     30  C   UNL d   1      14.099  15.688  -1.166  0.00  0.00     0.004 A 
BRANCH  28  31
ATOM     31  O   UNL d   1      15.275  17.485  -0.638  0.00  0.00    -0.305 OA
BRANCH  31  32
ATOM     32  C   UNL d   1      15.627  18.051  -1.136  0.00  0.00     0.123 C 
ATOM     33  C   UNL d   1      16.284  18.485  -0.881  0.00  0.00     0.029 C 
ENDBRANCH  31  32
ENDBRANCH  28  31
ENDBRANCH   1  25
TORSDOF 7
ENDMDL
