MODEL 1
REMARK VINA RESULT:      -3.4      0.000      0.000
REMARK  5 active torsions:
REMARK  status: ('A' for Active; 'I' for Inactive)
REMARK    1  A    between atoms: N_2  and  S_1 
REMARK    2  A    between atoms: C_10  and  S_1 
REMARK    3  A    between atoms: C_4  and  N_12 
REMARK    4  A    between atoms: C_8  and  C_17 
REMARK       I    between atoms: N_11  and  C_8 
REMARK    5  A    between atoms: N_12  and  N_11 
ROOT
ATOM      1  C   UNL d   1      32.800  19.144 -23.113  0.00  0.00     0.104 A 
ATOM      2  C   UNL d   1      32.625  17.793 -24.036  0.00  0.00     0.059 A 
ATOM      3  C   UNL d   1      32.725  19.213 -23.933  0.00  0.00     0.013 A 
ATOM      4  C   UNL d   1      32.788  18.399 -22.758  0.00  0.00     0.013 A 
ATOM      5  C   UNL d   1      32.639  18.537 -24.382  0.00  0.00     0.006 A 
ATOM      6  C   UNL d   1      32.700  17.724 -23.225  0.00  0.00     0.006 A 
ENDROOT
BRANCH   2   7
ATOM      7  C   UNL d   1      32.538  17.117 -24.494  0.00  0.00     0.297 C 
ATOM      8  N   UNL d   1      31.787  16.792 -24.472  0.00  0.00    -0.104 NA
ATOM      9  O   UNL d   1      33.241  16.903 -24.887  0.00  0.00    -0.264 OA
BRANCH   8  10
ATOM     10  N   UNL d   1      31.205  17.149 -24.018  0.00  0.00    -0.118 NA
BRANCH  10  11
ATOM     11  C   UNL d   1      30.436  16.831 -23.996  0.00  0.00     0.215 A 
ATOM     12  N   UNL d   1      30.110  16.397 -23.381  0.00  0.00    -0.219 NA
ATOM     13  C   UNL d   1      29.343  16.189 -23.579  0.00  0.00     0.090 A 
ATOM     14  C   UNL d   1      28.761  15.764 -23.187  0.00  0.00     0.018 A 
ATOM     15  C   UNL d   1      29.192  16.503 -24.334  0.00  0.00     0.050 A 
ATOM     16  C   UNL d   1      28.026  15.647 -23.543  0.00  0.00     0.002 A 
ATOM     17  C   UNL d   1      28.915  15.453 -22.434  0.00  0.00     0.002 C 
ATOM     18  C   UNL d   1      27.879  15.958 -24.289  0.00  0.00     0.001 A 
ATOM     19  C   UNL d   1      28.459  16.391 -24.698  0.00  0.00     0.008 A 
ATOM     20  S   UNL d   1      29.868  16.897 -24.586  0.00  0.00    -0.045 SA
ENDBRANCH  10  11
ENDBRANCH   8  10
ENDBRANCH   2   7
BRANCH   1  21
ATOM     21  S   UNL d   1      32.888  19.815 -22.647  0.00  0.00     0.271 S 
ATOM     22  O   UNL d   1      32.937  19.346 -21.972  0.00  0.00    -0.200 OA
ATOM     23  O   UNL d   1      32.839  20.287 -23.321  0.00  0.00    -0.200 OA
BRANCH  21  24
ATOM     24  N   UNL d   1      32.976  20.490 -22.181  0.00  0.00    -0.229 N 
ATOM     25  C   UNL d   1      32.940  21.237 -22.529  0.00  0.00     0.092 A 
ATOM     26  C   UNL d   1      33.027  21.912 -22.063  0.00  0.00     0.018 A 
ATOM     27  C   UNL d   1      32.991  22.659 -22.411  0.00  0.00     0.002 A 
ATOM     28  C   UNL d   1      33.152  21.848 -21.248  0.00  0.00     0.003 A 
ATOM     29  C   UNL d   1      33.079  23.333 -21.945  0.00  0.00     0.000 A 
ATOM     30  C   UNL d   1      33.203  23.261 -21.131  0.00  0.00     0.000 A 
ATOM     31  C   UNL d   1      33.239  22.515 -20.787  0.00  0.00     0.000 A 
ATOM     32  C   UNL d   1      33.188  21.093 -20.901  0.00  0.00     0.020 A 
ATOM     33  C   UNL d   1      33.100  20.418 -21.367  0.00  0.00     0.092 A 
ENDBRANCH  21  24
ENDBRANCH   1  21
TORSDOF 5
ENDMDL
MODEL 2
REMARK VINA RESULT:      -1.4      1.214      1.861
REMARK  5 active torsions:
REMARK  status: ('A' for Active; 'I' for Inactive)
REMARK    1  A    between atoms: N_2  and  S_1 
REMARK    2  A    between atoms: C_10  and  S_1 
REMARK    3  A    between atoms: C_4  and  N_12 
REMARK    4  A    between atoms: C_8  and  C_17 
REMARK       I    between atoms: N_11  and  C_8 
REMARK    5  A    between atoms: N_12  and  N_11 
ROOT
ATOM      1  C   UNL d   1      32.884  20.350 -22.373  0.00  0.00     0.104 A 
ATOM      2  C   UNL d   1      32.824  19.498 -23.779  0.00  0.00     0.059 A 
ATOM      3  C   UNL d   1      33.241  19.607 -22.418  0.00  0.00     0.013 A 
ATOM      4  C   UNL d   1      32.498  20.665 -23.031  0.00  0.00     0.013 A 
ATOM      5  C   UNL d   1      33.206  19.191 -23.121  0.00  0.00     0.006 A 
ATOM      6  C   UNL d   1      32.470  20.235 -23.734  0.00  0.00     0.006 A 
ENDROOT
BRANCH   2   7
ATOM      7  C   UNL d   1      32.792  19.076 -24.483  0.00  0.00     0.297 C 
ATOM      8  N   UNL d   1      32.350  18.387 -24.440  0.00  0.00    -0.104 NA
ATOM      9  O   UNL d   1      33.220  19.442 -25.096  0.00  0.00    -0.264 OA
BRANCH   8  10
ATOM     10  N   UNL d   1      31.990  18.181 -23.733  0.00  0.00    -0.118 NA
BRANCH  10  11
ATOM     11  C   UNL d   1      31.410  17.585 -23.716  0.00  0.00     0.215 A 
ATOM     12  N   UNL d   1      30.718  17.571 -24.157  0.00  0.00    -0.219 NA
ATOM     13  C   UNL d   1      30.301  16.889 -23.977  0.00  0.00     0.090 A 
ATOM     14  C   UNL d   1      29.586  16.586 -24.241  0.00  0.00     0.018 A 
ATOM     15  C   UNL d   1      30.746  16.472 -23.411  0.00  0.00     0.050 A 
ATOM     16  C   UNL d   1      29.309  15.867 -23.946  0.00  0.00     0.002 A 
ATOM     17  C   UNL d   1      29.145  17.004 -24.805  0.00  0.00     0.002 C 
ATOM     18  C   UNL d   1      29.750  15.456 -23.387  0.00  0.00     0.001 A 
ATOM     19  C   UNL d   1      30.477  15.752 -23.110  0.00  0.00     0.008 A 
ATOM     20  S   UNL d   1      31.427  16.905 -23.254  0.00  0.00    -0.045 SA
ENDBRANCH  10  11
ENDBRANCH   8  10
ENDBRANCH   2   7
BRANCH   1  21
ATOM     21  S   UNL d   1      32.911  20.780 -21.673  0.00  0.00     0.271 S 
ATOM     22  O   UNL d   1      32.894  20.082 -21.237  0.00  0.00    -0.200 OA
ATOM     23  O   UNL d   1      32.928  21.481 -22.107  0.00  0.00    -0.200 OA
BRANCH  21  24
ATOM     24  N   UNL d   1      32.938  21.214 -20.972  0.00  0.00    -0.229 N 
ATOM     25  C   UNL d   1      32.777  22.023 -20.983  0.00  0.00     0.092 A 
ATOM     26  C   UNL d   1      32.804  22.457 -20.282  0.00  0.00     0.018 A 
ATOM     27  C   UNL d   1      32.643  23.266 -20.292  0.00  0.00     0.002 A 
ATOM     28  C   UNL d   1      32.992  22.089 -19.565  0.00  0.00     0.003 A 
ATOM     29  C   UNL d   1      32.670  23.699 -19.592  0.00  0.00     0.000 A 
ATOM     30  C   UNL d   1      32.859  23.324 -18.880  0.00  0.00     0.000 A 
ATOM     31  C   UNL d   1      33.019  22.518 -18.872  0.00  0.00     0.000 A 
ATOM     32  C   UNL d   1      33.153  21.273 -19.558  0.00  0.00     0.020 A 
ATOM     33  C   UNL d   1      33.126  20.839 -20.259  0.00  0.00     0.092 A 
ENDBRANCH  21  24
ENDBRANCH   1  21
TORSDOF 5
ENDMDL
