MODEL 1
REMARK VINA RESULT:     100.5      0.000      0.000
REMARK  9 active torsions:
REMARK  status: ('A' for Active; 'I' for Inactive)
REMARK    1  A    between atoms: C_10  and  N_1 
REMARK    2  A    between atoms: C_7  and  N_3 
REMARK    3  A    between atoms: C_8  and  C_7 
REMARK       I    between atoms: N_12  and  C_8 
REMARK    4  A    between atoms: C_13  and  C_10 
REMARK    5  A    between atoms: C_21  and  N_12 
REMARK    6  A    between atoms: C_28  and  N_12 
REMARK       I    between atoms: N_19  and  C_13 
REMARK    7  A    between atoms: C_17  and  C_26 
REMARK    8  A    between atoms: C_26  and  N_19 
REMARK    9  A    between atoms: C_27  and  C_21 
ROOT
ATOM      1  N   UNL d   1     -57.350 -99.642 -43.966  0.00  0.00    -0.220 N 
ATOM      2  C   UNL d   1     -57.189-100.317 -43.519  0.00  0.00     0.342 A 
ATOM      3  N   UNL d   1     -56.506-100.782 -43.678  0.00  0.00    -0.254 N 
ATOM      4  C   UNL d   1     -56.170 -99.865 -44.737  0.00  0.00     0.102 A 
ATOM      5  C   UNL d   1     -56.840 -99.424 -44.568  0.00  0.00     0.276 A 
ATOM      6  C   UNL d   1     -56.005-100.552 -44.283  0.00  0.00     0.080 A 
ATOM      7  S   UNL d   1     -55.560 -99.777 -45.310  0.00  0.00    -0.080 SA
ATOM      8  C   UNL d   1     -55.287-100.891 -44.577  0.00  0.00     0.025 A 
ATOM      9  O   UNL d   1     -57.687-100.543 -42.919  0.00  0.00    -0.245 OA
ATOM     10  C   UNL d   1     -55.018-100.405 -45.213  0.00  0.00     0.037 A 
ATOM     11  O   UNL d   1     -56.999 -98.758 -45.010  0.00  0.00    -0.266 OA
ENDROOT
BRANCH   3  12
ATOM     12  C   UNL d   1     -56.336-101.450 -43.243  0.00  0.00     0.146 C 
BRANCH  12  13
ATOM     13  C   UNL d   1     -55.657-101.481 -42.771  0.00  0.00     0.283 C 
ATOM     14  N   UNL d   1     -55.564-102.093 -42.227  0.00  0.00    -0.271 N 
ATOM     15  O   UNL d   1     -55.083-100.900 -42.853  0.00  0.00    -0.265 OA
BRANCH  14  16
ATOM     16  C   UNL d   1     -54.882-102.116 -41.759  0.00  0.00     0.083 C 
BRANCH  16  17
ATOM     17  C   UNL d   1     -54.952-102.155 -40.939  0.00  0.00     0.018 A 
ATOM     18  C   UNL d   1     -54.739-101.510 -40.478  0.00  0.00     0.002 A 
ATOM     19  C   UNL d   1     -54.810-101.546 -39.648  0.00  0.00     0.000 A 
ATOM     20  C   UNL d   1     -55.092-102.226 -39.295  0.00  0.00     0.000 A 
ATOM     21  C   UNL d   1     -55.308-102.879 -39.754  0.00  0.00     0.000 A 
ATOM     22  C   UNL d   1     -55.238-102.844 -40.578  0.00  0.00     0.002 A 
ENDBRANCH  16  17
ENDBRANCH  14  16
BRANCH  14  23
ATOM     23  C   UNL d   1     -56.138-102.668 -42.151  0.00  0.00     0.083 C 
ATOM     24  C   UNL d   1     -56.914-102.460 -41.965  0.00  0.00     0.021 C 
ENDBRANCH  14  23
ENDBRANCH  12  13
ENDBRANCH   3  12
BRANCH   1  25
ATOM     25  C   UNL d   1     -58.007 -99.205 -43.805  0.00  0.00     0.150 C 
BRANCH  25  26
ATOM     26  C   UNL d   1     -58.713 -99.362 -44.201  0.00  0.00     0.297 C 
ATOM     27  N   UNL d   1     -58.705 -99.716 -44.946  0.00  0.00    -0.203 NA
ATOM     28  O   UNL d   1     -59.434 -99.167 -43.853  0.00  0.00    -0.264 OA
BRANCH  27  29
ATOM     29  C   UNL d   1     -59.408 -99.874 -45.344  0.00  0.00     0.127 C 
BRANCH  29  30
ATOM     30  C   UNL d   1     -59.538 -99.574 -46.097  0.00  0.00     0.119 A 
ATOM     31  O   UNL d   1     -59.371 -99.961 -46.809  0.00  0.00    -0.304 OA
ATOM     32  C   UNL d   1     -59.588 -99.458 -47.423  0.00  0.00     0.123 A 
ATOM     33  C   UNL d   1     -59.891 -98.758 -47.093  0.00  0.00     0.029 A 
ATOM     34  C   UNL d   1     -59.854 -98.844 -46.275  0.00  0.00     0.028 A 
ENDBRANCH  29  30
ENDBRANCH  27  29
ENDBRANCH  25  26
ENDBRANCH   1  25
TORSDOF 9
ENDMDL
