MODEL 1
REMARK VINA RESULT:      -1.6      0.000      0.000
REMARK  7 active torsions:
REMARK  status: ('A' for Active; 'I' for Inactive)
REMARK    1  A    between atoms: C_3  and  C_1 
REMARK    2  A    between atoms: C_5  and  C_3 
REMARK    3  A    between atoms: C_14  and  C_3 
REMARK    4  A    between atoms: N_6  and  C_14 
REMARK    5  A    between atoms: O_17  and  C_9 
REMARK    6  A    between atoms: O_18  and  C_10 
REMARK    7  A    between atoms: O_19  and  C_11 
ROOT
ATOM      1  C   UNL d   1      31.728  17.190 -24.404  0.00  0.00     0.025 C 
ENDROOT
BRANCH   1   2
ATOM      2  C   UNL d   1      32.157  17.688 -23.905  0.00  0.00     0.021 A 
ATOM      3  C   UNL d   1      32.417  17.494 -23.129  0.00  0.00     0.082 A 
ATOM      4  N   UNL d   1      32.818  18.133 -22.830  0.00  0.00    -0.246 NA
ATOM      5  C   UNL d   1      32.285  16.774 -22.741  0.00  0.00     0.021 C 
ATOM      6  C   UNL d   1      32.816  18.727 -23.402  0.00  0.00     0.081 A 
ATOM      7  C   UNL d   1      32.404  18.438 -24.060  0.00  0.00     0.019 A 
ATOM      8  C   UNL d   1      33.124  19.476 -23.418  0.00  0.00     0.019 A 
ATOM      9  C   UNL d   1      32.312  18.916 -24.728  0.00  0.00     0.002 A 
ATOM     10  C   UNL d   1      32.625  19.672 -24.739  0.00  0.00     0.000 A 
ATOM     11  C   UNL d   1      33.036  19.960 -24.081  0.00  0.00     0.002 A 
ENDBRANCH   1   2
BRANCH   1  12
ATOM     12  C   UNL d   1      30.946  16.995 -24.206  0.00  0.00     0.006 A 
ATOM     13  C   UNL d   1      30.794  16.331 -23.755  0.00  0.00     0.026 A 
ATOM     14  C   UNL d   1      30.022  16.130 -23.555  0.00  0.00     0.118 A 
ATOM     15  C   UNL d   1      29.407  16.605 -23.813  0.00  0.00     0.138 A 
ATOM     16  C   UNL d   1      29.551  17.278 -24.268  0.00  0.00     0.118 A 
ATOM     17  C   UNL d   1      30.331  17.470 -24.464  0.00  0.00     0.026 A 
BRANCH  14  18
ATOM     18  O   UNL d   1      29.870  15.466 -23.105  0.00  0.00    -0.326 OA
ATOM     19  C   UNL d   1      29.831  15.520 -22.289  0.00  0.00     0.181 C 
ENDBRANCH  14  18
BRANCH  15  20
ATOM     20  O   UNL d   1      28.638  16.407 -23.615  0.00  0.00    -0.324 OA
ATOM     21  C   UNL d   1      28.038  16.508 -24.176  0.00  0.00     0.182 C 
ENDBRANCH  15  20
BRANCH  16  22
ATOM     22  O   UNL d   1      28.941  17.753 -24.527  0.00  0.00    -0.326 OA
ATOM     23  C   UNL d   1      29.074  18.545 -24.701  0.00  0.00     0.181 C 
ENDBRANCH  16  22
ENDBRANCH   1  12
BRANCH   1  24
ATOM     24  C   UNL d   1      32.068  16.886 -25.094  0.00  0.00     0.148 C 
BRANCH  24  25
ATOM     25  N   UNL d   1      32.427  16.140 -25.037  0.00  0.00    -0.112 N 
ATOM     26  O   UNL d   1      31.952  15.456 -25.080  0.00  0.00    -0.532 OA
ATOM     27  O   UNL d   1      33.240  16.081 -24.941  0.00  0.00    -0.532 OA
ENDBRANCH  24  25
ENDBRANCH   1  24
TORSDOF 7
ENDMDL
