MODEL 1
REMARK VINA RESULT:      -5.2      0.000      0.000
REMARK  12 active torsions:
REMARK  status: ('A' for Active; 'I' for Inactive)
REMARK    1  A    between atoms: C_8  and  C_1 
REMARK    2  A    between atoms: C_9  and  C_2 
REMARK    3  A    between atoms: C_7  and  C_3 
REMARK    4  A    between atoms: S_10  and  C_4 
REMARK    5  A    between atoms: O_23  and  C_8 
REMARK    6  A    between atoms: C_20  and  S_10 
REMARK    7  A    between atoms: O_25  and  C_13 
REMARK    8  A    between atoms: C_14  and  C_20 
REMARK    9  A    between atoms: O_26  and  C_14 
REMARK   10  A    between atoms: C_21  and  C_28 
REMARK   11  A    between atoms: C_28  and  O_23 
REMARK   12  A    between atoms: C_29  and  O_26 
ROOT
ATOM      1  C   UNL d   1     -47.358  13.764  22.801  0.00  0.00     0.081 A 
ATOM      2  C   UNL d   1     -46.729  12.491  22.612  0.00  0.00     0.045 A 
ATOM      3  C   UNL d   1     -47.400  12.933  22.754  0.00  0.00     0.010 A 
ATOM      4  C   UNL d   1     -46.013  12.866  22.515  0.00  0.00     0.112 A 
ATOM      5  C   UNL d   1     -46.658  14.131  22.707  0.00  0.00     0.087 A 
ATOM      6  N   UNL d   1     -45.965  13.686  22.561  0.00  0.00    -0.239 NA
ATOM      7  C   UNL d   1     -46.655  14.975  22.761  0.00  0.00     0.021 C 
ENDROOT
BRANCH   3   8
ATOM      8  C   UNL d   1     -48.127  12.552  22.852  0.00  0.00     0.003 A 
ATOM      9  C   UNL d   1     -48.580  12.333  22.186  0.00  0.00     0.028 A 
ATOM     10  C   UNL d   1     -49.306  11.952  22.283  0.00  0.00     0.133 A 
ATOM     11  C   UNL d   1     -49.572  11.794  23.047  0.00  0.00     0.218 A 
ATOM     12  C   UNL d   1     -49.125  12.010  23.698  0.00  0.00     0.044 A 
ATOM     13  O   UNL d   1     -50.284  11.420  23.175  0.00  0.00    -0.284 OA
ATOM     14  C   UNL d   1     -48.399  12.391  23.600  0.00  0.00     0.003 A 
BRANCH  10  15
ATOM     15  O   UNL d   1     -49.771  11.727  21.617  0.00  0.00    -0.325 OA
ATOM     16  C   UNL d   1     -50.238  12.285  21.229  0.00  0.00     0.181 C 
ENDBRANCH  10  15
ENDBRANCH   3   8
BRANCH   2  17
ATOM     17  C   UNL d   1     -46.777  11.656  22.566  0.00  0.00     0.124 C 
ATOM     18  N   UNL d   1     -46.366  11.188  23.124  0.00  0.00    -0.146 N 
ENDBRANCH   2  17
BRANCH   1  19
ATOM     19  C   UNL d   1     -48.038  14.250  22.948  0.00  0.00     0.302 C 
ATOM     20  O   UNL d   1     -48.366  14.290  23.698  0.00  0.00    -0.259 OA
BRANCH  19  21
ATOM     21  O   UNL d   1     -48.355  14.674  22.331  0.00  0.00    -0.271 OA
BRANCH  21  22
ATOM     22  C   UNL d   1     -48.819  15.343  22.471  0.00  0.00     0.126 C 
BRANCH  22  23
ATOM     23  C   UNL d   1     -49.537  15.418  22.088  0.00  0.00     0.027 C 
ATOM     24  C   UNL d   1     -50.177  15.731  22.452  0.00  0.00     0.002 C 
ENDBRANCH  22  23
ENDBRANCH  21  22
ENDBRANCH  19  21
ENDBRANCH   1  19
BRANCH   4  25
ATOM     25  S   UNL d   1     -45.315  12.463  22.371  0.00  0.00    -0.062 SA
BRANCH  25  26
ATOM     26  C   UNL d   1     -44.658  12.880  22.143  0.00  0.00     0.105 C 
BRANCH  26  27
ATOM     27  C   UNL d   1     -43.967  12.466  21.954  0.00  0.00     0.307 C 
ATOM     28  O   UNL d   1     -43.694  11.872  22.450  0.00  0.00    -0.258 OA
BRANCH  27  29
ATOM     29  O   UNL d   1     -43.562  12.658  21.271  0.00  0.00    -0.271 OA
BRANCH  29  30
ATOM     30  C   UNL d   1     -42.896  13.127  21.328  0.00  0.00     0.126 C 
ATOM     31  C   UNL d   1     -42.420  13.239  20.678  0.00  0.00     0.029 C 
ENDBRANCH  29  30
ENDBRANCH  27  29
ENDBRANCH  26  27
ENDBRANCH  25  26
ENDBRANCH   4  25
TORSDOF 12
ENDMDL
MODEL 2
REMARK VINA RESULT:      -3.3      1.077      1.363
REMARK  12 active torsions:
REMARK  status: ('A' for Active; 'I' for Inactive)
REMARK    1  A    between atoms: C_8  and  C_1 
REMARK    2  A    between atoms: C_9  and  C_2 
REMARK    3  A    between atoms: C_7  and  C_3 
REMARK    4  A    between atoms: S_10  and  C_4 
REMARK    5  A    between atoms: O_23  and  C_8 
REMARK    6  A    between atoms: C_20  and  S_10 
REMARK    7  A    between atoms: O_25  and  C_13 
REMARK    8  A    between atoms: C_14  and  C_20 
REMARK    9  A    between atoms: O_26  and  C_14 
REMARK   10  A    between atoms: C_21  and  C_28 
REMARK   11  A    between atoms: C_28  and  O_23 
REMARK   12  A    between atoms: C_29  and  O_26 
ROOT
ATOM      1  C   UNL d   1     -47.576  13.535  23.012  0.00  0.00     0.081 A 
ATOM      2  C   UNL d   1     -47.213  12.149  22.996  0.00  0.00     0.045 A 
ATOM      3  C   UNL d   1     -47.788  12.729  23.001  0.00  0.00     0.010 A 
ATOM      4  C   UNL d   1     -46.427  12.362  23.002  0.00  0.00     0.112 A 
ATOM      5  C   UNL d   1     -46.808  13.743  23.018  0.00  0.00     0.087 A 
ATOM      6  N   UNL d   1     -46.213  13.156  23.012  0.00  0.00    -0.239 NA
ATOM      7  C   UNL d   1     -46.633  14.571  23.029  0.00  0.00     0.021 C 
ENDROOT
BRANCH   3   8
ATOM      8  C   UNL d   1     -48.585  12.513  22.995  0.00  0.00     0.003 A 
ATOM      9  C   UNL d   1     -48.987  12.407  22.270  0.00  0.00     0.028 A 
ATOM     10  C   UNL d   1     -49.784  12.191  22.265  0.00  0.00     0.133 A 
ATOM     11  C   UNL d   1     -50.172  12.083  22.984  0.00  0.00     0.218 A 
ATOM     12  C   UNL d   1     -49.774  12.188  23.692  0.00  0.00     0.044 A 
ATOM     13  O   UNL d   1     -50.957  11.870  23.009  0.00  0.00    -0.284 OA
ATOM     14  C   UNL d   1     -48.978  12.403  23.698  0.00  0.00     0.003 A 
BRANCH  10  15
ATOM     15  O   UNL d   1     -50.198  12.082  21.539  0.00  0.00    -0.325 OA
ATOM     16  C   UNL d   1     -50.321  12.720  21.030  0.00  0.00     0.181 C 
ENDBRANCH  10  15
ENDBRANCH   3   8
BRANCH   2  17
ATOM     17  C   UNL d   1     -47.430  11.341  22.985  0.00  0.00     0.124 C 
ATOM     18  N   UNL d   1     -47.302  10.870  23.664  0.00  0.00    -0.146 N 
ENDBRANCH   2  17
BRANCH   1  19
ATOM     19  C   UNL d   1     -48.151  14.160  23.018  0.00  0.00     0.302 C 
ATOM     20  O   UNL d   1     -48.592  14.313  23.692  0.00  0.00    -0.259 OA
BRANCH  19  21
ATOM     21  O   UNL d   1     -48.254  14.601  22.344  0.00  0.00    -0.271 OA
BRANCH  21  22
ATOM     22  C   UNL d   1     -48.510  15.386  22.386  0.00  0.00     0.126 C 
BRANCH  22  23
ATOM     23  C   UNL d   1     -49.163  15.615  21.950  0.00  0.00     0.027 C 
ATOM     24  C   UNL d   1     -49.149  15.633  21.150  0.00  0.00     0.002 C 
ENDBRANCH  22  23
ENDBRANCH  21  22
ENDBRANCH  19  21
ENDBRANCH   1  19
BRANCH   4  25
ATOM     25  S   UNL d   1     -45.818  11.815  22.997  0.00  0.00    -0.062 SA
BRANCH  25  26
ATOM     26  C   UNL d   1     -45.076  12.048  23.226  0.00  0.00     0.105 C 
BRANCH  26  27
ATOM     27  C   UNL d   1     -44.424  11.591  23.000  0.00  0.00     0.307 C 
ATOM     28  O   UNL d   1     -44.079  11.704  22.265  0.00  0.00    -0.258 OA
BRANCH  27  29
ATOM     29  O   UNL d   1     -44.133  11.030  23.516  0.00  0.00    -0.271 OA
BRANCH  29  30
ATOM     30  C   UNL d   1     -43.655  10.437  23.222  0.00  0.00     0.126 C 
ATOM     31  C   UNL d   1     -43.442   9.812  23.698  0.00  0.00     0.029 C 
ENDBRANCH  29  30
ENDBRANCH  27  29
ENDBRANCH  26  27
ENDBRANCH  25  26
ENDBRANCH   4  25
TORSDOF 12
ENDMDL
