MODEL 1
REMARK VINA RESULT:      -3.8      0.000      0.000
REMARK  4 active torsions:
REMARK  status: ('A' for Active; 'I' for Inactive)
REMARK    1  A    between atoms: C_7  and  C_1 
REMARK    2  A    between atoms: N_8  and  C_7 
REMARK    3  A    between atoms: C_11  and  N_8 
REMARK    4  A    between atoms: O_13  and  C_12 
ROOT
ATOM      1  C   UNL d   1      57.915   0.657  31.154  0.00  0.00     0.145 A 
ATOM      2  C   UNL d   1      57.796   0.638  30.342  0.00  0.00     0.305 A 
ATOM      3  C   UNL d   1      58.687   0.659  31.460  0.00  0.00     0.305 A 
ATOM      4  O   UNL d   1      59.329   0.641  30.950  0.00  0.00    -0.269 OA
ATOM      5  O   UNL d   1      58.437   0.621  29.838  0.00  0.00    -0.269 OA
ATOM      6  C   UNL d   1      59.208   0.622  30.144  0.00  0.00     0.242 A 
ATOM      7  O   UNL d   1      58.814   0.678  32.298  0.00  0.00    -0.259 OA
ATOM      8  O   UNL d   1      57.020   0.636  30.035  0.00  0.00    -0.259 OA
ATOM      9  C   UNL d   1      60.019   0.619  30.245  0.00  0.00     0.035 A 
ATOM     10  C   UNL d   1      58.914   0.606  29.374  0.00  0.00     0.035 A 
ATOM     11  C   UNL d   1      59.422   0.586  28.742  0.00  0.00     0.001 A 
ATOM     12  C   UNL d   1      60.529   0.599  29.591  0.00  0.00     0.001 A 
ATOM     13  C   UNL d   1      60.210   0.583  28.835  0.00  0.00    -0.000 A 
ENDROOT
BRANCH   1  14
ATOM     14  C   UNL d   1      57.243   0.674  31.646  0.00  0.00     0.110 C 
BRANCH  14  15
ATOM     15  N   UNL d   1      56.925  -0.047  31.914  0.00  0.00    -0.242 NA
BRANCH  15  16
ATOM     16  C   UNL d   1      56.331  -0.035  32.495  0.00  0.00     0.104 A 
ATOM     17  C   UNL d   1      56.049  -0.747  32.809  0.00  0.00     0.112 A 
ATOM     18  C   UNL d   1      55.458  -0.739  33.387  0.00  0.00     0.026 A 
ATOM     19  C   UNL d   1      55.135  -0.021  33.665  0.00  0.00     0.002 A 
ATOM     20  C   UNL d   1      55.439   0.682  33.330  0.00  0.00     0.002 A 
ATOM     21  C   UNL d   1      56.025   0.678  32.757  0.00  0.00     0.021 A 
BRANCH  17  22
ATOM     22  O   UNL d   1      56.362  -1.474  32.541  0.00  0.00    -0.327 OA
ATOM     23  C   UNL d   1      55.915  -2.144  32.584  0.00  0.00     0.181 C 
ENDBRANCH  17  22
ENDBRANCH  15  16
ENDBRANCH  14  15
ENDBRANCH   1  14
TORSDOF 4
ENDMDL
MODEL 2
REMARK VINA RESULT:      -2.3      1.537      1.956
REMARK  4 active torsions:
REMARK  status: ('A' for Active; 'I' for Inactive)
REMARK    1  A    between atoms: C_7  and  C_1 
REMARK    2  A    between atoms: N_8  and  C_7 
REMARK    3  A    between atoms: C_11  and  N_8 
REMARK    4  A    between atoms: O_13  and  C_12 
ROOT
ATOM      1  C   UNL d   1      57.074  -0.665  31.185  0.00  0.00     0.145 A 
ATOM      2  C   UNL d   1      57.355  -0.107  30.652  0.00  0.00     0.305 A 
ATOM      3  C   UNL d   1      57.342  -1.449  31.145  0.00  0.00     0.305 A 
ATOM      4  O   UNL d   1      57.887  -1.666  30.572  0.00  0.00    -0.269 OA
ATOM      5  O   UNL d   1      57.897  -0.326  30.084  0.00  0.00    -0.269 OA
ATOM      6  C   UNL d   1      58.165  -1.111  30.043  0.00  0.00     0.242 A 
ATOM      7  O   UNL d   1      57.054  -2.028  31.694  0.00  0.00    -0.259 OA
ATOM      8  O   UNL d   1      57.085   0.682  30.693  0.00  0.00    -0.259 OA
ATOM      9  C   UNL d   1      58.539  -1.810  29.845  0.00  0.00     0.035 A 
ATOM     10  C   UNL d   1      58.338  -0.439  29.597  0.00  0.00     0.035 A 
ATOM     11  C   UNL d   1      58.865  -0.480  28.984  0.00  0.00     0.001 A 
ATOM     12  C   UNL d   1      59.077  -1.840  29.214  0.00  0.00     0.001 A 
ATOM     13  C   UNL d   1      59.231  -1.157  28.787  0.00  0.00    -0.000 A 
ENDROOT
BRANCH   1  14
ATOM     14  C   UNL d   1      56.521  -0.413  31.756  0.00  0.00     0.110 C 
BRANCH  14  15
ATOM     15  N   UNL d   1      56.782   0.068  32.382  0.00  0.00    -0.242 NA
BRANCH  15  16
ATOM     16  C   UNL d   1      56.249   0.270  32.986  0.00  0.00     0.104 A 
ATOM     17  C   UNL d   1      56.532   0.433  33.746  0.00  0.00     0.112 A 
ATOM     18  C   UNL d   1      56.004   0.635  34.350  0.00  0.00     0.026 A 
ATOM     19  C   UNL d   1      55.182   0.679  34.209  0.00  0.00     0.002 A 
ATOM     20  C   UNL d   1      54.926   0.509  33.431  0.00  0.00     0.002 A 
ATOM     21  C   UNL d   1      55.446   0.309  32.831  0.00  0.00     0.021 A 
BRANCH  17  22
ATOM     22  O   UNL d   1      57.351   0.394  33.904  0.00  0.00    -0.327 OA
ATOM     23  C   UNL d   1      57.641   0.681  34.600  0.00  0.00     0.181 C 
ENDBRANCH  17  22
ENDBRANCH  15  16
ENDBRANCH  14  15
ENDBRANCH   1  14
TORSDOF 4
ENDMDL
MODEL 3
REMARK VINA RESULT:      -2.3      1.413      4.356
REMARK  4 active torsions:
REMARK  status: ('A' for Active; 'I' for Inactive)
REMARK    1  A    between atoms: C_7  and  C_1 
REMARK    2  A    between atoms: N_8  and  C_7 
REMARK    3  A    between atoms: C_11  and  N_8 
REMARK    4  A    between atoms: O_13  and  C_12 
ROOT
ATOM      1  C   UNL d   1      56.823   0.546  32.191  0.00  0.00     0.145 A 
ATOM      2  C   UNL d   1      56.008   0.475  32.258  0.00  0.00     0.305 A 
ATOM      3  C   UNL d   1      57.291   0.599  32.874  0.00  0.00     0.305 A 
ATOM      4  O   UNL d   1      56.939   0.580  33.615  0.00  0.00    -0.269 OA
ATOM      5  O   UNL d   1      55.661   0.455  32.996  0.00  0.00    -0.269 OA
ATOM      6  C   UNL d   1      56.130   0.508  33.679  0.00  0.00     0.242 A 
ATOM      7  O   UNL d   1      58.134   0.674  32.809  0.00  0.00    -0.259 OA
ATOM      8  O   UNL d   1      55.536   0.421  31.571  0.00  0.00    -0.259 OA
ATOM      9  C   UNL d   1      56.408   0.546  34.446  0.00  0.00     0.035 A 
ATOM     10  C   UNL d   1      55.316   0.434  33.566  0.00  0.00     0.035 A 
ATOM     11  C   UNL d   1      54.816   0.399  34.202  0.00  0.00     0.001 A 
ATOM     12  C   UNL d   1      55.887   0.509  35.090  0.00  0.00     0.001 A 
ATOM     13  C   UNL d   1      55.082   0.435  34.949  0.00  0.00    -0.000 A 
ENDROOT
BRANCH   1  14
ATOM     14  C   UNL d   1      57.150   0.563  31.426  0.00  0.00     0.110 C 
BRANCH  14  15
ATOM     15  N   UNL d   1      57.524  -0.121  31.134  0.00  0.00    -0.242 NA
BRANCH  15  16
ATOM     16  C   UNL d   1      57.943  -0.079  30.419  0.00  0.00     0.104 A 
ATOM     17  C   UNL d   1      58.152  -0.775  30.024  0.00  0.00     0.112 A 
ATOM     18  C   UNL d   1      58.570  -0.738  29.311  0.00  0.00     0.026 A 
ATOM     19  C   UNL d   1      58.789  -0.005  28.977  0.00  0.00     0.002 A 
ATOM     20  C   UNL d   1      58.566   0.682  29.399  0.00  0.00     0.002 A 
ATOM     21  C   UNL d   1      58.152   0.648  30.105  0.00  0.00     0.021 A 
BRANCH  17  22
ATOM     22  O   UNL d   1      57.939  -1.517  30.345  0.00  0.00    -0.327 OA
ATOM     23  C   UNL d   1      58.109  -2.194  29.940  0.00  0.00     0.181 C 
ENDBRANCH  17  22
ENDBRANCH  15  16
ENDBRANCH  14  15
ENDBRANCH   1  14
TORSDOF 4
ENDMDL
