MODEL 1
REMARK VINA RESULT:      -5.5      0.000      0.000
REMARK  1 active torsions:
REMARK  status: ('A' for Active; 'I' for Inactive)
REMARK    1  A    between atoms: C_2  and  C_1 
ROOT
ATOM      1  C   UNL d   1      56.555  -0.089  32.182  0.00  0.00     0.104 A 
ATOM      2  C   UNL d   1      56.478  -0.925  32.156  0.00  0.00     0.202 A 
ATOM      3  C   UNL d   1      56.088   0.348  32.743  0.00  0.00     0.021 A 
ATOM      4  C   UNL d   1      55.954  -1.298  32.673  0.00  0.00     0.043 A 
ATOM      5  C   UNL d   1      55.577  -0.064  33.242  0.00  0.00     0.058 A 
ATOM      6  C   UNL d   1      55.505  -0.884  33.212  0.00  0.00     0.015 A 
ATOM      7  O   UNL d   1      56.937  -1.367  31.603  0.00  0.00    -0.286 OA
ATOM      8 CL   UNL d   1      55.118   0.377  33.794  0.00  0.00    -0.082 Cl
ENDROOT
BRANCH   1   9
ATOM      9  C   UNL d   1      57.075   0.299  31.671  0.00  0.00     0.214 C 
ATOM     10  O   UNL d   1      56.848   0.516  30.898  0.00  0.00    -0.644 OA
ATOM     11  O   UNL d   1      57.860   0.494  31.906  0.00  0.00    -0.644 OA
ENDBRANCH   1   9
TORSDOF 1
ENDMDL
MODEL 2
REMARK VINA RESULT:      -4.8      1.877      2.209
REMARK  1 active torsions:
REMARK  status: ('A' for Active; 'I' for Inactive)
REMARK    1  A    between atoms: C_2  and  C_1 
ROOT
ATOM      1  C   UNL d   1      55.903  -0.069  32.968  0.00  0.00     0.104 A 
ATOM      2  C   UNL d   1      55.971  -0.895  32.837  0.00  0.00     0.202 A 
ATOM      3  C   UNL d   1      56.322   0.463  32.452  0.00  0.00     0.021 A 
ATOM      4  C   UNL d   1      56.438  -1.169  32.216  0.00  0.00     0.043 A 
ATOM      5  C   UNL d   1      56.779   0.147  31.842  0.00  0.00     0.058 A 
ATOM      6  C   UNL d   1      56.841  -0.665  31.719  0.00  0.00     0.015 A 
ATOM      7  O   UNL d   1      55.558  -1.430  33.344  0.00  0.00    -0.286 OA
ATOM      8 CL   UNL d   1      57.191   0.681  31.336  0.00  0.00    -0.082 Cl
ENDROOT
BRANCH   1   9
ATOM      9  C   UNL d   1      55.438   0.221  33.586  0.00  0.00     0.214 C 
ATOM     10  O   UNL d   1      54.618   0.344  33.495  0.00  0.00    -0.644 OA
ATOM     11  O   UNL d   1      55.770   0.406  34.338  0.00  0.00    -0.644 OA
ENDBRANCH   1   9
TORSDOF 1
ENDMDL
MODEL 3
REMARK VINA RESULT:      -4.6      0.840      1.566
REMARK  1 active torsions:
REMARK  status: ('A' for Active; 'I' for Inactive)
REMARK    1  A    between atoms: C_2  and  C_1 
ROOT
ATOM      1  C   UNL d   1      56.310  -0.263  32.787  0.00  0.00     0.104 A 
ATOM      2  C   UNL d   1      56.874   0.223  33.174  0.00  0.00     0.202 A 
ATOM      3  C   UNL d   1      55.509  -0.268  33.075  0.00  0.00     0.021 A 
ATOM      4  C   UNL d   1      56.640   0.682  33.817  0.00  0.00     0.043 A 
ATOM      5  C   UNL d   1      55.316   0.206  33.722  0.00  0.00     0.058 A 
ATOM      6  C   UNL d   1      55.874   0.682  34.097  0.00  0.00     0.015 A 
ATOM      7  O   UNL d   1      57.671   0.234  32.895  0.00  0.00    -0.286 OA
ATOM      8 CL   UNL d   1      54.520   0.195  34.000  0.00  0.00    -0.082 Cl
ENDROOT
BRANCH   1   9
ATOM      9  C   UNL d   1      56.530  -0.728  32.141  0.00  0.00     0.214 C 
ATOM     10  O   UNL d   1      56.674  -0.392  31.391  0.00  0.00    -0.644 OA
ATOM     11  O   UNL d   1      56.619  -1.563  32.209  0.00  0.00    -0.644 OA
ENDBRANCH   1   9
TORSDOF 1
ENDMDL
MODEL 4
REMARK VINA RESULT:      -4.4      1.817      2.556
REMARK  1 active torsions:
REMARK  status: ('A' for Active; 'I' for Inactive)
REMARK    1  A    between atoms: C_2  and  C_1 
ROOT
ATOM      1  C   UNL d   1      56.550  -0.405  32.632  0.00  0.00     0.104 A 
ATOM      2  C   UNL d   1      56.924   0.182  33.101  0.00  0.00     0.202 A 
ATOM      3  C   UNL d   1      56.762  -0.467  31.809  0.00  0.00     0.021 A 
ATOM      4  C   UNL d   1      57.484   0.680  32.756  0.00  0.00     0.043 A 
ATOM      5  C   UNL d   1      57.327   0.050  31.504  0.00  0.00     0.058 A 
ATOM      6  C   UNL d   1      57.691   0.624  31.970  0.00  0.00     0.015 A 
ATOM      7  O   UNL d   1      56.719   0.252  33.917  0.00  0.00    -0.286 OA
ATOM      8 CL   UNL d   1      57.531  -0.019  30.689  0.00  0.00    -0.082 Cl
ENDROOT
BRANCH   1   9
ATOM      9  C   UNL d   1      55.987  -0.910  32.962  0.00  0.00     0.214 C 
ATOM     10  O   UNL d   1      55.219  -0.644  33.154  0.00  0.00    -0.644 OA
ATOM     11  O   UNL d   1      56.161  -1.718  33.123  0.00  0.00    -0.644 OA
ENDBRANCH   1   9
TORSDOF 1
ENDMDL
MODEL 5
REMARK VINA RESULT:      -3.8      1.002      1.526
REMARK  1 active torsions:
REMARK  status: ('A' for Active; 'I' for Inactive)
REMARK    1  A    between atoms: C_2  and  C_1 
ROOT
ATOM      1  C   UNL d   1      57.005  -0.472  31.806  0.00  0.00     0.104 A 
ATOM      2  C   UNL d   1      57.268   0.031  32.424  0.00  0.00     0.202 A 
ATOM      3  C   UNL d   1      56.395  -1.042  31.974  0.00  0.00     0.021 A 
ATOM      4  C   UNL d   1      56.930  -0.038  33.173  0.00  0.00     0.043 A 
ATOM      5  C   UNL d   1      56.083  -1.078  32.737  0.00  0.00     0.058 A 
ATOM      6  C   UNL d   1      56.346  -0.581  33.339  0.00  0.00     0.015 A 
ATOM      7  O   UNL d   1      57.873   0.599  32.267  0.00  0.00    -0.286 OA
ATOM      8 CL   UNL d   1      55.479  -1.645  32.893  0.00  0.00    -0.082 Cl
ENDROOT
BRANCH   1   9
ATOM      9  C   UNL d   1      57.334  -0.415  31.051  0.00  0.00     0.214 C 
ATOM     10  O   UNL d   1      57.394   0.317  30.655  0.00  0.00    -0.644 OA
ATOM     11  O   UNL d   1      57.624  -1.093  30.644  0.00  0.00    -0.644 OA
ENDBRANCH   1   9
TORSDOF 1
ENDMDL
MODEL 6
REMARK VINA RESULT:      -3.1      1.886      2.461
REMARK  1 active torsions:
REMARK  status: ('A' for Active; 'I' for Inactive)
REMARK    1  A    between atoms: C_2  and  C_1 
ROOT
ATOM      1  C   UNL d   1      57.062   0.003  31.790  0.00  0.00     0.104 A 
ATOM      2  C   UNL d   1      57.006  -0.812  31.600  0.00  0.00     0.202 A 
ATOM      3  C   UNL d   1      57.537   0.507  31.294  0.00  0.00     0.021 A 
ATOM      4  C   UNL d   1      57.410  -1.103  30.943  0.00  0.00     0.043 A 
ATOM      5  C   UNL d   1      57.925   0.175  30.646  0.00  0.00     0.058 A 
ATOM      6  C   UNL d   1      57.866  -0.626  30.465  0.00  0.00     0.015 A 
ATOM      7  O   UNL d   1      56.537  -1.319  32.085  0.00  0.00    -0.286 OA
ATOM      8 CL   UNL d   1      58.393   0.682  30.161  0.00  0.00    -0.082 Cl
ENDROOT
BRANCH   1   9
ATOM      9  C   UNL d   1      56.663   0.310  32.445  0.00  0.00     0.214 C 
ATOM     10  O   UNL d   1      55.870   0.567  32.392  0.00  0.00    -0.644 OA
ATOM     11  O   UNL d   1      57.036   0.377  33.196  0.00  0.00    -0.644 OA
ENDBRANCH   1   9
TORSDOF 1
ENDMDL
