MODEL 1
REMARK VINA RESULT:      48.8      0.000      0.000
REMARK  9 active torsions:
REMARK  status: ('A' for Active; 'I' for Inactive)
REMARK    1  A    between atoms: C_12  and  N_1 
REMARK    2  A    between atoms: S_7  and  C_2 
REMARK    3  A    between atoms: C_15  and  S_7 
REMARK    4  A    between atoms: C_9  and  C_15 
REMARK    5  A    between atoms: O_14  and  C_9 
REMARK       I    between atoms: C_10  and  N_16 
REMARK    6  A    between atoms: C_19  and  C_12 
REMARK    7  A    between atoms: C_18  and  O_14 
REMARK    8  A    between atoms: N_16  and  C_19 
REMARK    9  A    between atoms: C_20  and  C_18 
ROOT
ATOM      1  N   UNL d   1      13.487  13.228  -3.409  0.00  0.00    -0.251 N 
ATOM      2  C   UNL d   1      13.386  13.941  -3.812  0.00  0.00     0.182 A 
ATOM      3  C   UNL d   1      13.394  12.503  -3.807  0.00  0.00     0.268 A 
ATOM      4  N   UNL d   1      13.189  13.939  -4.619  0.00  0.00    -0.222 NA
ATOM      5  C   UNL d   1      13.197  12.505  -4.614  0.00  0.00     0.074 A 
ATOM      6  C   UNL d   1      13.095  13.218  -5.017  0.00  0.00     0.088 A 
ATOM      7  O   UNL d   1      13.496  11.783  -3.399  0.00  0.00    -0.267 OA
ATOM      8  C   UNL d   1      13.103  11.780  -5.013  0.00  0.00     0.006 A 
ATOM      9  C   UNL d   1      12.898  13.215  -5.825  0.00  0.00     0.019 A 
ATOM     10  C   UNL d   1      12.906  11.781  -5.822  0.00  0.00     0.000 A 
ATOM     11  C   UNL d   1      12.804  12.493  -6.225  0.00  0.00     0.002 A 
ENDROOT
BRANCH   2  12
ATOM     12  S   UNL d   1      13.480  14.675  -3.412  0.00  0.00    -0.044 SA
BRANCH  12  13
ATOM     13  C   UNL d   1      14.200  15.103  -3.471  0.00  0.00     0.107 C 
BRANCH  13  14
ATOM     14  C   UNL d   1      14.202  15.922  -3.367  0.00  0.00     0.307 C 
ATOM     15  O   UNL d   1      14.006  16.419  -3.994  0.00  0.00    -0.258 OA
BRANCH  14  16
ATOM     16  O   UNL d   1      14.403  16.240  -2.625  0.00  0.00    -0.271 OA
BRANCH  16  17
ATOM     17  C   UNL d   1      15.164  16.127  -2.328  0.00  0.00     0.126 C 
BRANCH  17  18
ATOM     18  C   UNL d   1      15.338  16.356  -1.559  0.00  0.00     0.025 A 
ATOM     19  C   UNL d   1      15.518  17.143  -1.391  0.00  0.00     0.002 A 
ATOM     20  C   UNL d   1      15.692  17.372  -0.624  0.00  0.00     0.000 A 
ATOM     21  C   UNL d   1      15.688  16.817  -0.014  0.00  0.00     0.000 A 
ATOM     22  C   UNL d   1      15.507  16.022  -0.182  0.00  0.00     0.000 A 
ATOM     23  C   UNL d   1      15.332  15.797  -0.956  0.00  0.00     0.002 A 
ENDBRANCH  17  18
ENDBRANCH  16  17
ENDBRANCH  14  16
ENDBRANCH  13  14
ENDBRANCH  12  13
ENDBRANCH   2  12
BRANCH   1  24
ATOM     24  C   UNL d   1      13.686  13.230  -2.595  0.00  0.00     0.106 C 
BRANCH  24  25
ATOM     25  C   UNL d   1      13.947  12.545  -2.220  0.00  0.00     0.121 C 
BRANCH  25  26
ATOM     26  N   UNL d   1      13.975  12.488  -1.390  0.00  0.00    -0.205 NA
ATOM     27  C   UNL d   1      14.612  12.111  -1.015  0.00  0.00     0.280 C 
ATOM     28  O   UNL d   1      15.224  11.789  -1.466  0.00  0.00    -0.265 OA
ATOM     29  C   UNL d   1      14.634  12.059  -0.194  0.00  0.00     0.068 C 
ENDBRANCH  25  26
ENDBRANCH  24  25
ENDBRANCH   1  24
TORSDOF 9
ENDMDL
MODEL 2
REMARK VINA RESULT:      51.7      1.969      3.973
REMARK  9 active torsions:
REMARK  status: ('A' for Active; 'I' for Inactive)
REMARK    1  A    between atoms: C_12  and  N_1 
REMARK    2  A    between atoms: S_7  and  C_2 
REMARK    3  A    between atoms: C_15  and  S_7 
REMARK    4  A    between atoms: C_9  and  C_15 
REMARK    5  A    between atoms: O_14  and  C_9 
REMARK       I    between atoms: C_10  and  N_16 
REMARK    6  A    between atoms: C_19  and  C_12 
REMARK    7  A    between atoms: C_18  and  O_14 
REMARK    8  A    between atoms: N_16  and  C_19 
REMARK    9  A    between atoms: C_20  and  C_18 
ROOT
ATOM      1  N   UNL d   1      13.988  13.674  -2.659  0.00  0.00    -0.251 N 
ATOM      2  C   UNL d   1      14.277  14.446  -2.633  0.00  0.00     0.182 A 
ATOM      3  C   UNL d   1      14.112  13.157  -2.019  0.00  0.00     0.268 A 
ATOM      4  N   UNL d   1      14.696  14.712  -1.967  0.00  0.00    -0.222 NA
ATOM      5  C   UNL d   1      14.531  13.426  -1.354  0.00  0.00     0.074 A 
ATOM      6  C   UNL d   1      14.821  14.198  -1.328  0.00  0.00     0.088 A 
ATOM      7  O   UNL d   1      13.820  12.376  -2.046  0.00  0.00    -0.267 OA
ATOM      8  C   UNL d   1      14.657  12.908  -0.713  0.00  0.00     0.006 A 
ATOM      9  C   UNL d   1      15.240  14.464  -0.660  0.00  0.00     0.019 A 
ATOM     10  C   UNL d   1      15.076  13.177  -0.047  0.00  0.00     0.000 A 
ATOM     11  C   UNL d   1      15.365  13.949  -0.020  0.00  0.00     0.002 A 
ENDROOT
BRANCH   2  12
ATOM     12  S   UNL d   1      14.153  14.971  -3.278  0.00  0.00    -0.044 SA
BRANCH  12  13
ATOM     13  C   UNL d   1      14.482  15.744  -3.269  0.00  0.00     0.107 C 
BRANCH  13  14
ATOM     14  C   UNL d   1      14.770  16.077  -3.967  0.00  0.00     0.307 C 
ATOM     15  O   UNL d   1      15.237  15.629  -4.477  0.00  0.00    -0.258 OA
BRANCH  14  16
ATOM     16  O   UNL d   1      14.585  16.867  -4.151  0.00  0.00    -0.271 OA
BRANCH  16  17
ATOM     17  C   UNL d   1      15.070  17.285  -4.671  0.00  0.00     0.126 C 
BRANCH  17  18
ATOM     18  C   UNL d   1      14.747  17.879  -5.138  0.00  0.00     0.025 A 
ATOM     19  C   UNL d   1      14.927  18.670  -4.986  0.00  0.00     0.002 A 
ATOM     20  C   UNL d   1      14.606  19.262  -5.451  0.00  0.00     0.000 A 
ATOM     21  C   UNL d   1      14.100  19.073  -6.075  0.00  0.00     0.000 A 
ATOM     22  C   UNL d   1      13.918  18.275  -6.230  0.00  0.00     0.000 A 
ATOM     23  C   UNL d   1      14.245  17.682  -5.758  0.00  0.00     0.002 A 
ENDBRANCH  17  18
ENDBRANCH  16  17
ENDBRANCH  14  16
ENDBRANCH  13  14
ENDBRANCH  12  13
ENDBRANCH   2  12
BRANCH   1  24
ATOM     24  C   UNL d   1      13.566  13.406  -3.331  0.00  0.00     0.106 C 
BRANCH  24  25
ATOM     25  C   UNL d   1      13.692  12.652  -3.639  0.00  0.00     0.121 C 
BRANCH  25  26
ATOM     26  N   UNL d   1      13.137  12.291  -4.143  0.00  0.00    -0.205 NA
ATOM     27  C   UNL d   1      13.322  12.149  -4.939  0.00  0.00     0.280 C 
ATOM     28  O   UNL d   1      14.061  12.365  -5.236  0.00  0.00    -0.265 OA
ATOM     29  C   UNL d   1      12.769  11.792  -5.434  0.00  0.00     0.068 C 
ENDBRANCH  25  26
ENDBRANCH  24  25
ENDBRANCH   1  24
TORSDOF 9
ENDMDL
