MODEL 1
REMARK VINA RESULT:      -0.8      0.000      0.000
REMARK  7 active torsions:
REMARK  status: ('A' for Active; 'I' for Inactive)
REMARK    1  A    between atoms: N_2  and  S_1 
REMARK    2  A    between atoms: C_3  and  S_1 
REMARK       I    between atoms: C_4  and  N_9 
REMARK    3  A    between atoms: C_10  and  C_4 
REMARK    4  A    between atoms: C_12  and  C_6 
REMARK    5  A    between atoms: N_9  and  C_12 
REMARK    6  A    between atoms: O_22  and  C_19 
REMARK    7  A    between atoms: C_25  and  O_22 
ROOT
ATOM      1  N   UNL d   1      32.992  21.151 -20.971  0.00  0.00    -0.229 N 
ATOM      2  C   UNL d   1      33.099  20.420 -21.341  0.00  0.00     0.094 A 
ATOM      3  C   UNL d   1      33.056  21.036 -20.148  0.00  0.00     0.092 A 
ATOM      4  C   UNL d   1      33.227  19.861 -20.744  0.00  0.00     0.021 A 
ATOM      5  C   UNL d   1      33.200  20.243 -20.015  0.00  0.00     0.021 A 
ENDROOT
BRANCH   2   6
ATOM      6  C   UNL d   1      33.064  20.362 -22.163  0.00  0.00     0.120 C 
BRANCH   6   7
ATOM      7  N   UNL d   1      32.931  19.635 -22.516  0.00  0.00    -0.205 NA
ATOM      8  C   UNL d   1      32.914  19.582 -23.328  0.00  0.00     0.279 C 
ATOM      9  O   UNL d   1      33.029  20.247 -23.805  0.00  0.00    -0.265 OA
BRANCH   8  10
ATOM     10  C   UNL d   1      32.777  18.839 -23.694  0.00  0.00     0.058 A 
ATOM     11  C   UNL d   1      32.425  18.228 -23.265  0.00  0.00     0.007 A 
ATOM     12  C   UNL d   1      32.289  17.503 -23.615  0.00  0.00     0.025 A 
ATOM     13  C   UNL d   1      32.508  17.379 -24.406  0.00  0.00     0.100 A 
ATOM     14  C   UNL d   1      32.860  17.989 -24.835  0.00  0.00     0.025 A 
ATOM     15  C   UNL d   1      32.992  18.719 -24.469  0.00  0.00     0.007 A 
BRANCH  13  16
ATOM     16  O   UNL d   1      32.368  16.642 -24.756  0.00  0.00    -0.305 OA
BRANCH  16  17
ATOM     17  C   UNL d   1      31.636  16.468 -25.095  0.00  0.00     0.123 C 
ATOM     18  C   UNL d   1      31.101  15.985 -24.694  0.00  0.00     0.029 C 
ENDBRANCH  16  17
ENDBRANCH  13  16
ENDBRANCH   8  10
ENDBRANCH   6   7
ENDBRANCH   2   6
BRANCH   1  19
ATOM     19  S   UNL d   1      32.848  21.867 -21.354  0.00  0.00     0.277 S 
ATOM     20  O   UNL d   1      33.239  21.586 -22.027  0.00  0.00    -0.199 OA
ATOM     21  O   UNL d   1      32.457  22.146 -20.678  0.00  0.00    -0.199 OA
BRANCH  19  22
ATOM     22  C   UNL d   1      32.704  22.590 -21.744  0.00  0.00     0.133 A 
ATOM     23  S   UNL d   1      33.159  23.022 -22.285  0.00  0.00    -0.074 SA
ATOM     24  C   UNL d   1      32.733  23.695 -22.481  0.00  0.00     0.036 A 
ATOM     25  C   UNL d   1      32.024  23.675 -22.064  0.00  0.00     0.008 A 
ATOM     26  C   UNL d   1      32.009  22.998 -21.613  0.00  0.00     0.020 A 
ENDBRANCH  19  22
ENDBRANCH   1  19
TORSDOF 7
ENDMDL
MODEL 2
REMARK VINA RESULT:      -0.0      2.410      5.330
REMARK  7 active torsions:
REMARK  status: ('A' for Active; 'I' for Inactive)
REMARK    1  A    between atoms: N_2  and  S_1 
REMARK    2  A    between atoms: C_3  and  S_1 
REMARK       I    between atoms: C_4  and  N_9 
REMARK    3  A    between atoms: C_10  and  C_4 
REMARK    4  A    between atoms: C_12  and  C_6 
REMARK    5  A    between atoms: N_9  and  C_12 
REMARK    6  A    between atoms: O_22  and  C_19 
REMARK    7  A    between atoms: C_25  and  O_22 
ROOT
ATOM      1  N   UNL d   1      31.758  16.260 -24.097  0.00  0.00    -0.229 N 
ATOM      2  C   UNL d   1      32.442  16.720 -24.160  0.00  0.00     0.094 A 
ATOM      3  C   UNL d   1      31.986  15.485 -23.894  0.00  0.00     0.092 A 
ATOM      4  C   UNL d   1      33.085  16.226 -23.996  0.00  0.00     0.021 A 
ATOM      5  C   UNL d   1      32.801  15.470 -23.834  0.00  0.00     0.021 A 
ENDROOT
BRANCH   2   6
ATOM      6  C   UNL d   1      32.387  17.519 -24.356  0.00  0.00     0.120 C 
BRANCH   6   7
ATOM      7  N   UNL d   1      32.510  18.090 -23.781  0.00  0.00    -0.205 NA
ATOM      8  C   UNL d   1      32.744  18.837 -24.003  0.00  0.00     0.279 C 
ATOM      9  O   UNL d   1      32.860  19.033 -24.798  0.00  0.00    -0.265 OA
BRANCH   8  10
ATOM     10  C   UNL d   1      32.871  19.425 -23.418  0.00  0.00     0.058 A 
ATOM     11  C   UNL d   1      32.749  19.245 -22.622  0.00  0.00     0.007 A 
ATOM     12  C   UNL d   1      32.871  19.812 -22.047  0.00  0.00     0.025 A 
ATOM     13  C   UNL d   1      33.119  20.574 -22.265  0.00  0.00     0.100 A 
ATOM     14  C   UNL d   1      33.241  20.754 -23.060  0.00  0.00     0.025 A 
ATOM     15  C   UNL d   1      33.114  20.171 -23.633  0.00  0.00     0.007 A 
BRANCH  13  16
ATOM     16  O   UNL d   1      33.241  21.145 -21.678  0.00  0.00    -0.305 OA
BRANCH  16  17
ATOM     17  C   UNL d   1      32.767  21.165 -21.003  0.00  0.00     0.123 C 
ATOM     18  C   UNL d   1      32.899  21.735 -20.423  0.00  0.00     0.029 C 
ENDBRANCH  16  17
ENDBRANCH  13  16
ENDBRANCH   8  10
ENDBRANCH   6   7
ENDBRANCH   2   6
BRANCH   1  19
ATOM     19  S   UNL d   1      30.986  16.527 -24.215  0.00  0.00     0.277 S 
ATOM     20  O   UNL d   1      31.110  16.523 -25.033  0.00  0.00    -0.199 OA
ATOM     21  O   UNL d   1      30.866  16.530 -23.394  0.00  0.00    -0.199 OA
BRANCH  19  22
ATOM     22  C   UNL d   1      30.207  16.796 -24.337  0.00  0.00     0.133 A 
ATOM     23  S   UNL d   1      29.897  17.363 -24.855  0.00  0.00    -0.074 SA
ATOM     24  C   UNL d   1      29.088  17.395 -24.729  0.00  0.00     0.036 A 
ATOM     25  C   UNL d   1      28.904  16.853 -24.138  0.00  0.00     0.008 A 
ATOM     26  C   UNL d   1      29.590  16.488 -23.899  0.00  0.00     0.020 A 
ENDBRANCH  19  22
ENDBRANCH   1  19
TORSDOF 7
ENDMDL
MODEL 3
REMARK VINA RESULT:       0.6      1.619      2.697
REMARK  7 active torsions:
REMARK  status: ('A' for Active; 'I' for Inactive)
REMARK    1  A    between atoms: N_2  and  S_1 
REMARK    2  A    between atoms: C_3  and  S_1 
REMARK       I    between atoms: C_4  and  N_9 
REMARK    3  A    between atoms: C_10  and  C_4 
REMARK    4  A    between atoms: C_12  and  C_6 
REMARK    5  A    between atoms: N_9  and  C_12 
REMARK    6  A    between atoms: O_22  and  C_19 
REMARK    7  A    between atoms: C_25  and  O_22 
ROOT
ATOM      1  N   UNL d   1      32.225  23.116 -20.643  0.00  0.00    -0.229 N 
ATOM      2  C   UNL d   1      32.432  22.596 -21.251  0.00  0.00     0.094 A 
ATOM      3  C   UNL d   1      31.722  23.699 -20.962  0.00  0.00     0.092 A 
ATOM      4  C   UNL d   1      32.056  22.862 -21.938  0.00  0.00     0.021 A 
ATOM      5  C   UNL d   1      31.622  23.537 -21.757  0.00  0.00     0.021 A 
ENDROOT
BRANCH   2   6
ATOM      6  C   UNL d   1      32.930  21.957 -21.097  0.00  0.00     0.120 C 
BRANCH   6   7
ATOM      7  N   UNL d   1      33.054  21.388 -21.673  0.00  0.00    -0.205 NA
ATOM      8  C   UNL d   1      32.737  20.645 -21.575  0.00  0.00     0.279 C 
ATOM      9  O   UNL d   1      32.293  20.451 -20.905  0.00  0.00    -0.265 OA
BRANCH   8  10
ATOM     10  C   UNL d   1      32.861  20.059 -22.163  0.00  0.00     0.058 A 
ATOM     11  C   UNL d   1      33.018  19.280 -21.940  0.00  0.00     0.007 A 
ATOM     12  C   UNL d   1      33.139  18.705 -22.508  0.00  0.00     0.025 A 
ATOM     13  C   UNL d   1      33.104  18.905 -23.312  0.00  0.00     0.100 A 
ATOM     14  C   UNL d   1      32.947  19.684 -23.535  0.00  0.00     0.025 A 
ATOM     15  C   UNL d   1      32.826  20.256 -22.952  0.00  0.00     0.007 A 
BRANCH  13  16
ATOM     16  O   UNL d   1      33.228  18.318 -23.884  0.00  0.00    -0.305 OA
BRANCH  16  17
ATOM     17  C   UNL d   1      32.813  17.606 -23.853  0.00  0.00     0.123 C 
ATOM     18  C   UNL d   1      32.476  17.295 -24.537  0.00  0.00     0.029 C 
ENDBRANCH  16  17
ENDBRANCH  13  16
ENDBRANCH   8  10
ENDBRANCH   6   7
ENDBRANCH   2   6
BRANCH   1  19
ATOM     19  S   UNL d   1      32.475  23.064 -19.858  0.00  0.00     0.277 S 
ATOM     20  O   UNL d   1      33.241  22.885 -20.115  0.00  0.00    -0.199 OA
ATOM     21  O   UNL d   1      31.706  23.244 -19.605  0.00  0.00    -0.199 OA
BRANCH  19  22
ATOM     22  C   UNL d   1      32.730  23.011 -19.067  0.00  0.00     0.133 A 
ATOM     23  S   UNL d   1      32.861  22.357 -18.576  0.00  0.00    -0.074 SA
ATOM     24  C   UNL d   1      33.111  22.642 -17.848  0.00  0.00     0.036 A 
ATOM     25  C   UNL d   1      33.132  23.463 -17.894  0.00  0.00     0.008 A 
ATOM     26  C   UNL d   1      32.899  23.686 -18.641  0.00  0.00     0.020 A 
ENDBRANCH  19  22
ENDBRANCH   1  19
TORSDOF 7
ENDMDL
MODEL 4
REMARK VINA RESULT:       1.4      1.952      5.446
REMARK  7 active torsions:
REMARK  status: ('A' for Active; 'I' for Inactive)
REMARK    1  A    between atoms: N_2  and  S_1 
REMARK    2  A    between atoms: C_3  and  S_1 
REMARK       I    between atoms: C_4  and  N_9 
REMARK    3  A    between atoms: C_10  and  C_4 
REMARK    4  A    between atoms: C_12  and  C_6 
REMARK    5  A    between atoms: N_9  and  C_12 
REMARK    6  A    between atoms: O_22  and  C_19 
REMARK    7  A    between atoms: C_25  and  O_22 
ROOT
ATOM      1  N   UNL d   1      32.985  20.717 -24.293  0.00  0.00    -0.229 N 
ATOM      2  C   UNL d   1      33.149  21.285 -23.715  0.00  0.00     0.094 A 
ATOM      3  C   UNL d   1      32.952  21.101 -25.031  0.00  0.00     0.092 A 
ATOM      4  C   UNL d   1      33.216  22.013 -24.101  0.00  0.00     0.021 A 
ATOM      5  C   UNL d   1      33.094  21.897 -24.907  0.00  0.00     0.021 A 
ENDROOT
BRANCH   2   6
ATOM      6  C   UNL d   1      33.215  21.063 -22.923  0.00  0.00     0.120 C 
BRANCH   6   7
ATOM      7  N   UNL d   1      33.148  21.629 -22.335  0.00  0.00    -0.205 NA
ATOM      8  C   UNL d   1      32.889  21.408 -21.596  0.00  0.00     0.279 C 
ATOM      9  O   UNL d   1      32.691  20.623 -21.426  0.00  0.00    -0.265 OA
BRANCH   8  10
ATOM     10  C   UNL d   1      32.818  21.984 -20.989  0.00  0.00     0.058 A 
ATOM     11  C   UNL d   1      32.620  22.761 -21.182  0.00  0.00     0.007 A 
ATOM     12  C   UNL d   1      32.551  23.327 -20.597  0.00  0.00     0.025 A 
ATOM     13  C   UNL d   1      32.679  23.119 -19.804  0.00  0.00     0.100 A 
ATOM     14  C   UNL d   1      32.877  22.341 -19.611  0.00  0.00     0.025 A 
ATOM     15  C   UNL d   1      32.945  21.778 -20.212  0.00  0.00     0.007 A 
BRANCH  13  16
ATOM     16  O   UNL d   1      32.607  23.696 -19.215  0.00  0.00    -0.305 OA
BRANCH  16  17
ATOM     17  C   UNL d   1      32.973  23.597 -18.482  0.00  0.00     0.123 C 
ATOM     18  C   UNL d   1      32.516  23.526 -17.799  0.00  0.00     0.029 C 
ENDBRANCH  16  17
ENDBRANCH  13  16
ENDBRANCH   8  10
ENDBRANCH   6   7
ENDBRANCH   2   6
BRANCH   1  19
ATOM     19  S   UNL d   1      32.874  19.910 -24.157  0.00  0.00     0.277 S 
ATOM     20  O   UNL d   1      32.755  19.791 -24.967  0.00  0.00    -0.199 OA
ATOM     21  O   UNL d   1      32.994  20.034 -23.345  0.00  0.00    -0.199 OA
BRANCH  19  22
ATOM     22  C   UNL d   1      32.762  19.096 -24.022  0.00  0.00     0.133 A 
ATOM     23  S   UNL d   1      33.241  18.529 -23.653  0.00  0.00    -0.074 SA
ATOM     24  C   UNL d   1      32.842  17.813 -23.684  0.00  0.00     0.036 A 
ATOM     25  C   UNL d   1      32.126  17.941 -24.068  0.00  0.00     0.008 A 
ATOM     26  C   UNL d   1      32.079  18.726 -24.275  0.00  0.00     0.020 A 
ENDBRANCH  19  22
ENDBRANCH   1  19
TORSDOF 7
ENDMDL
