MODEL 1
REMARK VINA RESULT:       1.8      0.000      0.000
REMARK  1 active torsions:
REMARK  status: ('A' for Active; 'I' for Inactive)
REMARK    1  A    between atoms: C_9  and  C_3 
REMARK       I    between atoms: C_10  and  N_4 
ROOT
ATOM      1  N   UNL d   1      57.288  -1.156  31.137  0.00  0.00    -0.047 N 
ATOM      2  N   UNL d   1      57.984  -0.833  30.852  0.00  0.00    -0.188 N 
ATOM      3  C   UNL d   1      58.177  -1.153  30.116  0.00  0.00     0.194 A 
ATOM      4  N   UNL d   1      57.109  -0.860  31.819  0.00  0.00    -0.172 N 
ATOM      5  N   UNL d   1      57.582  -1.708  29.911  0.00  0.00    -0.083 NA
ATOM      6  C   UNL d   1      58.228  -0.313  31.405  0.00  0.00     0.104 A 
ATOM      7  O   UNL d   1      57.024  -1.707  30.555  0.00  0.00    -0.089 OA
ATOM      8  C   UNL d   1      57.678  -0.326  32.020  0.00  0.00     0.106 A 
ATOM      9  C   UNL d   1      56.422  -1.072  32.269  0.00  0.00     0.282 C 
ATOM     10  O   UNL d   1      55.897  -1.626  31.983  0.00  0.00    -0.265 OA
ATOM     11  C   UNL d   1      58.894   0.189  31.445  0.00  0.00     0.021 A 
ATOM     12  C   UNL d   1      57.794   0.161  32.668  0.00  0.00     0.021 A 
ATOM     13  C   UNL d   1      56.277  -0.716  33.008  0.00  0.00     0.068 C 
ATOM     14  C   UNL d   1      58.427   0.654  32.730  0.00  0.00     0.002 A 
ATOM     15  C   UNL d   1      59.001   0.679  32.110  0.00  0.00     0.002 A 
ENDROOT
BRANCH   3  16
ATOM     16  C   UNL d   1      58.849  -0.917  29.720  0.00  0.00     0.038 A 
ATOM     17  C   UNL d   1      58.862  -0.238  29.301  0.00  0.00     0.003 A 
ATOM     18  C   UNL d   1      59.571  -0.014  28.898  0.00  0.00     0.000 A 
ATOM     19  C   UNL d   1      58.203   0.256  29.246  0.00  0.00     0.000 C 
ATOM     20  C   UNL d   1      59.615   0.682  28.456  0.00  0.00     0.000 C 
ATOM     21  C   UNL d   1      60.204  -0.482  28.946  0.00  0.00     0.000 A 
ATOM     22  C   UNL d   1      60.192  -1.161  29.365  0.00  0.00     0.000 A 
ATOM     23  C   UNL d   1      59.520  -1.396  29.761  0.00  0.00     0.003 A 
ATOM     24  C   UNL d   1      60.888  -1.667  29.414  0.00  0.00     0.000 C 
ATOM     25  C   UNL d   1      59.507  -2.098  30.195  0.00  0.00     0.000 C 
ENDBRANCH   3  16
TORSDOF 1
ENDMDL
MODEL 2
REMARK VINA RESULT:       4.1      1.597      3.689
REMARK  1 active torsions:
REMARK  status: ('A' for Active; 'I' for Inactive)
REMARK    1  A    between atoms: C_9  and  C_3 
REMARK       I    between atoms: C_10  and  N_4 
ROOT
ATOM      1  N   UNL d   1      59.029  -2.777  29.287  0.00  0.00    -0.047 N 
ATOM      2  N   UNL d   1      58.954  -1.965  29.366  0.00  0.00    -0.188 N 
ATOM      3  C   UNL d   1      58.223  -1.768  29.695  0.00  0.00     0.194 A 
ATOM      4  N   UNL d   1      59.706  -2.960  28.982  0.00  0.00    -0.172 N 
ATOM      5  N   UNL d   1      57.802  -2.480  29.836  0.00  0.00    -0.083 NA
ATOM      6  C   UNL d   1      59.634  -1.654  29.089  0.00  0.00     0.104 A 
ATOM      7  O   UNL d   1      58.312  -3.113  29.578  0.00  0.00    -0.089 OA
ATOM      8  C   UNL d   1      60.114  -2.279  28.845  0.00  0.00     0.106 A 
ATOM      9  C   UNL d   1      59.963  -3.752  28.824  0.00  0.00     0.282 C 
ATOM     10  O   UNL d   1      59.479  -4.385  28.998  0.00  0.00    -0.265 OA
ATOM     11  C   UNL d   1      59.899  -0.866  29.020  0.00  0.00     0.021 A 
ATOM     12  C   UNL d   1      60.853  -2.114  28.534  0.00  0.00     0.021 A 
ATOM     13  C   UNL d   1      60.714  -3.893  28.491  0.00  0.00     0.068 C 
ATOM     14  C   UNL d   1      61.133  -1.363  28.456  0.00  0.00     0.002 A 
ATOM     15  C   UNL d   1      60.654  -0.711  28.702  0.00  0.00     0.002 A 
ENDROOT
BRANCH   3  16
ATOM     16  C   UNL d   1      58.020  -0.990  29.828  0.00  0.00     0.038 A 
ATOM     17  C   UNL d   1      58.114  -0.660  30.548  0.00  0.00     0.003 A 
ATOM     18  C   UNL d   1      57.896   0.150  30.663  0.00  0.00     0.000 A 
ATOM     19  C   UNL d   1      58.417  -1.082  31.189  0.00  0.00     0.000 C 
ATOM     20  C   UNL d   1      57.980   0.520  31.396  0.00  0.00     0.000 C 
ATOM     21  C   UNL d   1      57.605   0.559  30.055  0.00  0.00     0.000 A 
ATOM     22  C   UNL d   1      57.512   0.229  29.334  0.00  0.00     0.000 A 
ATOM     23  C   UNL d   1      57.715  -0.549  29.201  0.00  0.00     0.003 A 
ATOM     24  C   UNL d   1      57.193   0.682  28.674  0.00  0.00     0.000 C 
ATOM     25  C   UNL d   1      57.618  -0.891  28.456  0.00  0.00     0.000 C 
ENDBRANCH   3  16
TORSDOF 1
ENDMDL
MODEL 3
REMARK VINA RESULT:       4.5      1.764      3.776
REMARK  1 active torsions:
REMARK  status: ('A' for Active; 'I' for Inactive)
REMARK    1  A    between atoms: C_9  and  C_3 
REMARK       I    between atoms: C_10  and  N_4 
ROOT
ATOM      1  N   UNL d   1      59.742  -0.529  29.644  0.00  0.00    -0.047 N 
ATOM      2  N   UNL d   1      59.037  -0.557  30.059  0.00  0.00    -0.188 N 
ATOM      3  C   UNL d   1      58.890   0.162  30.437  0.00  0.00     0.194 A 
ATOM      4  N   UNL d   1      59.879  -1.196  29.294  0.00  0.00    -0.172 N 
ATOM      5  N   UNL d   1      59.525   0.682  30.261  0.00  0.00    -0.083 NA
ATOM      6  C   UNL d   1      58.742  -1.289  29.944  0.00  0.00     0.104 A 
ATOM      7  O   UNL d   1      60.060   0.244  29.762  0.00  0.00    -0.089 OA
ATOM      8  C   UNL d   1      59.271  -1.698  29.460  0.00  0.00     0.106 A 
ATOM      9  C   UNL d   1      60.561  -1.357  28.817  0.00  0.00     0.282 C 
ATOM     10  O   UNL d   1      61.129  -0.783  28.703  0.00  0.00    -0.265 OA
ATOM     11  C   UNL d   1      58.046  -1.659  30.217  0.00  0.00     0.021 A 
ATOM     12  C   UNL d   1      59.102  -2.471  29.252  0.00  0.00     0.021 A 
ATOM     13  C   UNL d   1      60.658  -2.103  28.459  0.00  0.00     0.068 C 
ATOM     14  C   UNL d   1      58.438  -2.852  29.502  0.00  0.00     0.002 A 
ATOM     15  C   UNL d   1      57.886  -2.447  29.998  0.00  0.00     0.002 A 
ENDROOT
BRANCH   3  16
ATOM     16  C   UNL d   1      58.219   0.270  30.886  0.00  0.00     0.038 A 
ATOM     17  C   UNL d   1      57.513   0.409  30.542  0.00  0.00     0.003 A 
ATOM     18  C   UNL d   1      56.830   0.518  31.029  0.00  0.00     0.000 A 
ATOM     19  C   UNL d   1      57.424   0.451  29.722  0.00  0.00     0.000 C 
ATOM     20  C   UNL d   1      56.085   0.663  30.703  0.00  0.00     0.000 C 
ATOM     21  C   UNL d   1      56.906   0.479  31.813  0.00  0.00     0.000 A 
ATOM     22  C   UNL d   1      57.613   0.340  32.157  0.00  0.00     0.000 A 
ATOM     23  C   UNL d   1      58.284   0.232  31.708  0.00  0.00     0.003 A 
ATOM     24  C   UNL d   1      57.690   0.298  33.015  0.00  0.00     0.000 C 
ATOM     25  C   UNL d   1      59.014   0.088  32.064  0.00  0.00     0.000 C 
ENDBRANCH   3  16
TORSDOF 1
ENDMDL
