MODEL 1
REMARK VINA RESULT:     101.7      0.000      0.000
REMARK  5 active torsions:
REMARK  status: ('A' for Active; 'I' for Inactive)
REMARK    1  A    between atoms: C_2  and  S_1 
REMARK    2  A    between atoms: C_9  and  S_1 
REMARK    3  A    between atoms: N_5  and  C_3 
REMARK    4  A    between atoms: O_28  and  C_23 
REMARK    5  A    between atoms: O_29  and  C_24 
ROOT
ATOM      1  C   UNL d   1     -59.179 -98.923 -43.946  0.00  0.00     0.123 A 
ATOM      2  C   UNL d   1     -58.486 -98.925 -43.501  0.00  0.00     0.078 A 
ATOM      3  C   UNL d   1     -58.528 -98.902 -42.679  0.00  0.00     0.036 A 
ATOM      4  C   UNL d   1     -59.913 -98.897 -43.570  0.00  0.00     0.112 A 
ATOM      5  N   UNL d   1     -59.954 -98.874 -42.748  0.00  0.00    -0.243 NA
ATOM      6  C   UNL d   1     -59.261 -98.876 -42.302  0.00  0.00     0.083 A 
ATOM      7  C   UNL d   1     -57.835 -98.904 -42.234  0.00  0.00     0.027 A 
ATOM      8  C   UNL d   1     -59.303 -98.853 -41.481  0.00  0.00     0.021 A 
ATOM      9  C   UNL d   1     -57.877 -98.881 -41.411  0.00  0.00     0.094 A 
ATOM     10  C   UNL d   1     -58.610 -98.855 -41.035  0.00  0.00     0.026 A 
ENDROOT
BRANCH   1  11
ATOM     11  S   UNL d   1     -59.143 -98.946 -44.779  0.00  0.00     0.213 S 
ATOM     12  O   UNL d   1     -58.329 -98.765 -44.749  0.00  0.00    -0.217 OA
ATOM     13  O   UNL d   1     -59.953 -99.127 -44.808  0.00  0.00    -0.217 OA
BRANCH  11  14
ATOM     14  C   UNL d   1     -59.106 -98.970 -45.612  0.00  0.00     0.088 A 
ATOM     15  C   UNL d   1     -59.805 -98.952 -46.052  0.00  0.00     0.013 A 
ATOM     16  C   UNL d   1     -59.774 -98.975 -46.875  0.00  0.00     0.025 A 
ATOM     17  C   UNL d   1     -59.036 -99.016 -47.266  0.00  0.00     0.094 A 
ATOM     18  C   UNL d   1     -58.338 -99.033 -46.811  0.00  0.00     0.025 A 
ATOM     19  C   UNL d   1     -58.375 -99.010 -45.994  0.00  0.00     0.013 A 
BRANCH  17  20
ATOM     20  O   UNL d   1     -59.003 -99.039 -48.095  0.00  0.00    -0.328 OA
ATOM     21  C   UNL d   1     -59.537 -99.503 -48.519  0.00  0.00     0.181 C 
ENDBRANCH  17  20
ENDBRANCH  11  14
ENDBRANCH   1  11
BRANCH   2  22
ATOM     22  N   UNL d   1     -57.753 -98.951 -43.878  0.00  0.00    -0.303 N 
ATOM     23  C   UNL d   1     -57.079 -99.167 -43.455  0.00  0.00     0.081 A 
ATOM     24  C   UNL d   1     -56.338 -99.193 -43.836  0.00  0.00     0.053 A 
ATOM     25  C   UNL d   1     -56.278 -99.003 -44.634  0.00  0.00     0.239 A 
ATOM     26  C   UNL d   1     -56.956 -98.783 -45.067  0.00  0.00     0.053 A 
ATOM     27  O   UNL d   1     -56.131 -98.825 -45.437  0.00  0.00    -0.298 OA
ATOM     28  O   UNL d   1     -55.559 -99.207 -44.289  0.00  0.00    -0.298 OA
ATOM     29  C   UNL d   1     -57.697 -98.757 -44.687  0.00  0.00     0.081 A 
ATOM     30  C   UNL d   1     -55.318 -98.925 -45.571  0.00  0.00     0.146 A 
ATOM     31  C   UNL d   1     -54.967 -99.160 -44.862  0.00  0.00     0.146 A 
ENDBRANCH   2  22
BRANCH   9  32
ATOM     32  O   UNL d   1     -57.177 -98.884 -40.970  0.00  0.00    -0.328 OA
ATOM     33  C   UNL d   1     -57.210 -98.764 -40.153  0.00  0.00     0.181 C 
ENDBRANCH   9  32
TORSDOF 5
ENDMDL
