MODEL 1
REMARK VINA RESULT:      -9.4      0.000      0.000
REMARK  3 active torsions:
REMARK  status: ('A' for Active; 'I' for Inactive)
REMARK    1  A    between atoms: C_11  and  C_6 
REMARK       I    between atoms: N_15  and  C_11 
REMARK    2  A    between atoms: C_23  and  N_15 
REMARK    3  A    between atoms: C_22  and  C_23 
ROOT
ATOM      1  C   UNL d   1     -48.386  13.602  22.967  0.00  0.00     0.155 A 
ATOM      2  C   UNL d   1     -48.141  12.812  22.979  0.00  0.00     0.091 A 
ATOM      3  N   UNL d   1     -49.179  13.785  23.089  0.00  0.00    -0.210 NA
ATOM      4  N   UNL d   1     -49.481  12.401  23.234  0.00  0.00    -0.258 N 
ATOM      5  N   UNL d   1     -47.836  14.197  22.833  0.00  0.00    -0.272 N 
ATOM      6  C   UNL d   1     -46.790  13.226  22.722  0.00  0.00     0.094 A 
ATOM      7  C   UNL d   1     -49.718  13.193  23.221  0.00  0.00     0.152 A 
ATOM      8  C   UNL d   1     -48.690  12.208  23.113  0.00  0.00     0.269 A 
ATOM      9  C   UNL d   1     -47.033  14.009  22.710  0.00  0.00     0.175 A 
ATOM     10  C   UNL d   1     -47.347  12.620  22.857  0.00  0.00     0.016 A 
ATOM     11  C   UNL d   1     -50.516  13.375  23.344  0.00  0.00     0.035 A 
ATOM     12  C   UNL d   1     -50.028  11.798  23.368  0.00  0.00     0.084 A 
ATOM     13  N   UNL d   1     -46.480  14.613  22.575  0.00  0.00    -0.128 N 
ATOM     14  O   UNL d   1     -48.447  11.424  23.125  0.00  0.00    -0.266 OA
ATOM     15  C   UNL d   1     -50.816  11.991  23.489  0.00  0.00     0.019 A 
ATOM     16  C   UNL d   1     -51.060  12.781  23.476  0.00  0.00     0.005 A 
ATOM     17  C   UNL d   1     -48.080  14.984  22.821  0.00  0.00     0.102 C 
ATOM     18  C   UNL d   1     -50.760  14.162  23.332  0.00  0.00     0.003 C 
ENDROOT
BRANCH   6  19
ATOM     19  C   UNL d   1     -45.992  13.036  22.599  0.00  0.00     0.282 C 
ATOM     20  N   UNL d   1     -45.693  12.326  22.892  0.00  0.00    -0.206 NA
ATOM     21  O   UNL d   1     -45.504  13.554  22.189  0.00  0.00    -0.265 OA
BRANCH  20  22
ATOM     22  C   UNL d   1     -44.900  12.141  22.768  0.00  0.00     0.104 C 
BRANCH  22  23
ATOM     23  C   UNL d   1     -44.603  11.421  23.047  0.00  0.00     0.038 A 
ATOM     24  C   UNL d   1     -43.802  11.248  22.951  0.00  0.00     0.101 A 
ATOM     25  N   UNL d   1     -43.501  10.532  23.228  0.00  0.00    -0.242 NA
ATOM     26  C   UNL d   1     -44.002   9.992  23.598  0.00  0.00     0.099 A 
ATOM     27  C   UNL d   1     -44.804  10.167  23.694  0.00  0.00     0.021 A 
ATOM     28  C   UNL d   1     -45.100  10.885  23.416  0.00  0.00     0.005 A 
ENDBRANCH  22  23
ENDBRANCH  20  22
ENDBRANCH   6  19
TORSDOF 3
ENDMDL
MODEL 2
REMARK VINA RESULT:      -8.5      1.307      2.351
REMARK  3 active torsions:
REMARK  status: ('A' for Active; 'I' for Inactive)
REMARK    1  A    between atoms: C_11  and  C_6 
REMARK       I    between atoms: N_15  and  C_11 
REMARK    2  A    between atoms: C_23  and  N_15 
REMARK    3  A    between atoms: C_22  and  C_23 
ROOT
ATOM      1  C   UNL d   1     -48.753  12.917  23.191  0.00  0.00     0.155 A 
ATOM      2  C   UNL d   1     -48.093  13.402  23.078  0.00  0.00     0.091 A 
ATOM      3  N   UNL d   1     -49.508  13.245  23.176  0.00  0.00    -0.210 NA
ATOM      4  N   UNL d   1     -48.948  14.533  22.937  0.00  0.00    -0.258 N 
ATOM      5  N   UNL d   1     -48.651  12.112  23.316  0.00  0.00    -0.272 N 
ATOM      6  C   UNL d   1     -47.231  12.262  23.220  0.00  0.00     0.094 A 
ATOM      7  C   UNL d   1     -49.603  14.042  23.051  0.00  0.00     0.152 A 
ATOM      8  C   UNL d   1     -48.190  14.213  22.951  0.00  0.00     0.269 A 
ATOM      9  C   UNL d   1     -47.885  11.781  23.331  0.00  0.00     0.175 A 
ATOM     10  C   UNL d   1     -47.333  13.080  23.092  0.00  0.00     0.016 A 
ATOM     11  C   UNL d   1     -50.361  14.375  23.035  0.00  0.00     0.035 A 
ATOM     12  C   UNL d   1     -49.042  15.343  22.811  0.00  0.00     0.084 A 
ATOM     13  N   UNL d   1     -47.787  10.967  23.459  0.00  0.00    -0.128 N 
ATOM     14  O   UNL d   1     -47.534  14.695  22.839  0.00  0.00    -0.266 OA
ATOM     15  C   UNL d   1     -49.799  15.660  22.798  0.00  0.00     0.019 A 
ATOM     16  C   UNL d   1     -50.459  15.175  22.910  0.00  0.00     0.005 A 
ATOM     17  C   UNL d   1     -49.309  11.628  23.429  0.00  0.00     0.102 C 
ATOM     18  C   UNL d   1     -51.019  13.891  23.148  0.00  0.00     0.003 C 
ENDROOT
BRANCH   6  19
ATOM     19  C   UNL d   1     -46.469  11.935  23.234  0.00  0.00     0.282 C 
ATOM     20  N   UNL d   1     -45.871  12.277  22.780  0.00  0.00    -0.206 NA
ATOM     21  O   UNL d   1     -46.311  11.276  23.697  0.00  0.00    -0.265 OA
BRANCH  20  22
ATOM     22  C   UNL d   1     -45.116  11.951  22.796  0.00  0.00     0.104 C 
BRANCH  22  23
ATOM     23  C   UNL d   1     -44.523  12.273  22.317  0.00  0.00     0.038 A 
ATOM     24  C   UNL d   1     -43.789  11.900  22.273  0.00  0.00     0.101 A 
ATOM     25  N   UNL d   1     -43.195  12.218  21.797  0.00  0.00    -0.242 NA
ATOM     26  C   UNL d   1     -43.338  12.906  21.367  0.00  0.00     0.099 A 
ATOM     27  C   UNL d   1     -44.075  13.279  21.413  0.00  0.00     0.021 A 
ATOM     28  C   UNL d   1     -44.665  12.957  21.890  0.00  0.00     0.005 A 
ENDBRANCH  22  23
ENDBRANCH  20  22
ENDBRANCH   6  19
TORSDOF 3
ENDMDL
MODEL 3
REMARK VINA RESULT:      -8.4      1.179      4.865
REMARK  3 active torsions:
REMARK  status: ('A' for Active; 'I' for Inactive)
REMARK    1  A    between atoms: C_11  and  C_6 
REMARK       I    between atoms: N_15  and  C_11 
REMARK    2  A    between atoms: C_23  and  N_15 
REMARK    3  A    between atoms: C_22  and  C_23 
ROOT
ATOM      1  C   UNL d   1     -45.489  12.601  22.780  0.00  0.00     0.155 A 
ATOM      2  C   UNL d   1     -46.161  12.234  23.092  0.00  0.00     0.091 A 
ATOM      3  N   UNL d   1     -44.772  12.196  22.763  0.00  0.00    -0.210 NA
ATOM      4  N   UNL d   1     -45.394  11.065  23.367  0.00  0.00    -0.258 N 
ATOM      5  N   UNL d   1     -45.541  13.367  22.488  0.00  0.00    -0.272 N 
ATOM      6  C   UNL d   1     -46.933  13.413  22.815  0.00  0.00     0.094 A 
ATOM      7  C   UNL d   1     -44.726  11.438  23.053  0.00  0.00     0.152 A 
ATOM      8  C   UNL d   1     -46.114  11.463  23.387  0.00  0.00     0.269 A 
ATOM      9  C   UNL d   1     -46.267  13.776  22.506  0.00  0.00     0.175 A 
ATOM     10  C   UNL d   1     -46.882  12.635  23.112  0.00  0.00     0.016 A 
ATOM     11  C   UNL d   1     -44.007  11.029  23.038  0.00  0.00     0.035 A 
ATOM     12  C   UNL d   1     -45.349  10.296  23.661  0.00  0.00     0.084 A 
ATOM     13  N   UNL d   1     -46.316  14.550  22.210  0.00  0.00    -0.128 N 
ATOM     14  O   UNL d   1     -46.781  11.098  23.697  0.00  0.00    -0.266 OA
ATOM     15  C   UNL d   1     -44.631   9.900  23.641  0.00  0.00     0.019 A 
ATOM     16  C   UNL d   1     -43.959  10.267  23.328  0.00  0.00     0.005 A 
ATOM     17  C   UNL d   1     -44.871  13.733  22.177  0.00  0.00     0.102 C 
ATOM     18  C   UNL d   1     -43.338  11.394  22.726  0.00  0.00     0.003 C 
ENDROOT
BRANCH   6  19
ATOM     19  C   UNL d   1     -47.657  13.817  22.834  0.00  0.00     0.282 C 
ATOM     20  N   UNL d   1     -48.306  13.510  22.428  0.00  0.00    -0.206 NA
ATOM     21  O   UNL d   1     -47.726  14.519  23.254  0.00  0.00    -0.265 OA
BRANCH  20  22
ATOM     22  C   UNL d   1     -49.023  13.914  22.448  0.00  0.00     0.104 C 
BRANCH  22  23
ATOM     23  C   UNL d   1     -49.707  13.544  22.167  0.00  0.00     0.038 A 
ATOM     24  C   UNL d   1     -49.765  13.354  21.367  0.00  0.00     0.101 A 
ATOM     25  N   UNL d   1     -50.446  12.984  21.082  0.00  0.00    -0.242 NA
ATOM     26  C   UNL d   1     -51.063  12.807  21.598  0.00  0.00     0.099 A 
ATOM     27  C   UNL d   1     -51.003  12.998  22.400  0.00  0.00     0.021 A 
ATOM     28  C   UNL d   1     -50.320  13.368  22.680  0.00  0.00     0.005 A 
ENDBRANCH  22  23
ENDBRANCH  20  22
ENDBRANCH   6  19
TORSDOF 3
ENDMDL
MODEL 4
REMARK VINA RESULT:      -6.6      1.197      5.295
REMARK  3 active torsions:
REMARK  status: ('A' for Active; 'I' for Inactive)
REMARK    1  A    between atoms: C_11  and  C_6 
REMARK       I    between atoms: N_15  and  C_11 
REMARK    2  A    between atoms: C_23  and  N_15 
REMARK    3  A    between atoms: C_22  and  C_23 
ROOT
ATOM      1  C   UNL d   1     -46.515  11.853  22.944  0.00  0.00     0.155 A 
ATOM      2  C   UNL d   1     -46.772  12.543  22.569  0.00  0.00     0.091 A 
ATOM      3  N   UNL d   1     -45.714  11.661  22.941  0.00  0.00    -0.210 NA
ATOM      4  N   UNL d   1     -45.430  12.840  22.193  0.00  0.00    -0.258 N 
ATOM      5  N   UNL d   1     -47.059  11.364  23.317  0.00  0.00    -0.272 N 
ATOM      6  C   UNL d   1     -48.125  12.244  22.948  0.00  0.00     0.094 A 
ATOM      7  C   UNL d   1     -45.180  12.147  22.570  0.00  0.00     0.152 A 
ATOM      8  C   UNL d   1     -46.229  13.039  22.192  0.00  0.00     0.269 A 
ATOM      9  C   UNL d   1     -47.870  11.560  23.319  0.00  0.00     0.175 A 
ATOM     10  C   UNL d   1     -47.574  12.742  22.568  0.00  0.00     0.016 A 
ATOM     11  C   UNL d   1     -44.375  11.957  22.566  0.00  0.00     0.035 A 
ATOM     12  C   UNL d   1     -44.889  13.335  21.816  0.00  0.00     0.084 A 
ATOM     13  N   UNL d   1     -48.416  11.064  23.698  0.00  0.00    -0.128 N 
ATOM     14  O   UNL d   1     -46.484  13.725  21.819  0.00  0.00    -0.266 OA
ATOM     15  C   UNL d   1     -44.094  13.135  21.819  0.00  0.00     0.019 A 
ATOM     16  C   UNL d   1     -43.836  12.444  22.194  0.00  0.00     0.005 A 
ATOM     17  C   UNL d   1     -46.802  10.676  23.691  0.00  0.00     0.102 C 
ATOM     18  C   UNL d   1     -44.118  11.269  22.940  0.00  0.00     0.003 C 
ENDROOT
BRANCH   6  19
ATOM     19  C   UNL d   1     -48.931  12.442  22.948  0.00  0.00     0.282 C 
ATOM     20  N   UNL d   1     -49.156  13.233  23.005  0.00  0.00    -0.206 NA
ATOM     21  O   UNL d   1     -49.499  11.852  22.893  0.00  0.00    -0.265 OA
BRANCH  20  22
ATOM     22  C   UNL d   1     -49.956  13.426  23.005  0.00  0.00     0.104 C 
BRANCH  22  23
ATOM     23  C   UNL d   1     -50.183  14.220  23.048  0.00  0.00     0.038 A 
ATOM     24  C   UNL d   1     -50.691  14.529  22.476  0.00  0.00     0.101 A 
ATOM     25  N   UNL d   1     -50.920  15.320  22.515  0.00  0.00    -0.242 NA
ATOM     26  C   UNL d   1     -50.641  15.799  23.125  0.00  0.00     0.099 A 
ATOM     27  C   UNL d   1     -50.131  15.488  23.698  0.00  0.00     0.021 A 
ATOM     28  C   UNL d   1     -49.906  14.696  23.654  0.00  0.00     0.005 A 
ENDBRANCH  22  23
ENDBRANCH  20  22
ENDBRANCH   6  19
TORSDOF 3
ENDMDL
