MODEL 1
REMARK VINA RESULT:      63.4      0.000      0.000
REMARK  8 active torsions:
REMARK  status: ('A' for Active; 'I' for Inactive)
REMARK    1  A    between atoms: C_21  and  N_5 
REMARK    2  A    between atoms: S_10  and  C_6 
REMARK    3  A    between atoms: C_17  and  C_7 
REMARK    4  A    between atoms: C_23  and  S_10 
REMARK    5  A    between atoms: C_13  and  C_23 
REMARK       I    between atoms: N_19  and  C_13 
REMARK    6  A    between atoms: C_28  and  N_19 
REMARK    7  A    between atoms: C_24  and  C_21 
REMARK    8  A    between atoms: C_27  and  C_28 
ROOT
ATOM      1  C   UNL d   1      13.922  13.195  -2.810  0.00  0.00     0.081 A 
ATOM      2  C   UNL d   1      14.099  13.925  -3.082  0.00  0.00     0.117 A 
ATOM      3  N   UNL d   1      13.869  14.201  -3.856  0.00  0.00    -0.215 NA
ATOM      4  C   UNL d   1      13.482  12.679  -3.326  0.00  0.00     0.268 A 
ATOM      5  N   UNL d   1      13.249  12.921  -4.074  0.00  0.00    -0.253 N 
ATOM      6  C   UNL d   1      13.457  13.723  -4.345  0.00  0.00     0.182 A 
ATOM      7  C   UNL d   1      14.217  13.102  -2.058  0.00  0.00     0.013 A 
ATOM      8  S   UNL d   1      14.531  14.336  -2.488  0.00  0.00    -0.067 SA
ATOM      9  C   UNL d   1      14.598  13.807  -1.848  0.00  0.00     0.037 A 
ATOM     10  O   UNL d   1      13.271  11.902  -3.085  0.00  0.00    -0.267 OA
ENDROOT
BRANCH   6  11
ATOM     11  S   UNL d   1      13.231  13.993  -5.104  0.00  0.00    -0.044 SA
BRANCH  11  12
ATOM     12  C   UNL d   1      13.305  14.758  -5.321  0.00  0.00     0.101 C 
BRANCH  12  13
ATOM     13  C   UNL d   1      13.819  14.998  -5.863  0.00  0.00     0.286 C 
ATOM     14  N   UNL d   1      14.065  15.761  -5.969  0.00  0.00    -0.206 NA
ATOM     15  O   UNL d   1      14.135  14.448  -6.363  0.00  0.00    -0.265 OA
BRANCH  14  16
ATOM     16  C   UNL d   1      13.710  16.292  -5.428  0.00  0.00     0.102 C 
BRANCH  16  17
ATOM     17  C   UNL d   1      13.644  17.108  -5.688  0.00  0.00     0.021 A 
ATOM     18  C   UNL d   1      14.251  17.679  -5.533  0.00  0.00     0.028 A 
ATOM     19  C   UNL d   1      14.174  18.429  -5.781  0.00  0.00     0.119 A 
ATOM     20  O   UNL d   1      14.684  19.074  -5.696  0.00  0.00    -0.300 OA
ATOM     21  C   UNL d   1      13.507  18.674  -6.193  0.00  0.00     0.119 A 
ATOM     22  C   UNL d   1      14.300  19.697  -6.068  0.00  0.00     0.304 A 
ATOM     23  O   UNL d   1      13.579  19.455  -6.372  0.00  0.00    -0.300 OA
ATOM     24  C   UNL d   1      12.885  18.119  -6.360  0.00  0.00     0.026 A 
ATOM     25  C   UNL d   1      12.974  17.359  -6.104  0.00  0.00     0.004 A 
ENDBRANCH  16  17
ENDBRANCH  14  16
ENDBRANCH  12  13
ENDBRANCH  11  12
ENDBRANCH   6  11
BRANCH   5  26
ATOM     26  C   UNL d   1      12.815  12.343  -4.520  0.00  0.00     0.085 C 
BRANCH  26  27
ATOM     27  C   UNL d   1      13.214  11.782  -5.031  0.00  0.00     0.019 C 
ATOM     28  C   UNL d   1      13.103  11.853  -5.848  0.00  0.00     0.002 C 
ENDBRANCH  26  27
ENDBRANCH   5  26
BRANCH   7  29
ATOM     29  C   UNL d   1      14.338  12.680  -1.396  0.00  0.00     0.001 A 
ATOM     30  C   UNL d   1      13.768  12.490  -0.830  0.00  0.00     0.000 A 
ATOM     31  C   UNL d   1      13.890  12.067  -0.168  0.00  0.00     0.000 A 
ATOM     32  C   UNL d   1      14.656  11.788  -0.025  0.00  0.00     0.000 A 
ATOM     33  C   UNL d   1      15.250  11.958  -0.570  0.00  0.00     0.000 A 
ATOM     34  C   UNL d   1      15.095  12.400  -1.249  0.00  0.00     0.000 A 
ENDBRANCH   7  29
TORSDOF 8
ENDMDL
