MODEL 1
REMARK VINA RESULT:      24.2      0.000      0.000
REMARK  4 active torsions:
REMARK  status: ('A' for Active; 'I' for Inactive)
REMARK    1  A    between atoms: N_2  and  S_1 
REMARK    2  A    between atoms: C_3  and  S_1 
REMARK    3  A    between atoms: C_14  and  C_4 
REMARK    4  A    between atoms: O_17  and  C_11 
ROOT
ATOM      1  S   UNL d   1      45.271 -14.118  43.741  0.00  0.00     0.274 S 
ATOM      2  O   UNL d   1      45.897 -14.547  44.049  0.00  0.00    -0.199 OA
ATOM      3  O   UNL d   1      44.503 -14.416  43.781  0.00  0.00    -0.199 OA
ENDROOT
BRANCH   1   4
ATOM      4  N   UNL d   1      45.410 -13.389  43.391  0.00  0.00    -0.213 N 
ATOM      5  C   UNL d   1      45.883 -12.836  43.765  0.00  0.00     0.157 A 
ATOM      6  N   UNL d   1      46.026 -12.081  43.401  0.00  0.00    -0.226 NA
ATOM      7  C   UNL d   1      45.212 -12.477  42.305  0.00  0.00     0.101 A 
ATOM      8  C   UNL d   1      45.069 -13.212  42.654  0.00  0.00     0.112 A 
ATOM      9  C   UNL d   1      44.862 -12.313  41.565  0.00  0.00     0.022 C 
BRANCH   5  10
ATOM     10  C   UNL d   1      46.224 -13.010  44.499  0.00  0.00     0.038 C 
ATOM     11  C   UNL d   1      46.510 -12.391  44.955  0.00  0.00     0.003 C 
ENDBRANCH   5  10
ENDBRANCH   1   4
BRANCH   1  12
ATOM     12  C   UNL d   1      45.137 -14.845  44.091  0.00  0.00     0.127 A 
ATOM     13  C   UNL d   1      45.632 -15.477  43.936  0.00  0.00     0.022 A 
ATOM     14  C   UNL d   1      45.505 -16.206  44.282  0.00  0.00     0.035 A 
ATOM     15 BR   UNL d   1      46.012 -16.831  44.116  0.00  0.00    -0.049 Br
ATOM     16  C   UNL d   1      44.867 -16.310  44.795  0.00  0.00     0.009 A 
ATOM     17  C   UNL d   1      44.365 -15.675  44.954  0.00  0.00     0.025 A 
ATOM     18  C   UNL d   1      44.498 -14.948  44.604  0.00  0.00     0.106 A 
BRANCH  18  19
ATOM     19  O   UNL d   1      43.993 -14.312  44.765  0.00  0.00    -0.327 OA
ATOM     20  C   UNL d   1      43.181 -14.433  44.839  0.00  0.00     0.181 C 
ENDBRANCH  18  19
ENDBRANCH   1  12
TORSDOF 4
ENDMDL
