MODEL 1
REMARK VINA RESULT:       5.8      0.000      0.000
REMARK  9 active torsions:
REMARK  status: ('A' for Active; 'I' for Inactive)
REMARK    1  A    between atoms: C_9  and  N_1 
REMARK    2  A    between atoms: C_6  and  C_2 
REMARK    3  A    between atoms: S_11  and  C_3 
REMARK    4  A    between atoms: C_7  and  C_6 
REMARK    5  A    between atoms: C_20  and  C_9 
REMARK       I    between atoms: N_10  and  C_12 
REMARK    6  A    between atoms: C_13  and  N_10 
REMARK    7  A    between atoms: C_19  and  S_11 
REMARK    8  A    between atoms: C_12  and  C_19 
REMARK    9  A    between atoms: C_23  and  C_20 
ROOT
ATOM      1  N   UNL d   1      33.097  21.464 -22.192  0.00  0.00    -0.268 N 
ATOM      2  C   UNL d   1      33.102  20.646 -22.075  0.00  0.00     0.172 A 
ATOM      3  C   UNL d   1      32.940  21.828 -21.469  0.00  0.00     0.201 A 
ATOM      4  N   UNL d   1      32.949  20.503 -21.281  0.00  0.00    -0.128 NA
ATOM      5  N   UNL d   1      32.848  21.229 -20.901  0.00  0.00    -0.121 NA
ENDROOT
BRANCH   3   6
ATOM      6  S   UNL d   1      32.884  22.634 -21.331  0.00  0.00    -0.043 SA
BRANCH   6   7
ATOM      7  C   UNL d   1      33.239  22.967 -20.665  0.00  0.00     0.101 C 
BRANCH   7   8
ATOM      8  C   UNL d   1      32.785  23.133 -19.994  0.00  0.00     0.286 C 
ATOM      9  N   UNL d   1      32.988  22.785 -19.274  0.00  0.00    -0.205 NA
ATOM     10  O   UNL d   1      32.139  23.638 -20.042  0.00  0.00    -0.265 OA
BRANCH   9  11
ATOM     11  C   UNL d   1      32.545  22.945 -18.614  0.00  0.00     0.112 A 
ATOM     12  C   UNL d   1      32.667  22.503 -17.929  0.00  0.00     0.158 A 
ATOM     13  F   UNL d   1      33.236  21.900 -17.911  0.00  0.00    -0.203 F 
ATOM     14  C   UNL d   1      32.225  22.653 -17.250  0.00  0.00     0.031 A 
ATOM     15  C   UNL d   1      31.654  23.258 -17.265  0.00  0.00     0.002 A 
ATOM     16  C   UNL d   1      31.534  23.699 -17.953  0.00  0.00     0.002 A 
ATOM     17  C   UNL d   1      31.985  23.538 -18.629  0.00  0.00     0.021 A 
ENDBRANCH   9  11
ENDBRANCH   7   8
ENDBRANCH   6   7
ENDBRANCH   3   6
BRANCH   1  18
ATOM     18  C   UNL d   1      33.226  21.850 -22.910  0.00  0.00     0.084 C 
BRANCH  18  19
ATOM     19  C   UNL d   1      32.647  21.816 -23.509  0.00  0.00     0.019 C 
BRANCH  19  20
ATOM     20  C   UNL d   1      32.559  22.447 -24.040  0.00  0.00     0.002 A 
ATOM     21  C   UNL d   1      31.856  22.866 -24.055  0.00  0.00     0.000 A 
ATOM     22  C   UNL d   1      31.774  23.492 -24.584  0.00  0.00     0.000 A 
ATOM     23  C   UNL d   1      32.399  23.692 -25.091  0.00  0.00     0.000 A 
ATOM     24  C   UNL d   1      33.107  23.264 -25.070  0.00  0.00     0.000 A 
ATOM     25  C   UNL d   1      33.178  22.638 -24.537  0.00  0.00     0.000 A 
ENDBRANCH  19  20
ENDBRANCH  18  19
ENDBRANCH   1  18
BRANCH   2  26
ATOM     26  C   UNL d   1      33.237  20.072 -22.654  0.00  0.00     0.057 C 
BRANCH  26  27
ATOM     27  C   UNL d   1      33.180  19.274 -22.466  0.00  0.00     0.067 A 
ATOM     28  N   UNL d   1      33.150  18.646 -23.001  0.00  0.00    -0.303 N 
ATOM     29  C   UNL d   1      33.094  17.943 -22.571  0.00  0.00     0.080 A 
ATOM     30  C   UNL d   1      33.172  18.713 -23.822  0.00  0.00     0.100 C 
ATOM     31  C   UNL d   1      33.090  18.132 -21.770  0.00  0.00     0.021 A 
ATOM     32  C   UNL d   1      33.143  18.951 -21.702  0.00  0.00     0.019 A 
ENDBRANCH  26  27
ENDBRANCH   2  26
TORSDOF 9
ENDMDL
MODEL 2
REMARK VINA RESULT:       8.7      3.282      6.393
REMARK  9 active torsions:
REMARK  status: ('A' for Active; 'I' for Inactive)
REMARK    1  A    between atoms: C_9  and  N_1 
REMARK    2  A    between atoms: C_6  and  C_2 
REMARK    3  A    between atoms: S_11  and  C_3 
REMARK    4  A    between atoms: C_7  and  C_6 
REMARK    5  A    between atoms: C_20  and  C_9 
REMARK       I    between atoms: N_10  and  C_12 
REMARK    6  A    between atoms: C_13  and  N_10 
REMARK    7  A    between atoms: C_19  and  S_11 
REMARK    8  A    between atoms: C_12  and  C_19 
REMARK    9  A    between atoms: C_23  and  C_20 
ROOT
ATOM      1  N   UNL d   1      32.836  19.185 -23.128  0.00  0.00    -0.268 N 
ATOM      2  C   UNL d   1      32.838  19.866 -22.660  0.00  0.00     0.172 A 
ATOM      3  C   UNL d   1      32.365  19.328 -23.789  0.00  0.00     0.201 A 
ATOM      4  N   UNL d   1      32.369  20.429 -23.030  0.00  0.00    -0.128 NA
ATOM      5  N   UNL d   1      32.073  20.104 -23.728  0.00  0.00    -0.121 NA
ENDROOT
BRANCH   3   6
ATOM      6  S   UNL d   1      32.209  18.803 -24.399  0.00  0.00    -0.043 SA
BRANCH   6   7
ATOM      7  C   UNL d   1      31.504  18.857 -24.824  0.00  0.00     0.101 C 
BRANCH   7   8
ATOM      8  C   UNL d   1      30.992  18.210 -24.858  0.00  0.00     0.286 C 
ATOM      9  N   UNL d   1      30.198  18.313 -24.656  0.00  0.00    -0.205 NA
ATOM     10  O   UNL d   1      31.266  17.471 -25.091  0.00  0.00    -0.265 OA
BRANCH   9  11
ATOM     11  C   UNL d   1      29.692  17.680 -24.688  0.00  0.00     0.112 A 
ATOM     12  C   UNL d   1      28.879  17.815 -24.712  0.00  0.00     0.158 A 
ATOM     13  F   UNL d   1      28.578  18.587 -24.703  0.00  0.00    -0.203 F 
ATOM     14  C   UNL d   1      28.351  17.183 -24.745  0.00  0.00     0.031 A 
ATOM     15  C   UNL d   1      28.650  16.407 -24.753  0.00  0.00     0.002 A 
ATOM     16  C   UNL d   1      29.466  16.275 -24.729  0.00  0.00     0.002 A 
ATOM     17  C   UNL d   1      29.985  16.919 -24.696  0.00  0.00     0.021 A 
ENDBRANCH   9  11
ENDBRANCH   7   8
ENDBRANCH   6   7
ENDBRANCH   3   6
BRANCH   1  18
ATOM     18  C   UNL d   1      33.237  18.484 -22.961  0.00  0.00     0.084 C 
BRANCH  18  19
ATOM     19  C   UNL d   1      32.931  17.756 -23.231  0.00  0.00     0.019 C 
BRANCH  19  20
ATOM     20  C   UNL d   1      33.035  17.068 -22.780  0.00  0.00     0.002 A 
ATOM     21  C   UNL d   1      33.078  16.343 -23.157  0.00  0.00     0.000 A 
ATOM     22  C   UNL d   1      33.181  15.661 -22.705  0.00  0.00     0.000 A 
ATOM     23  C   UNL d   1      33.240  15.717 -21.880  0.00  0.00     0.000 A 
ATOM     24  C   UNL d   1      33.195  16.454 -21.506  0.00  0.00     0.000 A 
ATOM     25  C   UNL d   1      33.092  17.129 -21.968  0.00  0.00     0.000 A 
ENDBRANCH  19  20
ENDBRANCH  18  19
ENDBRANCH   1  18
BRANCH   2  26
ATOM     26  C   UNL d   1      33.240  19.964 -21.944  0.00  0.00     0.057 C 
BRANCH  26  27
ATOM     27  C   UNL d   1      33.031  20.572 -21.432  0.00  0.00     0.067 A 
ATOM     28  N   UNL d   1      32.971  20.522 -20.610  0.00  0.00    -0.303 N 
ATOM     29  C   UNL d   1      32.747  21.263 -20.322  0.00  0.00     0.080 A 
ATOM     30  C   UNL d   1      33.111  19.846 -20.159  0.00  0.00     0.100 C 
ATOM     31  C   UNL d   1      32.668  21.774 -20.962  0.00  0.00     0.021 A 
ATOM     32  C   UNL d   1      32.842  21.352 -21.647  0.00  0.00     0.019 A 
ENDBRANCH  26  27
ENDBRANCH   2  26
TORSDOF 9
ENDMDL
