MODEL 1
REMARK VINA RESULT:      -0.6      0.000      0.000
REMARK  5 active torsions:
REMARK  status: ('A' for Active; 'I' for Inactive)
REMARK    1  A    between atoms: N_9  and  C_2 
REMARK    2  A    between atoms: N_11  and  C_6 
REMARK    3  A    between atoms: C_16  and  N_11 
REMARK    4  A    between atoms: C_15  and  N_12 
REMARK    5  A    between atoms: C_24  and  C_15 
ROOT
ATOM      1  N   UNL d   1      32.879  21.238 -20.964  0.00  0.00    -0.041 NA
ATOM      2  C   UNL d   1      33.042  21.197 -21.728  0.00  0.00     0.738 A 
ATOM      3  C   UNL d   1      32.833  21.936 -20.613  0.00  0.00     0.187 A 
ATOM      4  N   UNL d   1      33.161  21.856 -22.143  0.00  0.00    -0.041 NA
ATOM      5  C   UNL d   1      32.951  22.597 -21.024  0.00  0.00     0.094 A 
ATOM      6  C   UNL d   1      33.117  22.560 -21.796  0.00  0.00     0.185 A 
ATOM      7  N   UNL d   1      32.622  22.683 -19.484  0.00  0.00    -0.162 NA
ATOM      8  N   UNL d   1      32.668  21.973 -19.841  0.00  0.00    -0.208 N 
ATOM      9  C   UNL d   1      32.740  23.343 -19.899  0.00  0.00     0.127 A 
ATOM     10  C   UNL d   1      32.550  21.316 -19.429  0.00  0.00     0.123 C 
ENDROOT
BRANCH   2  11
ATOM     11  N   UNL d   1      33.092  20.458 -22.105  0.00  0.00    -0.134 N 
ATOM     12  C   UNL d   1      33.077  19.762 -21.651  0.00  0.00     0.117 A 
ATOM     13  C   UNL d   1      33.126  19.019 -22.029  0.00  0.00     0.100 A 
ATOM     14  N   UNL d   1      33.190  18.978 -22.845  0.00  0.00    -0.300 N 
ATOM     15  C   UNL d   1      33.205  19.674 -23.299  0.00  0.00     0.100 A 
ATOM     16  C   UNL d   1      33.157  20.409 -22.934  0.00  0.00     0.117 A 
BRANCH  14  17
ATOM     17  C   UNL d   1      33.240  18.244 -23.229  0.00  0.00     0.080 C 
BRANCH  17  18
ATOM     18  C   UNL d   1      32.885  17.533 -23.451  0.00  0.00     0.018 A 
ATOM     19  C   UNL d   1      33.210  16.808 -23.206  0.00  0.00     0.002 A 
ATOM     20  C   UNL d   1      32.852  16.108 -23.430  0.00  0.00     0.000 A 
ATOM     21  C   UNL d   1      32.170  16.107 -23.898  0.00  0.00     0.000 A 
ATOM     22  C   UNL d   1      31.845  16.831 -24.144  0.00  0.00     0.000 A 
ATOM     23  C   UNL d   1      32.206  17.547 -23.918  0.00  0.00     0.002 A 
ENDBRANCH  17  18
ENDBRANCH  14  17
ENDBRANCH   2  11
BRANCH   6  24
ATOM     24  N   UNL d   1      33.241  23.241 -22.233  0.00  0.00    -0.226 NA
BRANCH  24  25
ATOM     25  C   UNL d   1      32.845  23.357 -22.943  0.00  0.00     0.083 A 
ATOM     26  C   UNL d   1      33.238  23.246 -23.657  0.00  0.00     0.021 A 
ATOM     27  C   UNL d   1      32.839  23.362 -24.378  0.00  0.00     0.031 A 
ATOM     28  C   UNL d   1      32.049  23.589 -24.382  0.00  0.00     0.140 A 
ATOM     29  C   UNL d   1      31.646  23.702 -23.665  0.00  0.00     0.031 A 
ATOM     30  F   UNL d   1      31.661  23.702 -25.097  0.00  0.00    -0.204 F 
ATOM     31  C   UNL d   1      32.046  23.586 -22.953  0.00  0.00     0.021 A 
ENDBRANCH  24  25
ENDBRANCH   6  24
TORSDOF 5
ENDMDL
