MODEL 1
REMARK VINA RESULT:      -8.4      0.000      0.000
REMARK  3 active torsions:
REMARK  status: ('A' for Active; 'I' for Inactive)
REMARK    1  A    between atoms: C_8  and  N_1 
REMARK    2  A    between atoms: N_10  and  C_5 
REMARK    3  A    between atoms: C_15  and  N_10 
ROOT
ATOM      1  N   UNL d   1      53.565  31.681  53.692  0.00  0.00    -0.212 N 
ATOM      2  C   UNL d   1      53.038  32.318  53.688  0.00  0.00     0.170 A 
ATOM      3  C   UNL d   1      53.467  33.002  53.854  0.00  0.00     0.093 A 
ATOM      4  N   UNL d   1      54.322  31.977  53.862  0.00  0.00    -0.162 NA
ATOM      5  C   UNL d   1      53.081  33.737  53.888  0.00  0.00     0.169 A 
ATOM      6  C   UNL d   1      54.254  32.795  53.961  0.00  0.00     0.127 A 
ATOM      7  N   UNL d   1      52.221  32.354  53.553  0.00  0.00    -0.205 NA
ATOM      8  N   UNL d   1      52.263  33.773  53.753  0.00  0.00    -0.205 NA
ATOM      9  C   UNL d   1      51.841  33.084  53.587  0.00  0.00     0.202 A 
ENDROOT
BRANCH   1  10
ATOM     10  C   UNL d   1      53.374  30.890  53.552  0.00  0.00     0.085 A 
ATOM     11  C   UNL d   1      53.411  30.343  54.161  0.00  0.00     0.019 A 
ATOM     12  C   UNL d   1      53.218  29.548  54.017  0.00  0.00     0.002 A 
ATOM     13  C   UNL d   1      53.254  28.995  54.623  0.00  0.00     0.000 C 
ATOM     14  C   UNL d   1      52.991  29.309  53.270  0.00  0.00     0.000 A 
ATOM     15  C   UNL d   1      52.953  29.864  52.652  0.00  0.00     0.002 A 
ATOM     16  C   UNL d   1      53.141  30.645  52.785  0.00  0.00     0.019 A 
ENDBRANCH   1  10
BRANCH   5  17
ATOM     17  N   UNL d   1      53.498  34.419  54.052  0.00  0.00    -0.227 NA
BRANCH  17  18
ATOM     18  C   UNL d   1      53.120  35.143  54.046  0.00  0.00     0.083 C 
ATOM     19  C   UNL d   1      52.980  35.534  53.332  0.00  0.00     0.021 C 
ATOM     20  C   UNL d   1      52.874  35.491  54.757  0.00  0.00     0.021 C 
ENDBRANCH  17  18
ENDBRANCH   5  17
TORSDOF 3
ENDMDL
MODEL 2
REMARK VINA RESULT:      -8.3      2.126      3.163
REMARK  3 active torsions:
REMARK  status: ('A' for Active; 'I' for Inactive)
REMARK    1  A    between atoms: C_8  and  N_1 
REMARK    2  A    between atoms: N_10  and  C_5 
REMARK    3  A    between atoms: C_15  and  N_10 
ROOT
ATOM      1  N   UNL d   1      52.894  33.985  53.410  0.00  0.00    -0.212 N 
ATOM      2  C   UNL d   1      52.113  33.726  53.341  0.00  0.00     0.170 A 
ATOM      3  C   UNL d   1      51.682  34.319  52.962  0.00  0.00     0.093 A 
ATOM      4  N   UNL d   1      52.944  34.742  53.073  0.00  0.00    -0.162 NA
ATOM      5  C   UNL d   1      50.872  34.213  52.815  0.00  0.00     0.169 A 
ATOM      6  C   UNL d   1      52.190  34.942  52.797  0.00  0.00     0.127 A 
ATOM      7  N   UNL d   1      51.745  33.022  53.577  0.00  0.00    -0.205 NA
ATOM      8  N   UNL d   1      50.503  33.509  53.051  0.00  0.00    -0.205 NA
ATOM      9  C   UNL d   1      50.941  32.921  53.429  0.00  0.00     0.202 A 
ENDROOT
BRANCH   1  10
ATOM     10  C   UNL d   1      53.517  33.567  53.754  0.00  0.00     0.085 A 
ATOM     11  C   UNL d   1      53.757  33.739  54.519  0.00  0.00     0.019 A 
ATOM     12  C   UNL d   1      54.384  33.317  54.864  0.00  0.00     0.002 A 
ATOM     13  C   UNL d   1      54.629  33.485  55.629  0.00  0.00     0.000 C 
ATOM     14  C   UNL d   1      54.763  32.729  54.442  0.00  0.00     0.000 A 
ATOM     15  C   UNL d   1      54.521  32.554  53.666  0.00  0.00     0.002 A 
ATOM     16  C   UNL d   1      53.906  32.964  53.322  0.00  0.00     0.019 A 
ENDBRANCH   1  10
BRANCH   5  17
ATOM     17  N   UNL d   1      50.438  34.795  52.441  0.00  0.00    -0.227 NA
BRANCH  17  18
ATOM     18  C   UNL d   1      49.627  34.729  52.383  0.00  0.00     0.083 C 
ATOM     19  C   UNL d   1      49.283  34.373  51.722  0.00  0.00     0.021 C 
ATOM     20  C   UNL d   1      49.140  35.019  52.988  0.00  0.00     0.021 C 
ENDBRANCH  17  18
ENDBRANCH   5  17
TORSDOF 3
ENDMDL
MODEL 3
REMARK VINA RESULT:      -8.0      1.943      3.711
REMARK  3 active torsions:
REMARK  status: ('A' for Active; 'I' for Inactive)
REMARK    1  A    between atoms: C_8  and  N_1 
REMARK    2  A    between atoms: N_10  and  C_5 
REMARK    3  A    between atoms: C_15  and  N_10 
ROOT
ATOM      1  N   UNL d   1      51.918  33.630  53.128  0.00  0.00    -0.212 N 
ATOM      2  C   UNL d   1      52.456  34.051  53.592  0.00  0.00     0.170 A 
ATOM      3  C   UNL d   1      52.986  33.510  53.920  0.00  0.00     0.093 A 
ATOM      4  N   UNL d   1      52.119  32.826  53.170  0.00  0.00    -0.162 NA
ATOM      5  C   UNL d   1      53.596  33.776  54.417  0.00  0.00     0.169 A 
ATOM      6  C   UNL d   1      52.781  32.759  53.662  0.00  0.00     0.127 A 
ATOM      7  N   UNL d   1      52.525  34.861  53.755  0.00  0.00    -0.205 NA
ATOM      8  N   UNL d   1      53.665  34.586  54.580  0.00  0.00    -0.205 NA
ATOM      9  C   UNL d   1      53.131  35.120  54.249  0.00  0.00     0.202 A 
ENDROOT
BRANCH   1  10
ATOM     10  C   UNL d   1      51.291  33.951  52.698  0.00  0.00     0.085 A 
ATOM     11  C   UNL d   1      50.604  34.182  53.080  0.00  0.00     0.019 A 
ATOM     12  C   UNL d   1      49.974  34.505  52.645  0.00  0.00     0.002 A 
ATOM     13  C   UNL d   1      49.283  34.738  53.023  0.00  0.00     0.000 C 
ATOM     14  C   UNL d   1      50.036  34.592  51.836  0.00  0.00     0.000 A 
ATOM     15  C   UNL d   1      50.734  34.357  51.447  0.00  0.00     0.002 A 
ATOM     16  C   UNL d   1      51.355  34.040  51.867  0.00  0.00     0.019 A 
ENDBRANCH   1  10
BRANCH   5  17
ATOM     17  N   UNL d   1      54.124  33.247  54.744  0.00  0.00    -0.227 NA
BRANCH  17  18
ATOM     18  C   UNL d   1      54.787  33.519  55.137  0.00  0.00     0.083 C 
ATOM     19  C   UNL d   1      54.782  33.598  55.959  0.00  0.00     0.021 C 
ATOM     20  C   UNL d   1      55.471  33.718  54.712  0.00  0.00     0.021 C 
ENDBRANCH  17  18
ENDBRANCH   5  17
TORSDOF 3
ENDMDL
MODEL 4
REMARK VINA RESULT:      -7.8      0.811      4.034
REMARK  3 active torsions:
REMARK  status: ('A' for Active; 'I' for Inactive)
REMARK    1  A    between atoms: C_8  and  N_1 
REMARK    2  A    between atoms: N_10  and  C_5 
REMARK    3  A    between atoms: C_15  and  N_10 
ROOT
ATOM      1  N   UNL d   1      53.524  33.096  53.710  0.00  0.00    -0.212 N 
ATOM      2  C   UNL d   1      53.036  32.460  53.510  0.00  0.00     0.170 A 
ATOM      3  C   UNL d   1      53.493  31.774  53.529  0.00  0.00     0.093 A 
ATOM      4  N   UNL d   1      54.286  32.798  53.853  0.00  0.00    -0.162 NA
ATOM      5  C   UNL d   1      53.148  31.040  53.349  0.00  0.00     0.169 A 
ATOM      6  C   UNL d   1      54.260  31.979  53.739  0.00  0.00     0.127 A 
ATOM      7  N   UNL d   1      52.231  32.426  53.313  0.00  0.00    -0.205 NA
ATOM      8  N   UNL d   1      52.344  31.005  53.152  0.00  0.00    -0.205 NA
ATOM      9  C   UNL d   1      51.893  31.696  53.135  0.00  0.00     0.202 A 
ENDROOT
BRANCH   1  10
ATOM     10  C   UNL d   1      53.296  33.888  53.760  0.00  0.00     0.085 A 
ATOM     11  C   UNL d   1      53.270  34.264  54.488  0.00  0.00     0.019 A 
ATOM     12  C   UNL d   1      53.040  35.061  54.536  0.00  0.00     0.002 A 
ATOM     13  C   UNL d   1      53.012  35.444  55.261  0.00  0.00     0.000 C 
ATOM     14  C   UNL d   1      52.840  35.472  53.859  0.00  0.00     0.000 A 
ATOM     15  C   UNL d   1      52.866  35.090  53.120  0.00  0.00     0.002 A 
ATOM     16  C   UNL d   1      53.090  34.309  53.066  0.00  0.00     0.019 A 
ENDBRANCH   1  10
BRANCH   5  17
ATOM     17  N   UNL d   1      53.594  30.356  53.366  0.00  0.00    -0.227 NA
BRANCH  17  18
ATOM     18  C   UNL d   1      53.241  29.640  53.536  0.00  0.00     0.083 C 
ATOM     19  C   UNL d   1      52.823  29.232  52.952  0.00  0.00     0.021 C 
ATOM     20  C   UNL d   1      53.299  29.316  54.297  0.00  0.00     0.021 C 
ENDBRANCH  17  18
ENDBRANCH   5  17
TORSDOF 3
ENDMDL
