MODEL 1
REMARK VINA RESULT:      -6.2      0.000      0.000
REMARK  5 active torsions:
REMARK  status: ('A' for Active; 'I' for Inactive)
REMARK    1  A    between atoms: N_2  and  S_1 
REMARK    2  A    between atoms: C_3  and  S_1 
REMARK    3  A    between atoms: C_13  and  N_2 
REMARK       I    between atoms: C_6  and  N_7 
REMARK    4  A    between atoms: N_7  and  C_14 
REMARK    5  A    between atoms: C_12  and  C_13 
ROOT
ATOM      1  S   UNL d   1     -41.214-122.891 -51.243  0.00  0.00     0.285 S 
ATOM      2  O   UNL d   1     -41.255-122.073 -51.113  0.00  0.00    -0.198 OA
ATOM      3  O   UNL d   1     -41.175-123.718 -51.396  0.00  0.00    -0.198 OA
ENDROOT
BRANCH   1   4
ATOM      4  N   UNL d   1     -41.161-123.025 -50.437  0.00  0.00    -0.157 NA
BRANCH   4   5
ATOM      5  C   UNL d   1     -41.823-123.330 -50.026  0.00  0.00     0.114 C 
BRANCH   5   6
ATOM      6  C   UNL d   1     -41.800-123.342 -49.211  0.00  0.00     0.039 A 
ATOM      7  C   UNL d   1     -41.143-123.621 -48.807  0.00  0.00     0.101 A 
ATOM      8  N   UNL d   1     -41.153-123.620 -47.971  0.00  0.00    -0.242 NA
ATOM      9  C   UNL d   1     -41.812-123.344 -47.544  0.00  0.00     0.099 A 
ATOM     10  C   UNL d   1     -42.475-123.062 -47.967  0.00  0.00     0.021 A 
ATOM     11  C   UNL d   1     -42.470-123.061 -48.781  0.00  0.00     0.005 A 
ENDBRANCH   5   6
ENDBRANCH   4   5
ENDBRANCH   1   4
BRANCH   1  12
ATOM     12  C   UNL d   1     -41.270-122.751 -52.083  0.00  0.00     0.105 A 
ATOM     13  C   UNL d   1     -41.361-121.978 -52.371  0.00  0.00     0.015 A 
ATOM     14  C   UNL d   1     -41.415-121.840 -53.175  0.00  0.00     0.020 A 
ATOM     15  C   UNL d   1     -41.377-122.494 -53.700  0.00  0.00     0.085 A 
ATOM     16  C   UNL d   1     -41.288-123.250 -53.410  0.00  0.00     0.020 A 
ATOM     17  C   UNL d   1     -41.234-123.381 -52.591  0.00  0.00     0.015 A 
BRANCH  15  18
ATOM     18  N   UNL d   1     -41.431-122.365 -54.530  0.00  0.00    -0.208 NA
ATOM     19  C   UNL d   1     -42.158-122.080 -54.859  0.00  0.00     0.279 C 
ATOM     20  O   UNL d   1     -42.811-121.930 -54.359  0.00  0.00    -0.265 OA
ATOM     21  C   UNL d   1     -42.217-121.955 -55.654  0.00  0.00     0.068 C 
ENDBRANCH  15  18
ENDBRANCH   1  12
TORSDOF 5
ENDMDL
MODEL 2
REMARK VINA RESULT:      -5.7      1.114      4.985
REMARK  5 active torsions:
REMARK  status: ('A' for Active; 'I' for Inactive)
REMARK    1  A    between atoms: N_2  and  S_1 
REMARK    2  A    between atoms: C_3  and  S_1 
REMARK    3  A    between atoms: C_13  and  N_2 
REMARK       I    between atoms: C_6  and  N_7 
REMARK    4  A    between atoms: N_7  and  C_14 
REMARK    5  A    between atoms: C_12  and  C_13 
ROOT
ATOM      1  S   UNL d   1     -41.374-122.611 -52.093  0.00  0.00     0.285 S 
ATOM      2  O   UNL d   1     -41.528-123.412 -52.241  0.00  0.00    -0.198 OA
ATOM      3  O   UNL d   1     -41.219-121.801 -51.921  0.00  0.00    -0.198 OA
ENDROOT
BRANCH   1   4
ATOM      4  N   UNL d   1     -41.285-122.470 -52.895  0.00  0.00    -0.157 NA
BRANCH   4   5
ATOM      5  C   UNL d   1     -41.928-122.611 -53.411  0.00  0.00     0.114 C 
BRANCH   5   6
ATOM      6  C   UNL d   1     -41.853-122.391 -54.192  0.00  0.00     0.039 A 
ATOM      7  C   UNL d   1     -41.201-122.614 -54.637  0.00  0.00     0.101 A 
ATOM      8  N   UNL d   1     -41.156-122.371 -55.436  0.00  0.00    -0.242 NA
ATOM      9  C   UNL d   1     -41.756-121.911 -55.785  0.00  0.00     0.099 A 
ATOM     10  C   UNL d   1     -42.415-121.691 -55.321  0.00  0.00     0.021 A 
ATOM     11  C   UNL d   1     -42.463-121.925 -54.544  0.00  0.00     0.005 A 
ENDBRANCH   5   6
ENDBRANCH   4   5
ENDBRANCH   1   4
BRANCH   1  12
ATOM     12  C   UNL d   1     -41.466-122.757 -51.257  0.00  0.00     0.105 A 
ATOM     13  C   UNL d   1     -41.902-122.230 -50.788  0.00  0.00     0.015 A 
ATOM     14  C   UNL d   1     -41.993-122.366 -49.987  0.00  0.00     0.020 A 
ATOM     15  C   UNL d   1     -41.637-123.048 -49.651  0.00  0.00     0.085 A 
ATOM     16  C   UNL d   1     -41.209-123.561 -50.118  0.00  0.00     0.020 A 
ATOM     17  C   UNL d   1     -41.122-123.415 -50.931  0.00  0.00     0.015 A 
BRANCH  15  18
ATOM     18  N   UNL d   1     -41.722-123.200 -48.827  0.00  0.00    -0.208 NA
ATOM     19  C   UNL d   1     -42.430-123.570 -48.546  0.00  0.00     0.279 C 
ATOM     20  O   UNL d   1     -43.033-123.780 -49.085  0.00  0.00    -0.265 OA
ATOM     21  C   UNL d   1     -42.519-123.719 -47.758  0.00  0.00     0.068 C 
ENDBRANCH  15  18
ENDBRANCH   1  12
TORSDOF 5
ENDMDL
