MODEL 1
REMARK VINA RESULT:      -3.1      0.000      0.000
REMARK  4 active torsions:
REMARK  status: ('A' for Active; 'I' for Inactive)
REMARK    1  A    between atoms: N_3  and  C_1 
REMARK       I    between atoms: C_7  and  N_3 
REMARK    2  A    between atoms: C_11  and  C_7 
REMARK    3  A    between atoms: C_12  and  C_11 
REMARK    4  A    between atoms: C_13  and  C_12 
ROOT
ATOM      1  C   UNL d   1      32.755  18.259 -23.460  0.00  0.00     0.124 A 
ATOM      2  C   UNL d   1      32.339  17.844 -24.044  0.00  0.00     0.093 A 
ATOM      3  C   UNL d   1      31.792  18.159 -24.575  0.00  0.00     0.103 C 
ATOM      4  S   UNL d   1      33.235  17.723 -23.064  0.00  0.00    -0.067 SA
ATOM      5  N   UNL d   1      31.264  18.450 -25.093  0.00  0.00    -0.191 NA
ATOM      6  C   UNL d   1      32.568  17.043 -24.002  0.00  0.00     0.019 A 
ATOM      7  C   UNL d   1      33.124  16.974 -23.394  0.00  0.00     0.038 A 
ENDROOT
BRANCH   1   8
ATOM      8  N   UNL d   1      32.697  19.067 -23.307  0.00  0.00    -0.201 NA
ATOM      9  C   UNL d   1      32.941  19.363 -22.575  0.00  0.00     0.280 C 
ATOM     10  O   UNL d   1      33.241  18.854 -22.001  0.00  0.00    -0.265 OA
BRANCH   9  11
ATOM     11  C   UNL d   1      32.881  20.174 -22.423  0.00  0.00     0.062 C 
BRANCH  11  12
ATOM     12  C   UNL d   1      32.999  20.463 -21.660  0.00  0.00     0.005 C 
BRANCH  12  13
ATOM     13  C   UNL d   1      32.834  21.264 -21.484  0.00  0.00     0.000 A 
ATOM     14  C   UNL d   1      32.263  21.459 -20.919  0.00  0.00     0.000 A 
ATOM     15  C   UNL d   1      32.104  22.241 -20.749  0.00  0.00     0.000 A 
ATOM     16  C   UNL d   1      32.509  22.838 -21.137  0.00  0.00     0.000 A 
ATOM     17  C   UNL d   1      33.078  22.647 -21.701  0.00  0.00     0.000 A 
ATOM     18  C   UNL d   1      33.240  21.866 -21.874  0.00  0.00     0.000 A 
ENDBRANCH  12  13
ENDBRANCH  11  12
ENDBRANCH   9  11
ENDBRANCH   1   8
TORSDOF 4
ENDMDL
MODEL 2
REMARK VINA RESULT:      -2.9      1.854      4.536
REMARK  4 active torsions:
REMARK  status: ('A' for Active; 'I' for Inactive)
REMARK    1  A    between atoms: N_3  and  C_1 
REMARK       I    between atoms: C_7  and  N_3 
REMARK    2  A    between atoms: C_11  and  C_7 
REMARK    3  A    between atoms: C_12  and  C_11 
REMARK    4  A    between atoms: C_13  and  C_12 
ROOT
ATOM      1  C   UNL d   1      32.874  21.847 -21.118  0.00  0.00     0.124 A 
ATOM      2  C   UNL d   1      32.725  22.660 -21.076  0.00  0.00     0.093 A 
ATOM      3  C   UNL d   1      32.482  23.147 -21.696  0.00  0.00     0.103 C 
ATOM      4  S   UNL d   1      33.102  21.594 -20.370  0.00  0.00    -0.067 SA
ATOM      5  N   UNL d   1      32.248  23.628 -22.284  0.00  0.00    -0.191 NA
ATOM      6  C   UNL d   1      32.864  22.907 -20.292  0.00  0.00     0.019 A 
ATOM      7  C   UNL d   1      33.097  22.242 -19.858  0.00  0.00     0.038 A 
ENDROOT
BRANCH   1   8
ATOM      8  N   UNL d   1      32.806  21.376 -21.791  0.00  0.00    -0.201 NA
ATOM      9  C   UNL d   1      32.990  20.572 -21.749  0.00  0.00     0.280 C 
ATOM     10  O   UNL d   1      33.241  20.241 -21.038  0.00  0.00    -0.265 OA
BRANCH   9  11
ATOM     11  C   UNL d   1      32.921  20.101 -22.427  0.00  0.00     0.062 C 
BRANCH  11  12
ATOM     12  C   UNL d   1      33.135  19.306 -22.403  0.00  0.00     0.005 C 
BRANCH  12  13
ATOM     13  C   UNL d   1      32.976  18.809 -23.057  0.00  0.00     0.000 A 
ATOM     14  C   UNL d   1      32.556  18.105 -22.953  0.00  0.00     0.000 A 
ATOM     15  C   UNL d   1      32.402  17.621 -23.592  0.00  0.00     0.000 A 
ATOM     16  C   UNL d   1      32.663  17.830 -24.339  0.00  0.00     0.000 A 
ATOM     17  C   UNL d   1      33.083  18.531 -24.445  0.00  0.00     0.000 A 
ATOM     18  C   UNL d   1      33.238  19.017 -23.809  0.00  0.00     0.000 A 
ENDBRANCH  12  13
ENDBRANCH  11  12
ENDBRANCH   9  11
ENDBRANCH   1   8
TORSDOF 4
ENDMDL
MODEL 3
REMARK VINA RESULT:      -2.4      2.848      4.178
REMARK  4 active torsions:
REMARK  status: ('A' for Active; 'I' for Inactive)
REMARK    1  A    between atoms: N_3  and  C_1 
REMARK       I    between atoms: C_7  and  N_3 
REMARK    2  A    between atoms: C_11  and  C_7 
REMARK    3  A    between atoms: C_12  and  C_11 
REMARK    4  A    between atoms: C_13  and  C_12 
ROOT
ATOM      1  C   UNL d   1      29.224  16.537 -24.030  0.00  0.00     0.124 A 
ATOM      2  C   UNL d   1      28.489  16.793 -23.748  0.00  0.00     0.093 A 
ATOM      3  C   UNL d   1      28.255  17.574 -23.625  0.00  0.00     0.103 C 
ATOM      4  S   UNL d   1      29.209  15.716 -24.064  0.00  0.00    -0.067 SA
ATOM      5  N   UNL d   1      28.016  18.322 -23.502  0.00  0.00    -0.191 NA
ATOM      6  C   UNL d   1      28.019  16.118 -23.608  0.00  0.00     0.019 A 
ATOM      7  C   UNL d   1      28.470  15.454 -23.805  0.00  0.00     0.038 A 
ENDROOT
BRANCH   1   8
ATOM      8  N   UNL d   1      29.857  17.022 -24.240  0.00  0.00    -0.201 NA
ATOM      9  C   UNL d   1      30.629  16.732 -24.188  0.00  0.00     0.280 C 
ATOM     10  O   UNL d   1      30.767  15.963 -23.929  0.00  0.00    -0.265 OA
BRANCH   9  11
ATOM     11  C   UNL d   1      31.263  17.221 -24.399  0.00  0.00     0.062 C 
BRANCH  11  12
ATOM     12  C   UNL d   1      31.881  17.350 -23.870  0.00  0.00     0.005 C 
BRANCH  12  13
ATOM     13  C   UNL d   1      32.340  18.048 -23.922  0.00  0.00     0.000 A 
ATOM     14  C   UNL d   1      32.532  18.473 -23.240  0.00  0.00     0.000 A 
ATOM     15  C   UNL d   1      32.980  19.154 -23.293  0.00  0.00     0.000 A 
ATOM     16  C   UNL d   1      33.241  19.419 -24.022  0.00  0.00     0.000 A 
ATOM     17  C   UNL d   1      33.051  18.997 -24.704  0.00  0.00     0.000 A 
ATOM     18  C   UNL d   1      32.604  18.317 -24.655  0.00  0.00     0.000 A 
ENDBRANCH  12  13
ENDBRANCH  11  12
ENDBRANCH   9  11
ENDBRANCH   1   8
TORSDOF 4
ENDMDL
MODEL 4
REMARK VINA RESULT:      -1.7      2.600      4.925
REMARK  4 active torsions:
REMARK  status: ('A' for Active; 'I' for Inactive)
REMARK    1  A    between atoms: N_3  and  C_1 
REMARK       I    between atoms: C_7  and  N_3 
REMARK    2  A    between atoms: C_11  and  C_7 
REMARK    3  A    between atoms: C_12  and  C_11 
REMARK    4  A    between atoms: C_13  and  C_12 
ROOT
ATOM      1  C   UNL d   1      32.323  18.334 -24.213  0.00  0.00     0.124 A 
ATOM      2  C   UNL d   1      32.668  18.969 -23.807  0.00  0.00     0.093 A 
ATOM      3  C   UNL d   1      32.484  19.221 -23.044  0.00  0.00     0.103 C 
ATOM      4  S   UNL d   1      32.676  18.287 -24.953  0.00  0.00    -0.067 SA
ATOM      5  N   UNL d   1      32.317  19.476 -22.310  0.00  0.00    -0.191 NA
ATOM      6  C   UNL d   1      33.240  19.312 -24.308  0.00  0.00     0.019 A 
ATOM      7  C   UNL d   1      33.240  18.886 -25.016  0.00  0.00     0.038 A 
ENDROOT
BRANCH   1   8
ATOM      8  N   UNL d   1      31.730  17.840 -23.923  0.00  0.00    -0.201 NA
ATOM      9  C   UNL d   1      31.489  17.186 -24.367  0.00  0.00     0.280 C 
ATOM     10  O   UNL d   1      31.839  17.028 -25.096  0.00  0.00    -0.265 OA
BRANCH   9  11
ATOM     11  C   UNL d   1      30.894  16.691 -24.074  0.00  0.00     0.062 C 
BRANCH  11  12
ATOM     12  C   UNL d   1      30.133  16.726 -24.388  0.00  0.00     0.005 C 
BRANCH  12  13
ATOM     13  C   UNL d   1      29.478  16.479 -23.930  0.00  0.00     0.000 A 
ATOM     14  C   UNL d   1      28.790  16.937 -23.904  0.00  0.00     0.000 A 
ATOM     15  C   UNL d   1      28.152  16.693 -23.457  0.00  0.00     0.000 A 
ATOM     16  C   UNL d   1      28.190  15.994 -23.032  0.00  0.00     0.000 A 
ATOM     17  C   UNL d   1      28.873  15.536 -23.057  0.00  0.00     0.000 A 
ATOM     18  C   UNL d   1      29.513  15.776 -23.502  0.00  0.00     0.000 A 
ENDBRANCH  12  13
ENDBRANCH  11  12
ENDBRANCH   9  11
ENDBRANCH   1   8
TORSDOF 4
ENDMDL
MODEL 5
REMARK VINA RESULT:      -1.3      1.469      1.943
REMARK  4 active torsions:
REMARK  status: ('A' for Active; 'I' for Inactive)
REMARK    1  A    between atoms: N_3  and  C_1 
REMARK       I    between atoms: C_7  and  N_3 
REMARK    2  A    between atoms: C_11  and  C_7 
REMARK    3  A    between atoms: C_12  and  C_11 
REMARK    4  A    between atoms: C_13  and  C_12 
ROOT
ATOM      1  C   UNL d   1      33.185  19.717 -23.427  0.00  0.00     0.124 A 
ATOM      2  C   UNL d   1      33.074  18.912 -23.584  0.00  0.00     0.093 A 
ATOM      3  C   UNL d   1      32.990  18.311 -23.025  0.00  0.00     0.103 C 
ATOM      4  S   UNL d   1      33.240  20.108 -24.148  0.00  0.00    -0.067 SA
ATOM      5  N   UNL d   1      32.907  17.721 -22.498  0.00  0.00    -0.191 NA
ATOM      6  C   UNL d   1      33.061  18.810 -24.411  0.00  0.00     0.019 A 
ATOM      7  C   UNL d   1      33.164  19.555 -24.756  0.00  0.00     0.038 A 
ENDROOT
BRANCH   1   8
ATOM      8  N   UNL d   1      33.232  20.064 -22.680  0.00  0.00    -0.201 NA
ATOM      9  C   UNL d   1      33.044  20.863 -22.587  0.00  0.00     0.280 C 
ATOM     10  O   UNL d   1      32.811  21.312 -23.237  0.00  0.00    -0.265 OA
BRANCH   9  11
ATOM     11  C   UNL d   1      33.092  21.208 -21.836  0.00  0.00     0.062 C 
BRANCH  11  12
ATOM     12  C   UNL d   1      32.450  21.623 -21.529  0.00  0.00     0.005 C 
BRANCH  12  13
ATOM     13  C   UNL d   1      32.570  22.212 -20.947  0.00  0.00     0.000 A 
ATOM     14  C   UNL d   1      32.641  23.006 -21.164  0.00  0.00     0.000 A 
ATOM     15  C   UNL d   1      32.758  23.579 -20.594  0.00  0.00     0.000 A 
ATOM     16  C   UNL d   1      32.806  23.369 -19.804  0.00  0.00     0.000 A 
ATOM     17  C   UNL d   1      32.737  22.578 -19.584  0.00  0.00     0.000 A 
ATOM     18  C   UNL d   1      32.620  22.004 -20.151  0.00  0.00     0.000 A 
ENDBRANCH  12  13
ENDBRANCH  11  12
ENDBRANCH   9  11
ENDBRANCH   1   8
TORSDOF 4
ENDMDL
