MODEL 1
REMARK VINA RESULT:       0.3      0.000      0.000
REMARK  0 active torsions:
REMARK  status: ('A' for Active; 'I' for Inactive)
ROOT
ATOM      1  N   UNL d   1      46.584 -18.800  42.116  0.00  0.00    -0.248 N 
ATOM      2  C   UNL d   1      46.599 -19.605  41.993  0.00  0.00     0.208 A 
ATOM      3  C   UNL d   1      46.574 -18.487  42.908  0.00  0.00     0.268 A 
ATOM      4  C   UNL d   1      46.580 -18.988  43.527  0.00  0.00     0.074 A 
ATOM      5  N   UNL d   1      46.605 -20.113  42.659  0.00  0.00    -0.218 NA
ATOM      6  C   UNL d   1      46.596 -19.798  43.403  0.00  0.00     0.088 A 
ATOM      7  S   UNL d   1      46.608 -19.931  41.223  0.00  0.00    -0.038 SA
ATOM      8  O   UNL d   1      46.559 -17.667  43.033  0.00  0.00    -0.267 OA
ATOM      9  C   UNL d   1      46.577 -18.252  41.466  0.00  0.00     0.104 C 
ATOM     10  C   UNL d   1      46.571 -18.688  44.308  0.00  0.00     0.006 A 
ATOM     11  C   UNL d   1      46.602 -20.329  44.066  0.00  0.00     0.019 A 
ATOM     12  C   UNL d   1      46.577 -19.202  44.954  0.00  0.00     0.000 A 
ATOM     13  C   UNL d   1      46.593 -20.017  44.829  0.00  0.00     0.002 A 
ENDROOT
TORSDOF 0
ENDMDL
