MODEL 1
REMARK VINA RESULT:      -6.7      0.000      0.000
REMARK  4 active torsions:
REMARK  status: ('A' for Active; 'I' for Inactive)
REMARK    1  A    between atoms: S_9  and  C_1 
REMARK       I    between atoms: N_4  and  C_5 
REMARK    2  A    between atoms: C_5  and  C_13 
REMARK    3  A    between atoms: C_8  and  C_10 
REMARK    4  A    between atoms: C_13  and  S_9 
ROOT
ATOM      1  N   UNL d   1     -46.150  12.750  22.850  0.00  0.00    -0.272 N 
ATOM      2  C   UNL d   1     -46.536  13.408  22.659  0.00  0.00     0.271 C 
ATOM      3  C   UNL d   1     -45.379  11.383  23.266  0.00  0.00     0.062 A 
ATOM      4  C   UNL d   1     -46.481  12.220  23.342  0.00  0.00     0.083 A 
ATOM      5  C   UNL d   1     -45.389  12.551  22.571  0.00  0.00     0.083 A 
ATOM      6  O   UNL d   1     -46.207  13.919  22.179  0.00  0.00    -0.266 OA
ATOM      7  C   UNL d   1     -46.120  11.539  23.561  0.00  0.00     0.024 A 
ATOM      8  C   UNL d   1     -44.989  11.882  22.762  0.00  0.00     0.024 A 
ENDROOT
BRANCH   2   9
ATOM      9  C   UNL d   1     -47.286  13.581  22.948  0.00  0.00     0.098 C 
BRANCH   9  10
ATOM     10  S   UNL d   1     -47.686  14.239  22.602  0.00  0.00    -0.056 SA
BRANCH  10  11
ATOM     11  C   UNL d   1     -48.451  14.384  22.834  0.00  0.00     0.141 A 
ATOM     12  N   UNL d   1     -48.974  13.826  23.092  0.00  0.00    -0.232 NA
ATOM     13  C   UNL d   1     -49.676  14.295  23.253  0.00  0.00     0.088 A 
ATOM     14  C   UNL d   1     -50.444  13.976  23.556  0.00  0.00     0.020 A 
ATOM     15  C   UNL d   1     -49.548  15.094  23.091  0.00  0.00     0.049 A 
ATOM     16  C   UNL d   1     -51.064  14.517  23.681  0.00  0.00     0.002 A 
ATOM     17  C   UNL d   1     -50.943  15.366  23.512  0.00  0.00     0.001 A 
ATOM     18  C   UNL d   1     -50.203  15.623  23.228  0.00  0.00     0.008 A 
ATOM     19  S   UNL d   1     -48.795  15.146  22.833  0.00  0.00    -0.060 SA
ENDBRANCH  10  11
ENDBRANCH   9  10
ENDBRANCH   2   9
BRANCH   3  20
ATOM     20  C   UNL d   1     -44.990  10.650  23.501  0.00  0.00     0.297 C 
ATOM     21  O   UNL d   1     -44.186  10.645  23.505  0.00  0.00    -0.264 OA
ATOM     22  N   UNL d   1     -45.459  10.032  23.698  0.00  0.00    -0.102 N 
ENDBRANCH   3  20
TORSDOF 4
ENDMDL
MODEL 2
REMARK VINA RESULT:      -5.9      1.662      2.094
REMARK  4 active torsions:
REMARK  status: ('A' for Active; 'I' for Inactive)
REMARK    1  A    between atoms: S_9  and  C_1 
REMARK       I    between atoms: N_4  and  C_5 
REMARK    2  A    between atoms: C_5  and  C_13 
REMARK    3  A    between atoms: C_8  and  C_10 
REMARK    4  A    between atoms: C_13  and  S_9 
ROOT
ATOM      1  N   UNL d   1     -45.849  13.565  22.405  0.00  0.00    -0.272 N 
ATOM      2  C   UNL d   1     -46.543  13.876  22.604  0.00  0.00     0.271 C 
ATOM      3  C   UNL d   1     -44.426  12.893  22.001  0.00  0.00     0.062 A 
ATOM      4  C   UNL d   1     -45.734  12.779  22.445  0.00  0.00     0.083 A 
ATOM      5  C   UNL d   1     -45.191  14.008  22.144  0.00  0.00     0.083 A 
ATOM      6  O   UNL d   1     -46.646  14.641  22.562  0.00  0.00    -0.266 OA
ATOM      7  C   UNL d   1     -45.042  12.426  22.251  0.00  0.00     0.024 A 
ATOM      8  C   UNL d   1     -44.479  13.698  21.939  0.00  0.00     0.024 A 
ENDROOT
BRANCH   2   9
ATOM      9  C   UNL d   1     -47.175  13.417  22.859  0.00  0.00     0.098 C 
BRANCH   9  10
ATOM     10  S   UNL d   1     -47.922  13.804  22.933  0.00  0.00    -0.056 SA
BRANCH  10  11
ATOM     11  C   UNL d   1     -48.575  13.346  23.090  0.00  0.00     0.141 A 
ATOM     12  N   UNL d   1     -48.556  12.574  23.325  0.00  0.00    -0.232 NA
ATOM     13  C   UNL d   1     -49.392  12.388  23.404  0.00  0.00     0.088 A 
ATOM     14  C   UNL d   1     -49.719  11.604  23.652  0.00  0.00     0.020 A 
ATOM     15  C   UNL d   1     -49.864  13.039  23.218  0.00  0.00     0.049 A 
ATOM     16  C   UNL d   1     -50.547  11.528  23.697  0.00  0.00     0.002 A 
ATOM     17  C   UNL d   1     -51.059  12.209  23.503  0.00  0.00     0.001 A 
ATOM     18  C   UNL d   1     -50.708  12.929  23.274  0.00  0.00     0.008 A 
ATOM     19  S   UNL d   1     -49.360  13.627  23.025  0.00  0.00    -0.060 SA
ENDBRANCH  10  11
ENDBRANCH   9  10
ENDBRANCH   2   9
BRANCH   3  20
ATOM     20  C   UNL d   1     -43.680  12.513  21.793  0.00  0.00     0.297 C 
ATOM     21  O   UNL d   1     -43.470  11.862  22.215  0.00  0.00    -0.264 OA
ATOM     22  N   UNL d   1     -43.258  12.837  21.196  0.00  0.00    -0.102 N 
ENDBRANCH   3  20
TORSDOF 4
ENDMDL
MODEL 3
REMARK VINA RESULT:      -5.5      1.555      5.186
REMARK  4 active torsions:
REMARK  status: ('A' for Active; 'I' for Inactive)
REMARK    1  A    between atoms: S_9  and  C_1 
REMARK       I    between atoms: N_4  and  C_5 
REMARK    2  A    between atoms: C_5  and  C_13 
REMARK    3  A    between atoms: C_8  and  C_10 
REMARK    4  A    between atoms: C_13  and  S_9 
ROOT
ATOM      1  N   UNL d   1     -48.135  14.388  22.800  0.00  0.00    -0.272 N 
ATOM      2  C   UNL d   1     -47.364  14.232  22.817  0.00  0.00     0.271 C 
ATOM      3  C   UNL d   1     -49.732  14.678  22.770  0.00  0.00     0.062 A 
ATOM      4  C   UNL d   1     -48.665  13.803  22.893  0.00  0.00     0.083 A 
ATOM      5  C   UNL d   1     -48.460  15.149  22.688  0.00  0.00     0.083 A 
ATOM      6  O   UNL d   1     -46.855  14.808  22.726  0.00  0.00    -0.266 OA
ATOM      7  C   UNL d   1     -49.457  13.922  22.882  0.00  0.00     0.024 A 
ATOM      8  C   UNL d   1     -49.244  15.316  22.670  0.00  0.00     0.024 A 
ENDROOT
BRANCH   2   9
ATOM      9  C   UNL d   1     -47.069  13.473  22.930  0.00  0.00     0.098 C 
BRANCH   9  10
ATOM     10  S   UNL d   1     -46.359  13.275  22.518  0.00  0.00    -0.056 SA
BRANCH  10  11
ATOM     11  C   UNL d   1     -45.956  12.610  22.753  0.00  0.00     0.141 A 
ATOM     12  N   UNL d   1     -46.273  11.997  23.172  0.00  0.00    -0.232 NA
ATOM     13  C   UNL d   1     -45.600  11.468  23.255  0.00  0.00     0.088 A 
ATOM     14  C   UNL d   1     -45.614  10.688  23.674  0.00  0.00     0.020 A 
ATOM     15  C   UNL d   1     -44.927  11.777  22.892  0.00  0.00     0.049 A 
ATOM     16  C   UNL d   1     -44.905  10.250  23.698  0.00  0.00     0.002 A 
ATOM     17  C   UNL d   1     -44.184  10.566  23.317  0.00  0.00     0.001 A 
ATOM     18  C   UNL d   1     -44.217  11.305  22.934  0.00  0.00     0.008 A 
ATOM     19  S   UNL d   1     -45.148  12.479  22.584  0.00  0.00    -0.060 SA
ENDBRANCH  10  11
ENDBRANCH   9  10
ENDBRANCH   2   9
BRANCH   3  20
ATOM     20  C   UNL d   1     -50.585  14.806  22.758  0.00  0.00     0.297 C 
ATOM     21  O   UNL d   1     -50.843  15.543  22.566  0.00  0.00    -0.264 OA
ATOM     22  N   UNL d   1     -51.053  14.182  22.938  0.00  0.00    -0.102 N 
ENDBRANCH   3  20
TORSDOF 4
ENDMDL
