MODEL 1
REMARK VINA RESULT:      -4.3      0.000      0.000
REMARK  4 active torsions:
REMARK  status: ('A' for Active; 'I' for Inactive)
REMARK    1  A    between atoms: C_2  and  S_1 
REMARK    2  A    between atoms: N_3  and  S_1 
REMARK    3  A    between atoms: C_4  and  N_3 
REMARK    4  A    between atoms: O_12  and  C_10 
ROOT
ATOM      1  N   UNL d   1     -41.895-123.520 -50.874  0.00  0.00    -0.156 NA
ENDROOT
BRANCH   1   2
ATOM      2  S   UNL d   1     -42.014-123.434 -50.028  0.00  0.00     0.291 S 
ATOM      3  O   UNL d   1     -41.237-123.694 -49.898  0.00  0.00    -0.198 OA
ATOM      4  O   UNL d   1     -42.789-123.174 -50.164  0.00  0.00    -0.198 OA
BRANCH   2   5
ATOM      5  C   UNL d   1     -42.129-123.351 -49.211  0.00  0.00     0.135 A 
ATOM      6  S   UNL d   1     -41.604-123.400 -48.590  0.00  0.00    -0.073 SA
ATOM      7  C   UNL d   1     -42.030-123.271 -47.917  0.00  0.00     0.036 A 
ATOM      8  C   UNL d   1     -42.790-123.145 -48.112  0.00  0.00     0.008 A 
ATOM      9  C   UNL d   1     -42.886-123.189 -48.916  0.00  0.00     0.020 A 
ENDBRANCH   2   5
ENDBRANCH   1   2
BRANCH   1  10
ATOM     10  C   UNL d   1     -41.633-122.845 -51.333  0.00  0.00     0.116 A 
ATOM     11  C   UNL d   1     -41.472-122.938 -52.178  0.00  0.00     0.112 A 
ATOM     12  C   UNL d   1     -41.233-122.342 -52.616  0.00  0.00     0.026 A 
ATOM     13  C   UNL d   1     -41.123-121.585 -52.287  0.00  0.00     0.002 A 
ATOM     14  C   UNL d   1     -41.269-121.471 -51.484  0.00  0.00     0.002 A 
ATOM     15  C   UNL d   1     -41.527-122.113 -51.009  0.00  0.00     0.022 A 
BRANCH  11  16
ATOM     16  O   UNL d   1     -41.570-123.686 -52.556  0.00  0.00    -0.327 OA
ATOM     17  C   UNL d   1     -41.289-123.811 -53.301  0.00  0.00     0.181 C 
ENDBRANCH  11  16
ENDBRANCH   1  10
TORSDOF 4
ENDMDL
MODEL 2
REMARK VINA RESULT:      -4.3      2.557      4.531
REMARK  4 active torsions:
REMARK  status: ('A' for Active; 'I' for Inactive)
REMARK    1  A    between atoms: C_2  and  S_1 
REMARK    2  A    between atoms: N_3  and  S_1 
REMARK    3  A    between atoms: C_4  and  N_3 
REMARK    4  A    between atoms: O_12  and  C_10 
ROOT
ATOM      1  N   UNL d   1     -41.941-121.813 -53.023  0.00  0.00    -0.156 NA
ENDROOT
BRANCH   1   2
ATOM      2  S   UNL d   1     -42.021-121.861 -53.875  0.00  0.00     0.291 S 
ATOM      3  O   UNL d   1     -42.796-122.142 -53.781  0.00  0.00    -0.198 OA
ATOM      4  O   UNL d   1     -41.246-121.580 -53.963  0.00  0.00    -0.198 OA
BRANCH   2   5
ATOM      5  C   UNL d   1     -42.098-121.907 -54.700  0.00  0.00     0.135 A 
ATOM      6  S   UNL d   1     -41.534-121.924 -55.288  0.00  0.00    -0.073 SA
ATOM      7  C   UNL d   1     -41.933-121.972 -55.988  0.00  0.00     0.036 A 
ATOM      8  C   UNL d   1     -42.714-121.985 -55.841  0.00  0.00     0.008 A 
ATOM      9  C   UNL d   1     -42.851-121.945 -55.043  0.00  0.00     0.020 A 
ENDBRANCH   2   5
ENDBRANCH   1   2
BRANCH   1  10
ATOM     10  C   UNL d   1     -41.658-122.495 -52.587  0.00  0.00     0.116 A 
ATOM     11  C   UNL d   1     -41.648-122.477 -51.722  0.00  0.00     0.112 A 
ATOM     12  C   UNL d   1     -41.396-123.083 -51.304  0.00  0.00     0.026 A 
ATOM     13  C   UNL d   1     -41.124-123.776 -51.676  0.00  0.00     0.002 A 
ATOM     14  C   UNL d   1     -41.123-123.817 -52.499  0.00  0.00     0.002 A 
ATOM     15  C   UNL d   1     -41.394-123.165 -52.951  0.00  0.00     0.022 A 
BRANCH  11  16
ATOM     16  O   UNL d   1     -41.915-121.796 -51.302  0.00  0.00    -0.327 OA
ATOM     17  C   UNL d   1     -42.001-121.814 -50.500  0.00  0.00     0.181 C 
ENDBRANCH  11  16
ENDBRANCH   1  10
TORSDOF 4
ENDMDL
MODEL 3
REMARK VINA RESULT:      -4.1      1.604      2.354
REMARK  4 active torsions:
REMARK  status: ('A' for Active; 'I' for Inactive)
REMARK    1  A    between atoms: C_2  and  S_1 
REMARK    2  A    between atoms: N_3  and  S_1 
REMARK    3  A    between atoms: C_4  and  N_3 
REMARK    4  A    between atoms: O_12  and  C_10 
ROOT
ATOM      1  N   UNL d   1     -41.846-121.933 -52.581  0.00  0.00    -0.156 NA
ENDROOT
BRANCH   1   2
ATOM      2  S   UNL d   1     -41.903-122.143 -51.751  0.00  0.00     0.291 S 
ATOM      3  O   UNL d   1     -42.683-122.396 -51.875  0.00  0.00    -0.198 OA
ATOM      4  O   UNL d   1     -41.123-121.888 -51.633  0.00  0.00    -0.198 OA
BRANCH   2   5
ATOM      5  C   UNL d   1     -41.958-122.346 -50.949  0.00  0.00     0.135 A 
ATOM      6  S   UNL d   1     -41.510-122.853 -50.495  0.00  0.00    -0.073 SA
ATOM      7  C   UNL d   1     -41.819-122.830 -49.750  0.00  0.00     0.036 A 
ATOM      8  C   UNL d   1     -42.436-122.329 -49.741  0.00  0.00     0.008 A 
ATOM      9  C   UNL d   1     -42.550-122.008 -50.478  0.00  0.00     0.020 A 
ENDBRANCH   2   5
ENDBRANCH   1   2
BRANCH   1  10
ATOM     10  C   UNL d   1     -41.632-122.534 -53.155  0.00  0.00     0.116 A 
ATOM     11  C   UNL d   1     -41.748-122.382 -53.998  0.00  0.00     0.112 A 
ATOM     12  C   UNL d   1     -41.562-122.910 -54.537  0.00  0.00     0.026 A 
ATOM     13  C   UNL d   1     -41.243-123.648 -54.322  0.00  0.00     0.002 A 
ATOM     14  C   UNL d   1     -41.123-123.817 -53.524  0.00  0.00     0.002 A 
ATOM     15  C   UNL d   1     -41.323-123.248 -52.941  0.00  0.00     0.022 A 
BRANCH  11  16
ATOM     16  O   UNL d   1     -42.069-121.648 -54.264  0.00  0.00    -0.327 OA
ATOM     17  C   UNL d   1     -42.246-121.533 -55.042  0.00  0.00     0.181 C 
ENDBRANCH  11  16
ENDBRANCH   1  10
TORSDOF 4
ENDMDL
MODEL 4
REMARK VINA RESULT:      -3.5      1.829      2.604
REMARK  4 active torsions:
REMARK  status: ('A' for Active; 'I' for Inactive)
REMARK    1  A    between atoms: C_2  and  S_1 
REMARK    2  A    between atoms: N_3  and  S_1 
REMARK    3  A    between atoms: C_4  and  N_3 
REMARK    4  A    between atoms: O_12  and  C_10 
ROOT
ATOM      1  N   UNL d   1     -41.128-122.560 -53.100  0.00  0.00    -0.156 NA
ENDROOT
BRANCH   1   2
ATOM      2  S   UNL d   1     -41.404-122.536 -52.288  0.00  0.00     0.291 S 
ATOM      3  O   UNL d   1     -41.614-123.336 -52.341  0.00  0.00    -0.198 OA
ATOM      4  O   UNL d   1     -41.193-121.735 -52.241  0.00  0.00    -0.198 OA
BRANCH   2   5
ATOM      5  C   UNL d   1     -41.671-122.511 -51.503  0.00  0.00     0.135 A 
ATOM      6  S   UNL d   1     -42.028-121.915 -51.079  0.00  0.00    -0.073 SA
ATOM      7  C   UNL d   1     -42.164-122.207 -50.339  0.00  0.00     0.036 A 
ATOM      8  C   UNL d   1     -41.902-122.957 -50.304  0.00  0.00     0.008 A 
ATOM      9  C   UNL d   1     -41.586-123.178 -51.018  0.00  0.00     0.020 A 
ENDBRANCH   2   5
ENDBRANCH   1   2
BRANCH   1  10
ATOM     10  C   UNL d   1     -41.647-122.295 -53.730  0.00  0.00     0.116 A 
ATOM     11  C   UNL d   1     -41.651-122.713 -54.486  0.00  0.00     0.112 A 
ATOM     12  C   UNL d   1     -42.112-122.492 -55.072  0.00  0.00     0.026 A 
ATOM     13  C   UNL d   1     -42.623-121.840 -54.993  0.00  0.00     0.002 A 
ATOM     14  C   UNL d   1     -42.637-121.424 -54.282  0.00  0.00     0.002 A 
ATOM     15  C   UNL d   1     -42.141-121.661 -53.648  0.00  0.00     0.022 A 
BRANCH  11  16
ATOM     16  O   UNL d   1     -41.150-123.381 -54.613  0.00  0.00    -0.327 OA
ATOM     17  C   UNL d   1     -41.125-123.746 -55.331  0.00  0.00     0.181 C 
ENDBRANCH  11  16
ENDBRANCH   1  10
TORSDOF 4
ENDMDL
