MODEL 1
REMARK VINA RESULT:      -3.2      0.000      0.000
REMARK  2 active torsions:
REMARK  status: ('A' for Active; 'I' for Inactive)
REMARK    1  A    between atoms: N_2  and  S_1 
REMARK    2  A    between atoms: C_4  and  S_1 
ROOT
ATOM      1  N   UNL d   1      31.462  16.132 -24.263  0.00  0.00    -0.231 N 
ATOM      2  C   UNL d   1      31.958  16.777 -24.094  0.00  0.00     0.075 A 
ATOM      3  C   UNL d   1      32.762  16.766 -24.300  0.00  0.00     0.017 A 
ATOM      4  C   UNL d   1      31.787  15.463 -24.648  0.00  0.00     0.092 A 
ATOM      5  C   UNL d   1      31.633  17.446 -23.708  0.00  0.00     0.018 A 
ATOM      6  C   UNL d   1      32.591  15.453 -24.855  0.00  0.00     0.020 A 
ATOM      7  C   UNL d   1      33.071  16.111 -24.676  0.00  0.00     0.003 A 
ATOM      8  C   UNL d   1      33.241  17.420 -24.123  0.00  0.00     0.002 A 
ATOM      9  C   UNL d   1      32.119  18.091 -23.537  0.00  0.00     0.002 A 
ATOM     10  C   UNL d   1      32.924  18.080 -23.743  0.00  0.00     0.000 A 
ENDROOT
BRANCH   1  11
ATOM     11  S   UNL d   1      30.658  16.152 -24.053  0.00  0.00     0.271 S 
ATOM     12  O   UNL d   1      30.800  15.886 -23.339  0.00  0.00    -0.200 OA
ATOM     13  O   UNL d   1      30.459  16.438 -24.807  0.00  0.00    -0.200 OA
BRANCH  11  14
ATOM     14  C   UNL d   1      29.911  16.168 -23.853  0.00  0.00     0.104 A 
ATOM     15  C   UNL d   1      29.404  16.572 -24.279  0.00  0.00     0.015 A 
ATOM     16  C   UNL d   1      28.657  16.586 -24.076  0.00  0.00     0.022 A 
ATOM     17  C   UNL d   1      28.415  16.198 -23.450  0.00  0.00     0.103 A 
ATOM     18  C   UNL d   1      28.931  15.794 -23.027  0.00  0.00     0.022 A 
ATOM     19  N   UNL d   1      27.642  16.210 -23.236  0.00  0.00    -0.148 N 
ATOM     20  C   UNL d   1      29.670  15.778 -23.224  0.00  0.00     0.015 A 
ENDBRANCH  11  14
ENDBRANCH   1  11
TORSDOF 2
ENDMDL
MODEL 2
REMARK VINA RESULT:      -2.6      1.858      3.544
REMARK  2 active torsions:
REMARK  status: ('A' for Active; 'I' for Inactive)
REMARK    1  A    between atoms: N_2  and  S_1 
REMARK    2  A    between atoms: C_4  and  S_1 
ROOT
ATOM      1  N   UNL d   1      32.415  16.933 -24.195  0.00  0.00    -0.231 N 
ATOM      2  C   UNL d   1      31.654  16.767 -24.483  0.00  0.00     0.075 A 
ATOM      3  C   UNL d   1      31.471  16.027 -24.812  0.00  0.00     0.017 A 
ATOM      4  C   UNL d   1      33.003  16.338 -24.241  0.00  0.00     0.092 A 
ATOM      5  C   UNL d   1      31.067  17.363 -24.437  0.00  0.00     0.018 A 
ATOM      6  C   UNL d   1      32.820  15.598 -24.570  0.00  0.00     0.020 A 
ATOM      7  C   UNL d   1      32.050  15.453 -24.853  0.00  0.00     0.003 A 
ATOM      8  C   UNL d   1      30.706  15.880 -25.094  0.00  0.00     0.002 A 
ATOM      9  C   UNL d   1      30.307  17.205 -24.721  0.00  0.00     0.002 A 
ATOM     10  C   UNL d   1      30.124  16.464 -25.051  0.00  0.00     0.000 A 
ENDROOT
BRANCH   1  11
ATOM     11  S   UNL d   1      32.590  17.677 -23.867  0.00  0.00     0.271 S 
ATOM     12  O   UNL d   1      32.319  17.474 -23.170  0.00  0.00    -0.200 OA
ATOM     13  O   UNL d   1      32.891  17.938 -24.596  0.00  0.00    -0.200 OA
BRANCH  11  14
ATOM     14  C   UNL d   1      32.751  18.368 -23.558  0.00  0.00     0.104 A 
ATOM     15  C   UNL d   1      32.757  18.456 -22.787  0.00  0.00     0.015 A 
ATOM     16  C   UNL d   1      32.919  19.149 -22.482  0.00  0.00     0.022 A 
ATOM     17  C   UNL d   1      33.073  19.753 -22.943  0.00  0.00     0.103 A 
ATOM     18  C   UNL d   1      33.064  19.655 -23.717  0.00  0.00     0.022 A 
ATOM     19  N   UNL d   1      33.241  20.472 -22.631  0.00  0.00    -0.148 N 
ATOM     20  C   UNL d   1      32.905  18.972 -24.023  0.00  0.00     0.015 A 
ENDBRANCH  11  14
ENDBRANCH   1  11
TORSDOF 2
ENDMDL
MODEL 3
REMARK VINA RESULT:      -1.9      1.339      3.565
REMARK  2 active torsions:
REMARK  status: ('A' for Active; 'I' for Inactive)
REMARK    1  A    between atoms: N_2  and  S_1 
REMARK    2  A    between atoms: C_4  and  S_1 
ROOT
ATOM      1  N   UNL d   1      30.631  16.581 -23.602  0.00  0.00    -0.231 N 
ATOM      2  C   UNL d   1      29.856  16.572 -23.902  0.00  0.00     0.075 A 
ATOM      3  C   UNL d   1      29.301  16.013 -23.641  0.00  0.00     0.017 A 
ATOM      4  C   UNL d   1      30.847  16.012 -23.025  0.00  0.00     0.092 A 
ATOM      5  C   UNL d   1      29.641  17.140 -24.478  0.00  0.00     0.018 A 
ATOM      6  C   UNL d   1      30.291  15.453 -22.764  0.00  0.00     0.020 A 
ATOM      7  C   UNL d   1      29.519  15.463 -23.079  0.00  0.00     0.003 A 
ATOM      8  C   UNL d   1      28.532  16.020 -23.953  0.00  0.00     0.002 A 
ATOM      9  C   UNL d   1      28.873  17.138 -24.782  0.00  0.00     0.002 A 
ATOM     10  C   UNL d   1      28.317  16.579 -24.521  0.00  0.00     0.000 A 
ENDROOT
BRANCH   1  11
ATOM     11  S   UNL d   1      31.181  17.143 -23.869  0.00  0.00     0.271 S 
ATOM     12  O   UNL d   1      30.792  17.731 -23.547  0.00  0.00    -0.200 OA
ATOM     13  O   UNL d   1      31.631  16.545 -24.230  0.00  0.00    -0.200 OA
BRANCH  11  14
ATOM     14  C   UNL d   1      31.691  17.671 -24.115  0.00  0.00     0.104 A 
ATOM     15  C   UNL d   1      31.930  17.664 -24.853  0.00  0.00     0.015 A 
ATOM     16  C   UNL d   1      32.440  18.193 -25.096  0.00  0.00     0.022 A 
ATOM     17  C   UNL d   1      32.712  18.728 -24.605  0.00  0.00     0.103 A 
ATOM     18  C   UNL d   1      32.467  18.728 -23.864  0.00  0.00     0.022 A 
ATOM     19  N   UNL d   1      33.241  19.278 -24.852  0.00  0.00    -0.148 N 
ATOM     20  C   UNL d   1      31.963  18.206 -23.620  0.00  0.00     0.015 A 
ENDBRANCH  11  14
ENDBRANCH   1  11
TORSDOF 2
ENDMDL
MODEL 4
REMARK VINA RESULT:      -1.8      5.177      6.723
REMARK  2 active torsions:
REMARK  status: ('A' for Active; 'I' for Inactive)
REMARK    1  A    between atoms: N_2  and  S_1 
REMARK    2  A    between atoms: C_4  and  S_1 
ROOT
ATOM      1  N   UNL d   1      32.449  22.285 -21.233  0.00  0.00    -0.231 N 
ATOM      2  C   UNL d   1      32.655  22.372 -20.433  0.00  0.00     0.075 A 
ATOM      3  C   UNL d   1      32.492  23.074 -20.021  0.00  0.00     0.017 A 
ATOM      4  C   UNL d   1      32.071  22.923 -21.623  0.00  0.00     0.092 A 
ATOM      5  C   UNL d   1      33.033  21.734 -20.042  0.00  0.00     0.018 A 
ATOM      6  C   UNL d   1      31.908  23.625 -21.211  0.00  0.00     0.020 A 
ATOM      7  C   UNL d   1      32.124  23.690 -20.408  0.00  0.00     0.003 A 
ATOM      8  C   UNL d   1      32.706  23.141 -19.222  0.00  0.00     0.002 A 
ATOM      9  C   UNL d   1      33.241  21.812 -19.247  0.00  0.00     0.002 A 
ATOM     10  C   UNL d   1      33.078  22.515 -18.834  0.00  0.00     0.000 A 
ENDROOT
BRANCH   1  11
ATOM     11  S   UNL d   1      32.615  21.579 -21.638  0.00  0.00     0.271 S 
ATOM     12  O   UNL d   1      32.102  21.175 -21.220  0.00  0.00    -0.200 OA
ATOM     13  O   UNL d   1      33.176  21.971 -22.110  0.00  0.00    -0.200 OA
BRANCH  11  14
ATOM     14  C   UNL d   1      32.767  20.918 -22.012  0.00  0.00     0.104 A 
ATOM     15  C   UNL d   1      32.600  20.237 -21.682  0.00  0.00     0.015 A 
ATOM     16  C   UNL d   1      32.753  19.579 -22.059  0.00  0.00     0.022 A 
ATOM     17  C   UNL d   1      33.073  19.600 -22.765  0.00  0.00     0.103 A 
ATOM     18  C   UNL d   1      33.238  20.289 -23.091  0.00  0.00     0.022 A 
ATOM     19  N   UNL d   1      33.234  18.921 -23.161  0.00  0.00    -0.148 N 
ATOM     20  C   UNL d   1      33.088  20.942 -22.721  0.00  0.00     0.015 A 
ENDBRANCH  11  14
ENDBRANCH   1  11
TORSDOF 2
ENDMDL
MODEL 5
REMARK VINA RESULT:      -0.9      7.157      8.439
REMARK  2 active torsions:
REMARK  status: ('A' for Active; 'I' for Inactive)
REMARK    1  A    between atoms: N_2  and  S_1 
REMARK    2  A    between atoms: C_4  and  S_1 
ROOT
ATOM      1  N   UNL d   1      32.742  23.053 -20.018  0.00  0.00    -0.231 N 
ATOM      2  C   UNL d   1      32.453  22.365 -20.383  0.00  0.00     0.075 A 
ATOM      3  C   UNL d   1      32.522  22.251 -21.202  0.00  0.00     0.017 A 
ATOM      4  C   UNL d   1      33.109  23.638 -20.494  0.00  0.00     0.092 A 
ATOM      5  C   UNL d   1      32.086  21.781 -19.907  0.00  0.00     0.018 A 
ATOM      6  C   UNL d   1      33.178  23.524 -21.313  0.00  0.00     0.020 A 
ATOM      7  C   UNL d   1      32.880  22.825 -21.658  0.00  0.00     0.003 A 
ATOM      8  C   UNL d   1      32.227  21.557 -21.547  0.00  0.00     0.002 A 
ATOM      9  C   UNL d   1      31.796  21.093 -20.262  0.00  0.00     0.002 A 
ATOM     10  C   UNL d   1      31.865  20.979 -21.082  0.00  0.00     0.000 A 
ENDROOT
BRANCH   1  11
ATOM     11  S   UNL d   1      32.669  23.159 -19.197  0.00  0.00     0.271 S 
ATOM     12  O   UNL d   1      33.240  22.659 -19.045  0.00  0.00    -0.200 OA
ATOM     13  O   UNL d   1      32.050  23.702 -19.314  0.00  0.00    -0.200 OA
BRANCH  11  14
ATOM     14  C   UNL d   1      32.603  23.255 -18.432  0.00  0.00     0.104 A 
ATOM     15  C   UNL d   1      33.170  23.013 -17.961  0.00  0.00     0.015 A 
ATOM     16  C   UNL d   1      33.101  23.111 -17.196  0.00  0.00     0.022 A 
ATOM     17  C   UNL d   1      32.470  23.449 -16.901  0.00  0.00     0.103 A 
ATOM     18  C   UNL d   1      31.904  23.690 -17.382  0.00  0.00     0.022 A 
ATOM     19  N   UNL d   1      32.394  23.553 -16.109  0.00  0.00    -0.148 N 
ATOM     20  C   UNL d   1      31.968  23.595 -18.138  0.00  0.00     0.015 A 
ENDBRANCH  11  14
ENDBRANCH   1  11
TORSDOF 2
ENDMDL
MODEL 6
REMARK VINA RESULT:      -0.8      3.987      5.541
REMARK  2 active torsions:
REMARK  status: ('A' for Active; 'I' for Inactive)
REMARK    1  A    between atoms: N_2  and  S_1 
REMARK    2  A    between atoms: C_4  and  S_1 
ROOT
ATOM      1  N   UNL d   1      32.623  20.979 -21.603  0.00  0.00    -0.231 N 
ATOM      2  C   UNL d   1      32.792  21.704 -21.972  0.00  0.00     0.075 A 
ATOM      3  C   UNL d   1      32.709  22.422 -21.565  0.00  0.00     0.017 A 
ATOM      4  C   UNL d   1      32.365  20.983 -20.805  0.00  0.00     0.092 A 
ATOM      5  C   UNL d   1      33.050  21.700 -22.769  0.00  0.00     0.018 A 
ATOM      6  C   UNL d   1      32.282  21.702 -20.399  0.00  0.00     0.020 A 
ATOM      7  C   UNL d   1      32.457  22.417 -20.789  0.00  0.00     0.003 A 
ATOM      8  C   UNL d   1      32.883  23.136 -21.951  0.00  0.00     0.002 A 
ATOM      9  C   UNL d   1      33.221  22.416 -23.143  0.00  0.00     0.002 A 
ATOM     10  C   UNL d   1      33.138  23.136 -22.736  0.00  0.00     0.000 A 
ENDROOT
BRANCH   1  11
ATOM     11  S   UNL d   1      32.709  20.263 -22.017  0.00  0.00     0.271 S 
ATOM     12  O   UNL d   1      32.218  20.485 -22.574  0.00  0.00    -0.200 OA
ATOM     13  O   UNL d   1      33.241  19.984 -21.443  0.00  0.00    -0.200 OA
BRANCH  11  14
ATOM     14  C   UNL d   1      32.786  19.599 -22.406  0.00  0.00     0.104 A 
ATOM     15  C   UNL d   1      32.488  19.530 -23.119  0.00  0.00     0.015 A 
ATOM     16  C   UNL d   1      32.568  18.864 -23.505  0.00  0.00     0.022 A 
ATOM     17  C   UNL d   1      32.942  18.267 -23.182  0.00  0.00     0.103 A 
ATOM     18  C   UNL d   1      33.238  18.344 -22.464  0.00  0.00     0.022 A 
ATOM     19  N   UNL d   1      33.027  17.575 -23.578  0.00  0.00    -0.148 N 
ATOM     20  C   UNL d   1      33.162  19.001 -22.079  0.00  0.00     0.015 A 
ENDBRANCH  11  14
ENDBRANCH   1  11
TORSDOF 2
ENDMDL
MODEL 7
REMARK VINA RESULT:      -0.7      5.841      7.156
REMARK  2 active torsions:
REMARK  status: ('A' for Active; 'I' for Inactive)
REMARK    1  A    between atoms: N_2  and  S_1 
REMARK    2  A    between atoms: C_4  and  S_1 
ROOT
ATOM      1  N   UNL d   1      32.655  22.040 -21.416  0.00  0.00    -0.231 N 
ATOM      2  C   UNL d   1      32.849  21.237 -21.498  0.00  0.00     0.075 A 
ATOM      3  C   UNL d   1      32.886  20.878 -22.246  0.00  0.00     0.017 A 
ATOM      4  C   UNL d   1      32.494  22.489 -22.105  0.00  0.00     0.092 A 
ATOM      5  C   UNL d   1      33.010  20.788 -20.809  0.00  0.00     0.018 A 
ATOM      6  C   UNL d   1      32.531  22.131 -22.853  0.00  0.00     0.020 A 
ATOM      7  C   UNL d   1      32.728  21.323 -22.912  0.00  0.00     0.003 A 
ATOM      8  C   UNL d   1      33.082  20.075 -22.308  0.00  0.00     0.002 A 
ATOM      9  C   UNL d   1      33.204  19.988 -20.883  0.00  0.00     0.002 A 
ATOM     10  C   UNL d   1      33.240  19.630 -21.631  0.00  0.00     0.000 A 
ENDROOT
BRANCH   1  11
ATOM     11  S   UNL d   1      32.620  22.391 -20.663  0.00  0.00     0.271 S 
ATOM     12  O   UNL d   1      32.041  21.931 -20.434  0.00  0.00    -0.200 OA
ATOM     13  O   UNL d   1      33.241  22.906 -20.865  0.00  0.00    -0.200 OA
BRANCH  11  14
ATOM     14  C   UNL d   1      32.585  22.716 -19.961  0.00  0.00     0.104 A 
ATOM     15  C   UNL d   1      31.968  23.140 -19.761  0.00  0.00     0.015 A 
ATOM     16  C   UNL d   1      31.936  23.462 -19.058  0.00  0.00     0.022 A 
ATOM     17  C   UNL d   1      32.518  23.363 -18.556  0.00  0.00     0.103 A 
ATOM     18  C   UNL d   1      33.136  22.935 -18.765  0.00  0.00     0.022 A 
ATOM     19  N   UNL d   1      32.490  23.695 -17.826  0.00  0.00    -0.148 N 
ATOM     20  C   UNL d   1      33.171  22.614 -19.459  0.00  0.00     0.015 A 
ENDBRANCH  11  14
ENDBRANCH   1  11
TORSDOF 2
ENDMDL
