MODEL 1
REMARK VINA RESULT:      -9.9      0.000      0.000
REMARK  2 active torsions:
REMARK  status: ('A' for Active; 'I' for Inactive)
REMARK    1  A    between atoms: C_3  and  C_1 
REMARK       I    between atoms: N_7  and  C_3 
REMARK    2  A    between atoms: C_11  and  N_7 
ROOT
ATOM      1  C   UNL d   1      52.438  33.329  53.436  0.00  0.00     0.121 A 
ATOM      2  C   UNL d   1      52.895  32.711  53.129  0.00  0.00     0.305 A 
ATOM      3  C   UNL d   1      52.745  33.793  54.039  0.00  0.00     0.012 A 
ATOM      4  O   UNL d   1      53.650  32.556  53.419  0.00  0.00    -0.273 OA
ATOM      5  C   UNL d   1      53.500  33.649  54.340  0.00  0.00     0.023 A 
ATOM      6  C   UNL d   1      53.951  33.026  54.025  0.00  0.00     0.103 A 
ATOM      7  O   UNL d   1      52.585  32.235  52.513  0.00  0.00    -0.259 OA
ATOM      8  C   UNL d   1      53.810  34.113  54.945  0.00  0.00     0.002 A 
ATOM      9  C   UNL d   1      54.711  32.877  54.323  0.00  0.00     0.025 A 
ATOM     10  C   UNL d   1      54.551  33.967  55.235  0.00  0.00     0.000 A 
ATOM     11  C   UNL d   1      55.002  33.344  54.920  0.00  0.00     0.002 A 
ENDROOT
BRANCH   1  12
ATOM     12  C   UNL d   1      51.680  33.479  53.139  0.00  0.00     0.284 C 
ATOM     13  N   UNL d   1      51.537  34.189  52.734  0.00  0.00    -0.208 NA
ATOM     14  O   UNL d   1      51.088  32.926  53.249  0.00  0.00    -0.265 OA
BRANCH  13  15
ATOM     15  C   UNL d   1      50.773  34.330  52.440  0.00  0.00     0.085 A 
ATOM     16  C   UNL d   1      50.162  34.588  52.939  0.00  0.00     0.021 A 
ATOM     17  C   UNL d   1      49.415  34.723  52.637  0.00  0.00     0.031 A 
ATOM     18  C   UNL d   1      49.261  34.605  51.840  0.00  0.00     0.140 A 
ATOM     19  C   UNL d   1      49.867  34.346  51.334  0.00  0.00     0.031 A 
ATOM     20  F   UNL d   1      48.516  34.740  51.541  0.00  0.00    -0.204 F 
ATOM     21  C   UNL d   1      50.627  34.208  51.637  0.00  0.00     0.021 A 
ENDBRANCH  13  15
ENDBRANCH   1  12
TORSDOF 2
ENDMDL
MODEL 2
REMARK VINA RESULT:      -9.8      2.311      3.503
REMARK  2 active torsions:
REMARK  status: ('A' for Active; 'I' for Inactive)
REMARK    1  A    between atoms: C_3  and  C_1 
REMARK       I    between atoms: N_7  and  C_3 
REMARK    2  A    between atoms: C_11  and  N_7 
ROOT
ATOM      1  C   UNL d   1      53.160  31.927  53.439  0.00  0.00     0.121 A 
ATOM      2  C   UNL d   1      52.802  31.653  52.745  0.00  0.00     0.305 A 
ATOM      3  C   UNL d   1      53.400  31.386  54.007  0.00  0.00     0.012 A 
ATOM      4  O   UNL d   1      52.685  30.847  52.618  0.00  0.00    -0.273 OA
ATOM      5  C   UNL d   1      53.289  30.577  53.893  0.00  0.00     0.023 A 
ATOM      6  C   UNL d   1      52.929  30.310  53.193  0.00  0.00     0.103 A 
ATOM      7  O   UNL d   1      52.555  32.202  52.162  0.00  0.00    -0.259 OA
ATOM      8  C   UNL d   1      53.530  30.032  54.463  0.00  0.00     0.002 A 
ATOM      9  C   UNL d   1      52.814  29.498  53.073  0.00  0.00     0.025 A 
ATOM     10  C   UNL d   1      53.417  29.240  54.344  0.00  0.00     0.000 A 
ATOM     11  C   UNL d   1      53.057  28.974  53.644  0.00  0.00     0.002 A 
ENDROOT
BRANCH   1  12
ATOM     12  C   UNL d   1      53.275  32.738  53.559  0.00  0.00     0.284 C 
ATOM     13  N   UNL d   1      52.752  33.152  54.053  0.00  0.00    -0.208 NA
ATOM     14  O   UNL d   1      53.900  33.115  53.192  0.00  0.00    -0.265 OA
BRANCH  13  15
ATOM     15  C   UNL d   1      52.876  33.965  54.167  0.00  0.00     0.085 A 
ATOM     16  C   UNL d   1      52.551  34.526  53.649  0.00  0.00     0.021 A 
ATOM     17  C   UNL d   1      52.680  35.324  53.773  0.00  0.00     0.031 A 
ATOM     18  C   UNL d   1      53.131  35.578  54.408  0.00  0.00     0.140 A 
ATOM     19  C   UNL d   1      53.460  35.023  54.932  0.00  0.00     0.031 A 
ATOM     20  F   UNL d   1      53.259  36.372  54.531  0.00  0.00    -0.204 F 
ATOM     21  C   UNL d   1      53.330  34.212  54.809  0.00  0.00     0.021 A 
ENDBRANCH  13  15
ENDBRANCH   1  12
TORSDOF 2
ENDMDL
MODEL 3
REMARK VINA RESULT:      -9.5      1.161      1.580
REMARK  2 active torsions:
REMARK  status: ('A' for Active; 'I' for Inactive)
REMARK    1  A    between atoms: C_3  and  C_1 
REMARK       I    between atoms: N_7  and  C_3 
REMARK    2  A    between atoms: C_11  and  N_7 
ROOT
ATOM      1  C   UNL d   1      52.531  34.323  53.694  0.00  0.00     0.121 A 
ATOM      2  C   UNL d   1      52.863  34.943  54.129  0.00  0.00     0.305 A 
ATOM      3  C   UNL d   1      52.824  33.563  53.792  0.00  0.00     0.012 A 
ATOM      4  O   UNL d   1      53.482  34.809  54.656  0.00  0.00    -0.273 OA
ATOM      5  C   UNL d   1      53.442  33.414  54.316  0.00  0.00     0.023 A 
ATOM      6  C   UNL d   1      53.770  34.043  54.749  0.00  0.00     0.103 A 
ATOM      7  O   UNL d   1      52.567  35.722  54.032  0.00  0.00    -0.259 OA
ATOM      8  C   UNL d   1      53.738  32.651  54.416  0.00  0.00     0.002 A 
ATOM      9  C   UNL d   1      54.393  33.899  55.278  0.00  0.00     0.025 A 
ATOM     10  C   UNL d   1      54.345  32.512  54.933  0.00  0.00     0.000 A 
ATOM     11  C   UNL d   1      54.673  33.142  55.365  0.00  0.00     0.002 A 
ENDROOT
BRANCH   1  12
ATOM     12  C   UNL d   1      51.909  34.466  53.165  0.00  0.00     0.284 C 
ATOM     13  N   UNL d   1      51.161  34.144  53.324  0.00  0.00    -0.208 NA
ATOM     14  O   UNL d   1      52.043  34.920  52.500  0.00  0.00    -0.265 OA
BRANCH  13  15
ATOM     15  C   UNL d   1      50.545  34.293  52.788  0.00  0.00     0.085 A 
ATOM     16  C   UNL d   1      50.574  34.008  52.009  0.00  0.00     0.021 A 
ATOM     17  C   UNL d   1      49.961  34.161  51.492  0.00  0.00     0.031 A 
ATOM     18  C   UNL d   1      49.311  34.598  51.735  0.00  0.00     0.140 A 
ATOM     19  C   UNL d   1      49.274  34.888  52.513  0.00  0.00     0.031 A 
ATOM     20  F   UNL d   1      48.701  34.751  51.219  0.00  0.00    -0.204 F 
ATOM     21  C   UNL d   1      49.895  34.734  53.041  0.00  0.00     0.021 A 
ENDBRANCH  13  15
ENDBRANCH   1  12
TORSDOF 2
ENDMDL
MODEL 4
REMARK VINA RESULT:      -9.1      1.150      1.742
REMARK  2 active torsions:
REMARK  status: ('A' for Active; 'I' for Inactive)
REMARK    1  A    between atoms: C_3  and  C_1 
REMARK       I    between atoms: N_7  and  C_3 
REMARK    2  A    between atoms: C_11  and  N_7 
ROOT
ATOM      1  C   UNL d   1      52.085  33.702  52.940  0.00  0.00     0.121 A 
ATOM      2  C   UNL d   1      52.680  34.129  53.324  0.00  0.00     0.305 A 
ATOM      3  C   UNL d   1      52.153  32.886  52.879  0.00  0.00     0.012 A 
ATOM      4  O   UNL d   1      53.337  33.749  53.644  0.00  0.00    -0.273 OA
ATOM      5  C   UNL d   1      52.805  32.493  53.195  0.00  0.00     0.023 A 
ATOM      6  C   UNL d   1      53.398  32.930  53.578  0.00  0.00     0.103 A 
ATOM      7  O   UNL d   1      52.614  34.963  53.388  0.00  0.00    -0.259 OA
ATOM      8  C   UNL d   1      52.875  31.674  53.134  0.00  0.00     0.002 A 
ATOM      9  C   UNL d   1      54.056  32.540  53.898  0.00  0.00     0.025 A 
ATOM     10  C   UNL d   1      53.518  31.294  53.447  0.00  0.00     0.000 A 
ATOM     11  C   UNL d   1      54.110  31.732  53.830  0.00  0.00     0.002 A 
ENDROOT
BRANCH   1  12
ATOM     12  C   UNL d   1      51.427  34.091  52.621  0.00  0.00     0.284 C 
ATOM     13  N   UNL d   1      50.677  33.957  52.951  0.00  0.00    -0.208 NA
ATOM     14  O   UNL d   1      51.527  34.598  51.988  0.00  0.00    -0.265 OA
BRANCH  13  15
ATOM     15  C   UNL d   1      50.025  34.352  52.624  0.00  0.00     0.085 A 
ATOM     16  C   UNL d   1      49.774  34.197  51.848  0.00  0.00     0.021 A 
ATOM     17  C   UNL d   1      49.130  34.593  51.537  0.00  0.00     0.031 A 
ATOM     18  C   UNL d   1      48.725  35.145  51.987  0.00  0.00     0.140 A 
ATOM     19  C   UNL d   1      48.969  35.306  52.765  0.00  0.00     0.031 A 
ATOM     20  F   UNL d   1      48.084  35.538  51.677  0.00  0.00    -0.204 F 
ATOM     21  C   UNL d   1      49.623  34.906  53.083  0.00  0.00     0.021 A 
ENDBRANCH  13  15
ENDBRANCH   1  12
TORSDOF 2
ENDMDL
MODEL 5
REMARK VINA RESULT:      -8.9      2.989      4.604
REMARK  2 active torsions:
REMARK  status: ('A' for Active; 'I' for Inactive)
REMARK    1  A    between atoms: C_3  and  C_1 
REMARK       I    between atoms: N_7  and  C_3 
REMARK    2  A    between atoms: C_11  and  N_7 
ROOT
ATOM      1  C   UNL d   1      53.309  32.325  53.635  0.00  0.00     0.121 A 
ATOM      2  C   UNL d   1      53.806  32.921  53.921  0.00  0.00     0.305 A 
ATOM      3  C   UNL d   1      52.631  32.532  53.221  0.00  0.00     0.012 A 
ATOM      4  O   UNL d   1      53.631  33.717  53.796  0.00  0.00    -0.273 OA
ATOM      5  C   UNL d   1      52.443  33.324  53.089  0.00  0.00     0.023 A 
ATOM      6  C   UNL d   1      52.948  33.917  53.379  0.00  0.00     0.103 A 
ATOM      7  O   UNL d   1      54.499  32.714  54.344  0.00  0.00    -0.259 OA
ATOM      8  C   UNL d   1      51.764  33.534  52.673  0.00  0.00     0.002 A 
ATOM      9  C   UNL d   1      52.765  34.715  53.250  0.00  0.00     0.025 A 
ATOM     10  C   UNL d   1      51.585  34.314  52.547  0.00  0.00     0.000 A 
ATOM     11  C   UNL d   1      52.091  34.905  52.838  0.00  0.00     0.002 A 
ENDROOT
BRANCH   1  12
ATOM     12  C   UNL d   1      53.492  31.528  53.764  0.00  0.00     0.284 C 
ATOM     13  N   UNL d   1      52.910  31.024  54.075  0.00  0.00    -0.208 NA
ATOM     14  O   UNL d   1      54.239  31.252  53.584  0.00  0.00    -0.265 OA
BRANCH  13  15
ATOM     15  C   UNL d   1      53.103  30.227  54.201  0.00  0.00     0.085 A 
ATOM     16  C   UNL d   1      53.201  29.703  53.564  0.00  0.00     0.021 A 
ATOM     17  C   UNL d   1      53.391  28.920  53.701  0.00  0.00     0.031 A 
ATOM     18  C   UNL d   1      53.487  28.644  54.467  0.00  0.00     0.140 A 
ATOM     19  C   UNL d   1      53.391  29.162  55.110  0.00  0.00     0.031 A 
ATOM     20  F   UNL d   1      53.676  27.865  54.603  0.00  0.00    -0.204 F 
ATOM     21  C   UNL d   1      53.198  29.957  54.974  0.00  0.00     0.021 A 
ENDBRANCH  13  15
ENDBRANCH   1  12
TORSDOF 2
ENDMDL
MODEL 6
REMARK VINA RESULT:      -8.7      1.992      4.487
REMARK  2 active torsions:
REMARK  status: ('A' for Active; 'I' for Inactive)
REMARK    1  A    between atoms: C_3  and  C_1 
REMARK       I    between atoms: N_7  and  C_3 
REMARK    2  A    between atoms: C_11  and  N_7 
ROOT
ATOM      1  C   UNL d   1      51.562  34.279  52.901  0.00  0.00     0.121 A 
ATOM      2  C   UNL d   1      51.482  34.018  52.121  0.00  0.00     0.305 A 
ATOM      3  C   UNL d   1      50.920  34.625  53.276  0.00  0.00     0.012 A 
ATOM      4  O   UNL d   1      50.770  34.100  51.716  0.00  0.00    -0.273 OA
ATOM      5  C   UNL d   1      50.200  34.714  52.883  0.00  0.00     0.023 A 
ATOM      6  C   UNL d   1      50.129  34.449  52.099  0.00  0.00     0.103 A 
ATOM      7  O   UNL d   1      52.136  33.663  51.734  0.00  0.00    -0.259 OA
ATOM      8  C   UNL d   1      49.554  35.062  53.258  0.00  0.00     0.002 A 
ATOM      9  C   UNL d   1      49.408  34.536  51.699  0.00  0.00     0.025 A 
ATOM     10  C   UNL d   1      48.851  35.146  52.867  0.00  0.00     0.000 A 
ATOM     11  C   UNL d   1      48.780  34.881  52.082  0.00  0.00     0.002 A 
ENDROOT
BRANCH   1  12
ATOM     12  C   UNL d   1      52.283  34.192  53.302  0.00  0.00     0.284 C 
ATOM     13  N   UNL d   1      52.339  33.640  53.919  0.00  0.00    -0.208 NA
ATOM     14  O   UNL d   1      52.922  34.650  53.082  0.00  0.00    -0.265 OA
BRANCH  13  15
ATOM     15  C   UNL d   1      53.065  33.561  54.313  0.00  0.00     0.085 A 
ATOM     16  C   UNL d   1      53.353  34.163  54.807  0.00  0.00     0.021 A 
ATOM     17  C   UNL d   1      54.069  34.072  55.191  0.00  0.00     0.031 A 
ATOM     18  C   UNL d   1      54.510  33.388  55.092  0.00  0.00     0.140 A 
ATOM     19  C   UNL d   1      54.229  32.781  54.599  0.00  0.00     0.031 A 
ATOM     20  F   UNL d   1      55.223  33.299  55.474  0.00  0.00    -0.204 F 
ATOM     21  C   UNL d   1      53.502  32.869  54.209  0.00  0.00     0.021 A 
ENDBRANCH  13  15
ENDBRANCH   1  12
TORSDOF 2
ENDMDL
MODEL 7
REMARK VINA RESULT:      -8.2      2.565      3.816
REMARK  2 active torsions:
REMARK  status: ('A' for Active; 'I' for Inactive)
REMARK    1  A    between atoms: C_3  and  C_1 
REMARK       I    between atoms: N_7  and  C_3 
REMARK    2  A    between atoms: C_11  and  N_7 
ROOT
ATOM      1  C   UNL d   1      52.657  33.046  53.545  0.00  0.00     0.121 A 
ATOM      2  C   UNL d   1      52.408  33.535  52.926  0.00  0.00     0.305 A 
ATOM      3  C   UNL d   1      52.972  33.386  54.222  0.00  0.00     0.012 A 
ATOM      4  O   UNL d   1      52.470  34.355  52.981  0.00  0.00    -0.273 OA
ATOM      5  C   UNL d   1      53.040  34.204  54.291  0.00  0.00     0.023 A 
ATOM      6  C   UNL d   1      52.787  34.688  53.665  0.00  0.00     0.103 A 
ATOM      7  O   UNL d   1      52.086  33.193  52.232  0.00  0.00    -0.259 OA
ATOM      8  C   UNL d   1      53.356  34.547  54.971  0.00  0.00     0.002 A 
ATOM      9  C   UNL d   1      52.853  35.513  53.728  0.00  0.00     0.025 A 
ATOM     10  C   UNL d   1      53.420  35.351  55.031  0.00  0.00     0.000 A 
ATOM     11  C   UNL d   1      53.166  35.835  54.405  0.00  0.00     0.002 A 
ENDROOT
BRANCH   1  12
ATOM     12  C   UNL d   1      52.591  32.223  53.482  0.00  0.00     0.284 C 
ATOM     13  N   UNL d   1      53.274  31.756  53.548  0.00  0.00    -0.208 NA
ATOM     14  O   UNL d   1      51.857  31.886  53.357  0.00  0.00    -0.265 OA
BRANCH  13  15
ATOM     15  C   UNL d   1      53.197  30.932  53.484  0.00  0.00     0.085 A 
ATOM     16  C   UNL d   1      53.018  30.573  52.757  0.00  0.00     0.021 A 
ATOM     17  C   UNL d   1      52.945  29.760  52.707  0.00  0.00     0.031 A 
ATOM     18  C   UNL d   1      53.048  29.292  53.372  0.00  0.00     0.140 A 
ATOM     19  C   UNL d   1      53.227  29.643  54.104  0.00  0.00     0.031 A 
ATOM     20  F   UNL d   1      52.975  28.483  53.322  0.00  0.00    -0.204 F 
ATOM     21  C   UNL d   1      53.302  30.468  54.158  0.00  0.00     0.021 A 
ENDBRANCH  13  15
ENDBRANCH   1  12
TORSDOF 2
ENDMDL
MODEL 8
REMARK VINA RESULT:      -7.6      2.349      5.197
REMARK  2 active torsions:
REMARK  status: ('A' for Active; 'I' for Inactive)
REMARK    1  A    between atoms: C_3  and  C_1 
REMARK       I    between atoms: N_7  and  C_3 
REMARK    2  A    between atoms: C_11  and  N_7 
ROOT
ATOM      1  C   UNL d   1      49.020  35.016  52.226  0.00  0.00     0.121 A 
ATOM      2  C   UNL d   1      48.545  34.967  51.551  0.00  0.00     0.305 A 
ATOM      3  C   UNL d   1      48.765  35.465  52.864  0.00  0.00     0.012 A 
ATOM      4  O   UNL d   1      47.823  35.362  51.509  0.00  0.00    -0.273 OA
ATOM      5  C   UNL d   1      48.045  35.866  52.836  0.00  0.00     0.023 A 
ATOM      6  C   UNL d   1      47.574  35.812  52.154  0.00  0.00     0.103 A 
ATOM      7  O   UNL d   1      48.801  34.508  50.897  0.00  0.00    -0.259 OA
ATOM      8  C   UNL d   1      47.788  36.319  53.475  0.00  0.00     0.002 A 
ATOM      9  C   UNL d   1      46.849  36.213  52.120  0.00  0.00     0.025 A 
ATOM     10  C   UNL d   1      47.080  36.709  53.442  0.00  0.00     0.000 A 
ATOM     11  C   UNL d   1      46.610  36.654  52.759  0.00  0.00     0.002 A 
ENDROOT
BRANCH   1  12
ATOM     12  C   UNL d   1      49.744  34.615  52.260  0.00  0.00     0.284 C 
ATOM     13  N   UNL d   1      50.132  34.542  52.990  0.00  0.00    -0.208 NA
ATOM     14  O   UNL d   1      50.063  34.301  51.577  0.00  0.00    -0.265 OA
BRANCH  13  15
ATOM     15  C   UNL d   1      50.858  34.139  53.014  0.00  0.00     0.085 A 
ATOM     16  C   UNL d   1      51.573  34.535  52.871  0.00  0.00     0.021 A 
ATOM     17  C   UNL d   1      52.281  34.127  52.897  0.00  0.00     0.031 A 
ATOM     18  C   UNL d   1      52.292  33.324  53.064  0.00  0.00     0.140 A 
ATOM     19  C   UNL d   1      51.580  32.920  53.208  0.00  0.00     0.031 A 
ATOM     20  F   UNL d   1      52.997  32.919  53.090  0.00  0.00    -0.204 F 
ATOM     21  C   UNL d   1      50.860  33.332  53.182  0.00  0.00     0.021 A 
ENDBRANCH  13  15
ENDBRANCH   1  12
TORSDOF 2
ENDMDL
