MODEL 1
REMARK VINA RESULT:      11.1      0.000      0.000
REMARK  4 active torsions:
REMARK  status: ('A' for Active; 'I' for Inactive)
REMARK    1  A    between atoms: N_4  and  C_1 
REMARK    2  A    between atoms: C_11  and  C_3 
REMARK       I    between atoms: C_6  and  N_4 
REMARK    3  A    between atoms: C_8  and  C_6 
REMARK    4  A    between atoms: C_9  and  C_8 
ROOT
ATOM      1  C   UNL d   1      45.735 -17.533  44.541  0.00  0.00     0.197 A 
ATOM      2  N   UNL d   1      45.719 -17.765  43.755  0.00  0.00    -0.221 NA
ATOM      3  C   UNL d   1      46.200 -18.434  43.676  0.00  0.00     0.092 A 
ATOM      4  S   UNL d   1      46.222 -18.051  44.955  0.00  0.00    -0.046 SA
ATOM      5  C   UNL d   1      46.513 -18.611  44.426  0.00  0.00     0.058 A 
ENDROOT
BRANCH   1   6
ATOM      6  N   UNL d   1      45.333 -16.889  44.871  0.00  0.00    -0.183 NA
ATOM      7  C   UNL d   1      45.520 -16.123  44.622  0.00  0.00     0.281 C 
ATOM      8  O   UNL d   1      46.100 -16.009  44.053  0.00  0.00    -0.265 OA
BRANCH   7   9
ATOM      9  C   UNL d   1      45.125 -15.476  44.946  0.00  0.00     0.069 C 
BRANCH   9  10
ATOM     10  C   UNL d   1      45.420 -14.730  44.763  0.00  0.00     0.034 A 
ATOM     11  S   UNL d   1      45.014 -14.125  44.379  0.00  0.00    -0.086 SA
ATOM     12  C   UNL d   1      45.520 -13.475  44.311  0.00  0.00     0.035 A 
ATOM     13  C   UNL d   1      46.244 -13.684  44.655  0.00  0.00     0.007 A 
ATOM     14  C   UNL d   1      46.182 -14.459  44.935  0.00  0.00     0.007 A 
ENDBRANCH   9  10
ENDBRANCH   7   9
ENDBRANCH   1   6
BRANCH   3  15
ATOM     15  C   UNL d   1      46.347 -18.854  42.985  0.00  0.00     0.037 A 
ATOM     16  C   UNL d   1      46.396 -19.674  43.023  0.00  0.00     0.100 A 
ATOM     17  N   UNL d   1      46.543 -20.101  42.336  0.00  0.00    -0.242 NA
ATOM     18  C   UNL d   1      46.641 -19.710  41.615  0.00  0.00     0.099 A 
ATOM     19  C   UNL d   1      46.590 -18.895  41.591  0.00  0.00     0.021 A 
ATOM     20  C   UNL d   1      46.442 -18.456  42.278  0.00  0.00     0.005 A 
ENDBRANCH   3  15
TORSDOF 4
ENDMDL
