MODEL 1
REMARK VINA RESULT:      -3.1      0.000      0.000
REMARK  3 active torsions:
REMARK  status: ('A' for Active; 'I' for Inactive)
REMARK    1  A    between atoms: C_4  and  C_1 
REMARK    2  A    between atoms: N_7  and  C_4 
REMARK    3  A    between atoms: C_9  and  N_7 
ROOT
ATOM      1  C   UNL d   1      33.030  20.608 -22.038  0.00  0.00     0.159 C 
ATOM      2  S   UNL d   1      33.241  21.317 -22.405  0.00  0.00    -0.055 SA
ENDROOT
BRANCH   1   3
ATOM      3  C   UNL d   1      33.005  19.911 -22.479  0.00  0.00     0.139 A 
ATOM      4  N   UNL d   1      32.966  19.146 -22.168  0.00  0.00    -0.236 NA
ATOM      5  C   UNL d   1      32.952  18.615 -22.803  0.00  0.00     0.088 A 
ATOM      6  C   UNL d   1      32.915  17.791 -22.839  0.00  0.00     0.020 A 
ATOM      7  C   UNL d   1      32.983  19.057 -23.503  0.00  0.00     0.049 A 
ATOM      8  C   UNL d   1      32.910  17.411 -23.565  0.00  0.00     0.002 A 
ATOM      9  C   UNL d   1      32.941  17.853 -24.265  0.00  0.00     0.001 A 
ATOM     10  C   UNL d   1      32.978  18.671 -24.234  0.00  0.00     0.008 A 
ATOM     11  S   UNL d   1      33.016  19.858 -23.296  0.00  0.00    -0.064 SA
ENDBRANCH   1   3
BRANCH   1  12
ATOM     12  N   UNL d   1      32.844  20.593 -21.237  0.00  0.00    -0.233 NA
BRANCH  12  13
ATOM     13  C   UNL d   1      32.741  21.304 -20.823  0.00  0.00     0.082 A 
ATOM     14  C   UNL d   1      33.241  21.491 -20.197  0.00  0.00     0.020 A 
ATOM     15  C   UNL d   1      33.146  22.193 -19.782  0.00  0.00     0.013 A 
ATOM     16  C   UNL d   1      32.537  22.716 -20.002  0.00  0.00     0.058 A 
ATOM     17  C   UNL d   1      32.034  22.531 -20.631  0.00  0.00     0.013 A 
ATOM     18 CL   UNL d   1      32.435  23.420 -19.593  0.00  0.00    -0.082 Cl
ATOM     19  C   UNL d   1      32.143  21.821 -21.038  0.00  0.00     0.020 A 
ENDBRANCH  12  13
ENDBRANCH   1  12
TORSDOF 3
ENDMDL
MODEL 2
REMARK VINA RESULT:      -3.0      2.373      4.790
REMARK  3 active torsions:
REMARK  status: ('A' for Active; 'I' for Inactive)
REMARK    1  A    between atoms: C_4  and  C_1 
REMARK    2  A    between atoms: N_7  and  C_4 
REMARK    3  A    between atoms: C_9  and  N_7 
ROOT
ATOM      1  C   UNL d   1      33.018  18.753 -23.245  0.00  0.00     0.159 C 
ATOM      2  S   UNL d   1      33.212  18.850 -24.041  0.00  0.00    -0.055 SA
ENDROOT
BRANCH   1   3
ATOM      3  C   UNL d   1      33.070  19.395 -22.730  0.00  0.00     0.139 A 
ATOM      4  N   UNL d   1      33.100  19.350 -21.905  0.00  0.00    -0.236 NA
ATOM      5  C   UNL d   1      33.150  20.121 -21.610  0.00  0.00     0.088 A 
ATOM      6  C   UNL d   1      33.195  20.423 -20.843  0.00  0.00     0.020 A 
ATOM      7  C   UNL d   1      33.150  20.640 -22.257  0.00  0.00     0.049 A 
ATOM      8  C   UNL d   1      33.240  21.232 -20.720  0.00  0.00     0.002 A 
ATOM      9  C   UNL d   1      33.241  21.750 -21.367  0.00  0.00     0.001 A 
ATOM     10  C   UNL d   1      33.196  21.455 -22.130  0.00  0.00     0.008 A 
ATOM     11  S   UNL d   1      33.101  20.185 -22.947  0.00  0.00    -0.064 SA
ENDBRANCH   1   3
BRANCH   1  12
ATOM     12  N   UNL d   1      32.772  18.020 -22.963  0.00  0.00    -0.233 NA
BRANCH  12  13
ATOM     13  C   UNL d   1      32.482  17.451 -23.490  0.00  0.00     0.082 A 
ATOM     14  C   UNL d   1      32.995  16.899 -23.822  0.00  0.00     0.020 A 
ATOM     15  C   UNL d   1      32.715  16.331 -24.346  0.00  0.00     0.013 A 
ATOM     16  C   UNL d   1      31.906  16.319 -24.537  0.00  0.00     0.058 A 
ATOM     17  C   UNL d   1      31.389  16.871 -24.206  0.00  0.00     0.013 A 
ATOM     18 CL   UNL d   1      31.618  15.755 -25.060  0.00  0.00    -0.082 Cl
ATOM     19  C   UNL d   1      31.685  17.436 -23.681  0.00  0.00     0.020 A 
ENDBRANCH  12  13
ENDBRANCH   1  12
TORSDOF 3
ENDMDL
MODEL 3
REMARK VINA RESULT:      -1.9      3.579      5.078
REMARK  3 active torsions:
REMARK  status: ('A' for Active; 'I' for Inactive)
REMARK    1  A    between atoms: C_4  and  C_1 
REMARK    2  A    between atoms: N_7  and  C_4 
REMARK    3  A    between atoms: C_9  and  N_7 
ROOT
ATOM      1  C   UNL d   1      31.535  16.220 -23.995  0.00  0.00     0.159 C 
ATOM      2  S   UNL d   1      32.062  15.754 -23.562  0.00  0.00    -0.055 SA
ENDROOT
BRANCH   1   3
ATOM      3  C   UNL d   1      30.728  16.049 -23.978  0.00  0.00     0.139 A 
ATOM      4  N   UNL d   1      30.285  15.887 -23.300  0.00  0.00    -0.236 NA
ATOM      5  C   UNL d   1      29.504  15.748 -23.535  0.00  0.00     0.088 A 
ATOM      6  C   UNL d   1      28.819  15.561 -23.113  0.00  0.00     0.020 A 
ATOM      7  C   UNL d   1      29.471  15.825 -24.360  0.00  0.00     0.049 A 
ATOM      8  C   UNL d   1      28.109  15.453 -23.506  0.00  0.00     0.002 A 
ATOM      9  C   UNL d   1      28.076  15.530 -24.331  0.00  0.00     0.001 A 
ATOM     10  C   UNL d   1      28.753  15.715 -24.754  0.00  0.00     0.008 A 
ATOM     11  S   UNL d   1      30.231  16.011 -24.628  0.00  0.00    -0.064 SA
ENDBRANCH   1   3
BRANCH   1  12
ATOM     12  N   UNL d   1      31.812  16.852 -24.442  0.00  0.00    -0.233 NA
BRANCH  12  13
ATOM     13  C   UNL d   1      32.171  17.498 -24.067  0.00  0.00     0.082 A 
ATOM     14  C   UNL d   1      31.956  18.265 -24.274  0.00  0.00     0.020 A 
ATOM     15  C   UNL d   1      32.308  18.910 -23.908  0.00  0.00     0.013 A 
ATOM     16  C   UNL d   1      32.885  18.781 -23.323  0.00  0.00     0.058 A 
ATOM     17  C   UNL d   1      33.102  18.012 -23.113  0.00  0.00     0.013 A 
ATOM     18 CL   UNL d   1      33.241  19.420 -22.951  0.00  0.00    -0.082 Cl
ATOM     19  C   UNL d   1      32.740  17.374 -23.491  0.00  0.00     0.020 A 
ENDBRANCH  12  13
ENDBRANCH   1  12
TORSDOF 3
ENDMDL
MODEL 4
REMARK VINA RESULT:      -1.6      4.388      6.048
REMARK  3 active torsions:
REMARK  status: ('A' for Active; 'I' for Inactive)
REMARK    1  A    between atoms: C_4  and  C_1 
REMARK    2  A    between atoms: N_7  and  C_4 
REMARK    3  A    between atoms: C_9  and  N_7 
ROOT
ATOM      1  C   UNL d   1      29.958  16.942 -24.515  0.00  0.00     0.159 C 
ATOM      2  S   UNL d   1      29.384  17.343 -24.952  0.00  0.00    -0.055 SA
ENDROOT
BRANCH   1   3
ATOM      3  C   UNL d   1      30.711  17.269 -24.430  0.00  0.00     0.139 A 
ATOM      4  N   UNL d   1      31.073  17.786 -24.962  0.00  0.00    -0.236 NA
ATOM      5  C   UNL d   1      31.821  17.975 -24.663  0.00  0.00     0.088 A 
ATOM      6  C   UNL d   1      32.429  18.458 -24.944  0.00  0.00     0.020 A 
ATOM      7  C   UNL d   1      31.916  17.571 -23.945  0.00  0.00     0.049 A 
ATOM      8  C   UNL d   1      33.123  18.539 -24.516  0.00  0.00     0.002 A 
ATOM      9  C   UNL d   1      33.217  18.135 -23.799  0.00  0.00     0.001 A 
ATOM     10  C   UNL d   1      32.617  17.654 -23.515  0.00  0.00     0.008 A 
ATOM     11  S   UNL d   1      31.225  17.136 -23.807  0.00  0.00    -0.064 SA
ENDBRANCH   1   3
BRANCH   1  12
ATOM     12  N   UNL d   1      29.782  16.220 -24.163  0.00  0.00    -0.233 NA
BRANCH  12  13
ATOM     13  C   UNL d   1      28.998  16.035 -23.968  0.00  0.00     0.082 A 
ATOM     14  C   UNL d   1      28.522  15.640 -24.511  0.00  0.00     0.020 A 
ATOM     15  C   UNL d   1      27.744  15.453 -24.326  0.00  0.00     0.013 A 
ATOM     16  C   UNL d   1      27.441  15.667 -23.581  0.00  0.00     0.058 A 
ATOM     17  C   UNL d   1      27.917  16.064 -23.034  0.00  0.00     0.013 A 
ATOM     18 CL   UNL d   1      26.664  15.484 -23.388  0.00  0.00    -0.082 Cl
ATOM     19  C   UNL d   1      28.696  16.244 -23.236  0.00  0.00     0.020 A 
ENDBRANCH  12  13
ENDBRANCH   1  12
TORSDOF 3
ENDMDL
