MODEL 1
REMARK VINA RESULT:      -0.1      0.000      0.000
REMARK  5 active torsions:
REMARK  status: ('A' for Active; 'I' for Inactive)
REMARK    1  A    between atoms: S_3  and  C_10 
REMARK    2  A    between atoms: N_11  and  S_3 
REMARK    3  A    between atoms: C_12  and  C_4 
REMARK    4  A    between atoms: C_22  and  N_11 
REMARK    5  A    between atoms: C_23  and  N_11 
ROOT
ATOM      1  C   UNL d   1      32.473  22.981 -19.385  0.00  0.00     0.104 A 
ATOM      2  C   UNL d   1      32.562  22.704 -21.005  0.00  0.00     0.036 A 
ATOM      3  C   UNL d   1      33.201  23.078 -19.782  0.00  0.00     0.013 A 
ATOM      4  C   UNL d   1      31.802  22.749 -19.795  0.00  0.00     0.013 A 
ATOM      5  C   UNL d   1      33.240  22.938 -20.591  0.00  0.00     0.004 A 
ATOM      6  C   UNL d   1      31.847  22.610 -20.605  0.00  0.00     0.004 A 
ENDROOT
BRANCH   2   7
ATOM      7  C   UNL d   1      32.603  22.564 -21.817  0.00  0.00     0.171 A 
ATOM      8  N   UNL d   1      32.755  21.835 -22.180  0.00  0.00    -0.269 N 
ATOM      9  C   UNL d   1      32.745  21.948 -22.990  0.00  0.00     0.201 A 
ATOM     10  C   UNL d   1      32.911  21.044 -22.029  0.00  0.00     0.073 A 
ATOM     11  N   UNL d   1      32.588  22.743 -23.144  0.00  0.00    -0.121 NA
ATOM     12  S   UNL d   1      32.896  21.221 -23.361  0.00  0.00    -0.047 SA
ATOM     13  N   UNL d   1      32.500  23.126 -22.413  0.00  0.00    -0.128 NA
ATOM     14  C   UNL d   1      33.000  20.655 -22.765  0.00  0.00     0.049 A 
ATOM     15  C   UNL d   1      33.161  19.851 -22.791  0.00  0.00     0.008 A 
ATOM     16  C   UNL d   1      33.236  19.423 -22.085  0.00  0.00     0.001 A 
ATOM     17  C   UNL d   1      33.149  19.798 -21.358  0.00  0.00     0.002 A 
ATOM     18  C   UNL d   1      32.986  20.612 -21.338  0.00  0.00     0.017 A 
ATOM     19  C   UNL d   1      32.899  20.991 -20.604  0.00  0.00     0.002 C 
ENDBRANCH   2   7
BRANCH   1  20
ATOM     20  S   UNL d   1      32.428  23.121 -18.566  0.00  0.00     0.271 S 
ATOM     21  O   UNL d   1      31.844  23.699 -18.697  0.00  0.00    -0.200 OA
ATOM     22  O   UNL d   1      33.004  22.550 -18.439  0.00  0.00    -0.200 OA
BRANCH  20  23
ATOM     23  N   UNL d   1      32.380  23.263 -17.754  0.00  0.00    -0.229 N 
BRANCH  23  24
ATOM     24  C   UNL d   1      33.003  23.023 -17.251  0.00  0.00     0.092 C 
ATOM     25  C   UNL d   1      33.112  23.392 -16.525  0.00  0.00     0.021 C 
ENDBRANCH  23  24
BRANCH  23  26
ATOM     26  C   UNL d   1      31.718  23.641 -17.438  0.00  0.00     0.092 C 
ATOM     27  C   UNL d   1      31.163  23.202 -17.007  0.00  0.00     0.021 C 
ENDBRANCH  23  26
ENDBRANCH  20  23
ENDBRANCH   1  20
TORSDOF 5
ENDMDL
MODEL 2
REMARK VINA RESULT:       1.2      2.742      4.336
REMARK  5 active torsions:
REMARK  status: ('A' for Active; 'I' for Inactive)
REMARK    1  A    between atoms: S_3  and  C_10 
REMARK    2  A    between atoms: N_11  and  S_3 
REMARK    3  A    between atoms: C_12  and  C_4 
REMARK    4  A    between atoms: C_22  and  N_11 
REMARK    5  A    between atoms: C_23  and  N_11 
ROOT
ATOM      1  C   UNL d   1      32.852  20.410 -22.007  0.00  0.00     0.104 A 
ATOM      2  C   UNL d   1      32.822  18.823 -22.444  0.00  0.00     0.036 A 
ATOM      3  C   UNL d   1      33.237  20.165 -22.705  0.00  0.00     0.013 A 
ATOM      4  C   UNL d   1      32.458  19.866 -21.536  0.00  0.00     0.013 A 
ATOM      5  C   UNL d   1      33.219  19.372 -22.919  0.00  0.00     0.004 A 
ATOM      6  C   UNL d   1      32.443  19.072 -21.755  0.00  0.00     0.004 A 
ENDROOT
BRANCH   2   7
ATOM      7  C   UNL d   1      32.804  18.027 -22.659  0.00  0.00     0.171 A 
ATOM      8  N   UNL d   1      32.347  17.694 -23.265  0.00  0.00    -0.269 N 
ATOM      9  C   UNL d   1      32.500  16.892 -23.287  0.00  0.00     0.201 A 
ATOM     10  C   UNL d   1      31.798  17.872 -23.849  0.00  0.00     0.073 A 
ATOM     11  N   UNL d   1      33.051  16.711 -22.701  0.00  0.00    -0.121 NA
ATOM     12  S   UNL d   1      32.045  16.551 -23.892  0.00  0.00    -0.047 SA
ATOM     13  N   UNL d   1      33.240  17.419 -22.310  0.00  0.00    -0.128 NA
ATOM     14  C   UNL d   1      31.606  17.159 -24.244  0.00  0.00     0.049 A 
ATOM     15  C   UNL d   1      31.066  17.162 -24.862  0.00  0.00     0.008 A 
ATOM     16  C   UNL d   1      30.709  17.874 -25.094  0.00  0.00     0.001 A 
ATOM     17  C   UNL d   1      30.894  18.578 -24.710  0.00  0.00     0.002 A 
ATOM     18  C   UNL d   1      31.441  18.569 -24.085  0.00  0.00     0.017 A 
ATOM     19  C   UNL d   1      31.627  19.279 -23.698  0.00  0.00     0.002 C 
ENDBRANCH   2   7
BRANCH   1  20
ATOM     20  S   UNL d   1      32.867  21.212 -21.786  0.00  0.00     0.271 S 
ATOM     21  O   UNL d   1      32.561  21.011 -21.038  0.00  0.00    -0.200 OA
ATOM     22  O   UNL d   1      33.168  21.407 -22.524  0.00  0.00    -0.200 OA
BRANCH  20  23
ATOM     23  N   UNL d   1      32.880  22.006 -21.563  0.00  0.00    -0.229 N 
BRANCH  23  24
ATOM     24  C   UNL d   1      33.166  22.584 -22.095  0.00  0.00     0.092 C 
ATOM     25  C   UNL d   1      32.787  23.311 -22.156  0.00  0.00     0.021 C 
ENDBRANCH  23  24
BRANCH  23  26
ATOM     26  C   UNL d   1      32.612  22.231 -20.815  0.00  0.00     0.092 C 
ATOM     27  C   UNL d   1      33.013  22.823 -20.398  0.00  0.00     0.021 C 
ENDBRANCH  23  26
ENDBRANCH  20  23
ENDBRANCH   1  20
TORSDOF 5
ENDMDL
MODEL 3
REMARK VINA RESULT:       1.6      5.978      7.727
REMARK  5 active torsions:
REMARK  status: ('A' for Active; 'I' for Inactive)
REMARK    1  A    between atoms: S_3  and  C_10 
REMARK    2  A    between atoms: N_11  and  S_3 
REMARK    3  A    between atoms: C_12  and  C_4 
REMARK    4  A    between atoms: C_22  and  N_11 
REMARK    5  A    between atoms: C_23  and  N_11 
ROOT
ATOM      1  C   UNL d   1      29.061  16.119 -23.825  0.00  0.00     0.104 A 
ATOM      2  C   UNL d   1      30.633  16.089 -24.313  0.00  0.00     0.036 A 
ATOM      3  C   UNL d   1      29.639  15.760 -23.341  0.00  0.00     0.013 A 
ATOM      4  C   UNL d   1      29.271  16.457 -24.542  0.00  0.00     0.013 A 
ATOM      5  C   UNL d   1      30.422  15.748 -23.589  0.00  0.00     0.004 A 
ATOM      6  C   UNL d   1      30.057  16.442 -24.786  0.00  0.00     0.004 A 
ENDROOT
BRANCH   2   7
ATOM      7  C   UNL d   1      31.419  16.076 -24.561  0.00  0.00     0.171 A 
ATOM      8  N   UNL d   1      31.973  16.685 -24.463  0.00  0.00    -0.269 N 
ATOM      9  C   UNL d   1      32.681  16.440 -24.789  0.00  0.00     0.201 A 
ATOM     10  C   UNL d   1      32.073  17.441 -24.160  0.00  0.00     0.073 A 
ATOM     11  N   UNL d   1      32.582  15.680 -25.094  0.00  0.00    -0.121 NA
ATOM     12  S   UNL d   1      33.241  17.045 -24.694  0.00  0.00    -0.047 SA
ATOM     13  N   UNL d   1      31.796  15.454 -24.951  0.00  0.00    -0.128 NA
ATOM     14  C   UNL d   1      32.866  17.671 -24.302  0.00  0.00     0.049 A 
ATOM     15  C   UNL d   1      33.132  18.408 -24.059  0.00  0.00     0.008 A 
ATOM     16  C   UNL d   1      32.614  18.926 -23.671  0.00  0.00     0.001 A 
ATOM     17  C   UNL d   1      31.834  18.707 -23.528  0.00  0.00     0.002 A 
ATOM     18  C   UNL d   1      31.570  17.960 -23.776  0.00  0.00     0.017 A 
ATOM     19  C   UNL d   1      30.783  17.739 -23.632  0.00  0.00     0.002 C 
ENDBRANCH   2   7
BRANCH   1  20
ATOM     20  S   UNL d   1      28.266  16.134 -23.579  0.00  0.00     0.271 S 
ATOM     21  O   UNL d   1      28.029  16.317 -24.355  0.00  0.00    -0.200 OA
ATOM     22  O   UNL d   1      28.503  15.953 -22.814  0.00  0.00    -0.200 OA
BRANCH  20  23
ATOM     23  N   UNL d   1      27.477  16.150 -23.339  0.00  0.00    -0.229 N 
BRANCH  23  24
ATOM     24  C   UNL d   1      27.136  16.866 -23.074  0.00  0.00     0.092 C 
ATOM     25  C   UNL d   1      26.534  16.853 -22.515  0.00  0.00     0.021 C 
ENDBRANCH  23  24
BRANCH  23  26
ATOM     26  C   UNL d   1      27.024  15.460 -23.359  0.00  0.00     0.092 C 
ATOM     27  C   UNL d   1      26.265  15.479 -23.690  0.00  0.00     0.021 C 
ENDBRANCH  23  26
ENDBRANCH  20  23
ENDBRANCH   1  20
TORSDOF 5
ENDMDL
MODEL 4
REMARK VINA RESULT:       2.3      0.794      1.318
REMARK  5 active torsions:
REMARK  status: ('A' for Active; 'I' for Inactive)
REMARK    1  A    between atoms: S_3  and  C_10 
REMARK    2  A    between atoms: N_11  and  S_3 
REMARK    3  A    between atoms: C_12  and  C_4 
REMARK    4  A    between atoms: C_22  and  N_11 
REMARK    5  A    between atoms: C_23  and  N_11 
ROOT
ATOM      1  C   UNL d   1      32.615  22.522 -20.202  0.00  0.00     0.104 A 
ATOM      2  C   UNL d   1      32.836  22.165 -21.794  0.00  0.00     0.036 A 
ATOM      3  C   UNL d   1      32.204  21.880 -20.544  0.00  0.00     0.013 A 
ATOM      4  C   UNL d   1      33.127  22.976 -20.653  0.00  0.00     0.013 A 
ATOM      5  C   UNL d   1      32.318  21.706 -21.339  0.00  0.00     0.004 A 
ATOM      6  C   UNL d   1      33.238  22.797 -21.449  0.00  0.00     0.004 A 
ENDROOT
BRANCH   2   7
ATOM      7  C   UNL d   1      32.949  21.989 -22.592  0.00  0.00     0.171 A 
ATOM      8  N   UNL d   1      33.030  21.232 -22.919  0.00  0.00    -0.269 N 
ATOM      9  C   UNL d   1      33.132  21.313 -23.726  0.00  0.00     0.201 A 
ATOM     10  C   UNL d   1      33.047  20.433 -22.733  0.00  0.00     0.073 A 
ATOM     11  N   UNL d   1      33.115  22.116 -23.914  0.00  0.00    -0.121 NA
ATOM     12  S   UNL d   1      33.214  20.558 -24.060  0.00  0.00    -0.047 SA
ATOM     13  N   UNL d   1      33.001  22.536 -23.208  0.00  0.00    -0.128 NA
ATOM     14  C   UNL d   1      33.162  20.007 -23.444  0.00  0.00     0.049 A 
ATOM     15  C   UNL d   1      33.202  19.187 -23.433  0.00  0.00     0.008 A 
ATOM     16  C   UNL d   1      33.129  18.781 -22.714  0.00  0.00     0.001 A 
ATOM     17  C   UNL d   1      33.016  19.193 -22.011  0.00  0.00     0.002 A 
ATOM     18  C   UNL d   1      32.976  20.022 -22.028  0.00  0.00     0.017 A 
ATOM     19  C   UNL d   1      32.862  20.438 -21.319  0.00  0.00     0.002 C 
ENDBRANCH   2   7
BRANCH   1  20
ATOM     20  S   UNL d   1      32.503  22.703 -19.398  0.00  0.00     0.271 S 
ATOM     21  O   UNL d   1      32.705  21.922 -19.194  0.00  0.00    -0.200 OA
ATOM     22  O   UNL d   1      32.305  23.473 -19.602  0.00  0.00    -0.200 OA
BRANCH  20  23
ATOM     23  N   UNL d   1      32.394  22.879 -18.599  0.00  0.00    -0.229 N 
BRANCH  23  24
ATOM     24  C   UNL d   1      32.033  23.599 -18.376  0.00  0.00     0.092 C 
ATOM     25  C   UNL d   1      31.760  23.702 -17.607  0.00  0.00     0.021 C 
ENDBRANCH  23  24
BRANCH  23  26
ATOM     26  C   UNL d   1      32.640  22.344 -18.020  0.00  0.00     0.092 C 
ATOM     27  C   UNL d   1      33.098  22.613 -17.384  0.00  0.00     0.021 C 
ENDBRANCH  23  26
ENDBRANCH  20  23
ENDBRANCH   1  20
TORSDOF 5
ENDMDL
MODEL 5
REMARK VINA RESULT:       2.4      2.339      5.065
REMARK  5 active torsions:
REMARK  status: ('A' for Active; 'I' for Inactive)
REMARK    1  A    between atoms: S_3  and  C_10 
REMARK    2  A    between atoms: N_11  and  S_3 
REMARK    3  A    between atoms: C_12  and  C_4 
REMARK    4  A    between atoms: C_22  and  N_11 
REMARK    5  A    between atoms: C_23  and  N_11 
ROOT
ATOM      1  C   UNL d   1      32.733  19.688 -23.150  0.00  0.00     0.104 A 
ATOM      2  C   UNL d   1      32.839  21.250 -22.641  0.00  0.00     0.036 A 
ATOM      3  C   UNL d   1      32.323  19.929 -22.464  0.00  0.00     0.013 A 
ATOM      4  C   UNL d   1      33.188  20.223 -23.573  0.00  0.00     0.013 A 
ATOM      5  C   UNL d   1      32.380  20.710 -22.214  0.00  0.00     0.004 A 
ATOM      6  C   UNL d   1      33.241  21.004 -23.318  0.00  0.00     0.004 A 
ENDROOT
BRANCH   2   7
ATOM      7  C   UNL d   1      32.894  22.033 -22.389  0.00  0.00     0.171 A 
ATOM      8  N   UNL d   1      32.990  22.290 -21.607  0.00  0.00    -0.269 N 
ATOM      9  C   UNL d   1      33.018  23.107 -21.609  0.00  0.00     0.201 A 
ATOM     10  C   UNL d   1      33.066  22.028 -20.833  0.00  0.00     0.073 A 
ATOM     11  N   UNL d   1      32.942  23.372 -22.387  0.00  0.00    -0.121 NA
ATOM     12  S   UNL d   1      33.114  23.371 -20.828  0.00  0.00    -0.047 SA
ATOM     13  N   UNL d   1      32.865  22.703 -22.872  0.00  0.00    -0.128 NA
ATOM     14  C   UNL d   1      33.144  22.701 -20.342  0.00  0.00     0.049 A 
ATOM     15  C   UNL d   1      33.231  22.613 -19.531  0.00  0.00     0.008 A 
ATOM     16  C   UNL d   1      33.241  21.854 -19.197  0.00  0.00     0.001 A 
ATOM     17  C   UNL d   1      33.165  21.188 -19.674  0.00  0.00     0.002 A 
ATOM     18  C   UNL d   1      33.077  21.283 -20.495  0.00  0.00     0.017 A 
ATOM     19  C   UNL d   1      33.001  20.611 -20.975  0.00  0.00     0.002 C 
ENDBRANCH   2   7
BRANCH   1  20
ATOM     20  S   UNL d   1      32.680  18.899 -23.408  0.00  0.00     0.271 S 
ATOM     21  O   UNL d   1      32.960  18.638 -22.668  0.00  0.00    -0.200 OA
ATOM     22  O   UNL d   1      32.404  19.158 -24.136  0.00  0.00    -0.200 OA
BRANCH  20  23
ATOM     23  N   UNL d   1      32.628  18.114 -23.659  0.00  0.00    -0.229 N 
BRANCH  23  24
ATOM     24  C   UNL d   1      31.968  17.649 -23.443  0.00  0.00     0.092 C 
ATOM     25  C   UNL d   1      31.884  16.889 -23.744  0.00  0.00     0.021 C 
ENDBRANCH  23  24
BRANCH  23  26
ATOM     26  C   UNL d   1      33.227  17.789 -24.124  0.00  0.00     0.092 C 
ATOM     27  C   UNL d   1      33.036  17.431 -24.847  0.00  0.00     0.021 C 
ENDBRANCH  23  26
ENDBRANCH  20  23
ENDBRANCH   1  20
TORSDOF 5
ENDMDL
