MODEL 1
REMARK VINA RESULT:      -0.5      0.000      0.000
REMARK  7 active torsions:
REMARK  status: ('A' for Active; 'I' for Inactive)
REMARK    1  A    between atoms: N_2  and  S_1 
REMARK    2  A    between atoms: C_3  and  S_1 
REMARK       I    between atoms: C_4  and  N_9 
REMARK    3  A    between atoms: C_10  and  C_4 
REMARK    4  A    between atoms: C_12  and  C_6 
REMARK    5  A    between atoms: N_9  and  C_12 
REMARK    6  A    between atoms: O_22  and  C_19 
REMARK    7  A    between atoms: C_25  and  O_22 
ROOT
ATOM      1  N   UNL d   1     -43.184-122.688 -48.997  0.00  0.00    -0.229 N 
ATOM      2  C   UNL d   1     -43.001-122.533 -49.788  0.00  0.00     0.094 A 
ATOM      3  C   UNL d   1     -43.979-122.472 -48.869  0.00  0.00     0.092 A 
ATOM      4  C   UNL d   1     -43.682-122.222 -50.140  0.00  0.00     0.021 A 
ATOM      5  C   UNL d   1     -44.278-122.186 -49.574  0.00  0.00     0.021 A 
ENDROOT
BRANCH   2   6
ATOM      6  C   UNL d   1     -42.245-122.694 -50.077  0.00  0.00     0.120 C 
BRANCH   6   7
ATOM      7  N   UNL d   1     -42.130-122.800 -50.881  0.00  0.00    -0.205 NA
ATOM      8  C   UNL d   1     -41.604-122.321 -51.276  0.00  0.00     0.279 C 
ATOM      9  O   UNL d   1     -41.182-121.729 -50.883  0.00  0.00    -0.265 OA
BRANCH   8  10
ATOM     10  C   UNL d   1     -41.483-122.427 -52.100  0.00  0.00     0.058 A 
ATOM     11  C   UNL d   1     -41.310-123.177 -52.398  0.00  0.00     0.007 A 
ATOM     12  C   UNL d   1     -41.191-123.286 -53.199  0.00  0.00     0.025 A 
ATOM     13  C   UNL d   1     -41.245-122.639 -53.716  0.00  0.00     0.100 A 
ATOM     14  C   UNL d   1     -41.419-121.889 -53.419  0.00  0.00     0.025 A 
ATOM     15  C   UNL d   1     -41.537-121.792 -52.606  0.00  0.00     0.007 A 
BRANCH  13  16
ATOM     16  O   UNL d   1     -41.124-122.755 -54.527  0.00  0.00    -0.305 OA
BRANCH  16  17
ATOM     17  C   UNL d   1     -41.721-122.586 -55.071  0.00  0.00     0.123 C 
ATOM     18  C   UNL d   1     -41.528-122.400 -55.850  0.00  0.00     0.029 C 
ENDBRANCH  16  17
ENDBRANCH  13  16
ENDBRANCH   8  10
ENDBRANCH   6   7
ENDBRANCH   2   6
BRANCH   1  19
ATOM     19  S   UNL d   1     -42.668-123.004 -48.436  0.00  0.00     0.277 S 
ATOM     20  O   UNL d   1     -42.592-122.258 -48.087  0.00  0.00    -0.199 OA
ATOM     21  O   UNL d   1     -42.746-123.750 -48.790  0.00  0.00    -0.199 OA
BRANCH  19  22
ATOM     22  C   UNL d   1     -42.146-123.320 -47.869  0.00  0.00     0.133 A 
ATOM     23  S   UNL d   1     -41.349-123.540 -47.919  0.00  0.00    -0.074 SA
ATOM     24  C   UNL d   1     -41.124-123.817 -47.180  0.00  0.00     0.036 A 
ATOM     25  C   UNL d   1     -41.778-123.767 -46.683  0.00  0.00     0.008 A 
ATOM     26  C   UNL d   1     -42.402-123.462 -47.106  0.00  0.00     0.020 A 
ENDBRANCH  19  22
ENDBRANCH   1  19
TORSDOF 7
ENDMDL
