MODEL 1
REMARK VINA RESULT:      41.5      0.000      0.000
REMARK  5 active torsions:
REMARK  status: ('A' for Active; 'I' for Inactive)
REMARK    1  A    between atoms: N_8  and  C_2 
REMARK    2  A    between atoms: C_6  and  C_5 
REMARK    3  A    between atoms: C_7  and  C_6 
REMARK       I    between atoms: N_9  and  C_7 
REMARK    4  A    between atoms: C_18  and  N_9 
REMARK    5  A    between atoms: C_11  and  C_12 
ROOT
ATOM      1  C   UNL d   1      13.616  12.965  -3.241  0.00  0.00     0.280 C 
ATOM      2  N   UNL d   1      13.363  13.005  -4.032  0.00  0.00    -0.208 NA
ATOM      3  O   UNL d   1      13.879  13.641  -2.858  0.00  0.00    -0.265 OA
ENDROOT
BRANCH   1   4
ATOM      4  C   UNL d   1      13.597  12.245  -2.850  0.00  0.00     0.074 C 
BRANCH   4   5
ATOM      5  C   UNL d   1      13.963  12.163  -2.115  0.00  0.00     0.093 A 
ATOM      6  C   UNL d   1      13.579  11.976  -1.410  0.00  0.00     0.272 A 
ATOM      7  N   UNL d   1      14.143  11.947  -0.810  0.00  0.00    -0.251 N 
ATOM      8  O   UNL d   1      12.771  11.838  -1.308  0.00  0.00    -0.266 OA
ATOM      9  C   UNL d   1      14.884  12.118  -1.147  0.00  0.00     0.182 A 
ATOM     10  C   UNL d   1      14.010  11.781  -0.015  0.00  0.00     0.104 C 
ATOM     11  S   UNL d   1      14.760  12.249  -1.951  0.00  0.00    -0.045 SA
BRANCH   9  12
ATOM     12  N   UNL d   1      15.605  12.150  -0.745  0.00  0.00    -0.219 NA
ATOM     13  C   UNL d   1      16.047  12.844  -0.734  0.00  0.00     0.122 C 
ENDBRANCH   9  12
ENDBRANCH   4   5
ENDBRANCH   1   4
BRANCH   2  14
ATOM     14  C   UNL d   1      13.381  13.728  -4.427  0.00  0.00     0.085 A 
ATOM     15  C   UNL d   1      13.879  13.837  -5.088  0.00  0.00     0.019 A 
ATOM     16  C   UNL d   1      13.892  14.563  -5.480  0.00  0.00     0.005 A 
ATOM     17  C   UNL d   1      13.411  15.187  -5.219  0.00  0.00     0.039 A 
ATOM     18  C   UNL d   1      12.919  15.079  -4.565  0.00  0.00     0.005 A 
ATOM     19  C   UNL d   1      12.904  14.347  -4.169  0.00  0.00     0.019 A 
BRANCH  17  20
ATOM     20  C   UNL d   1      13.426  15.909  -5.610  0.00  0.00     0.196 C 
ATOM     21  O   UNL d   1      12.861  16.080  -6.186  0.00  0.00    -0.287 OA
ATOM     22  C   UNL d   1      14.009  16.464  -5.425  0.00  0.00     0.045 C 
ENDBRANCH  17  20
ENDBRANCH   2  14
TORSDOF 5
ENDMDL
MODEL 2
REMARK VINA RESULT:      43.6      2.526      3.828
REMARK  5 active torsions:
REMARK  status: ('A' for Active; 'I' for Inactive)
REMARK    1  A    between atoms: N_8  and  C_2 
REMARK    2  A    between atoms: C_6  and  C_5 
REMARK    3  A    between atoms: C_7  and  C_6 
REMARK       I    between atoms: N_9  and  C_7 
REMARK    4  A    between atoms: C_18  and  N_9 
REMARK    5  A    between atoms: C_11  and  C_12 
ROOT
ATOM      1  C   UNL d   1      13.611  14.938  -3.784  0.00  0.00     0.280 C 
ATOM      2  N   UNL d   1      14.384  15.242  -3.729  0.00  0.00    -0.208 NA
ATOM      3  O   UNL d   1      13.084  15.038  -3.163  0.00  0.00    -0.265 OA
ENDROOT
BRANCH   1   4
ATOM      4  C   UNL d   1      13.385  14.538  -4.462  0.00  0.00     0.074 C 
BRANCH   4   5
ATOM      5  C   UNL d   1      13.305  13.717  -4.452  0.00  0.00     0.093 A 
ATOM      6  C   UNL d   1      13.306  13.231  -5.119  0.00  0.00     0.272 A 
ATOM      7  N   UNL d   1      13.213  12.451  -4.867  0.00  0.00    -0.251 N 
ATOM      8  O   UNL d   1      13.384  13.469  -5.905  0.00  0.00    -0.266 OA
ATOM      9  C   UNL d   1      13.155  12.455  -4.037  0.00  0.00     0.182 A 
ATOM     10  C   UNL d   1      13.182  11.779  -5.342  0.00  0.00     0.104 C 
ATOM     11  S   UNL d   1      13.213  13.240  -3.794  0.00  0.00    -0.045 SA
BRANCH   9  12
ATOM     12  N   UNL d   1      13.057  11.792  -3.554  0.00  0.00    -0.219 NA
ATOM     13  C   UNL d   1      13.306  11.807  -2.770  0.00  0.00     0.122 C 
ENDBRANCH   9  12
ENDBRANCH   4   5
ENDBRANCH   1   4
BRANCH   2  14
ATOM     14  C   UNL d   1      14.613  15.645  -3.048  0.00  0.00     0.085 A 
ATOM     15  C   UNL d   1      14.900  16.428  -3.096  0.00  0.00     0.019 A 
ATOM     16  C   UNL d   1      15.128  16.826  -2.410  0.00  0.00     0.005 A 
ATOM     17  C   UNL d   1      15.075  16.450  -1.672  0.00  0.00     0.039 A 
ATOM     18  C   UNL d   1      14.792  15.676  -1.625  0.00  0.00     0.005 A 
ATOM     19  C   UNL d   1      14.561  15.273  -2.315  0.00  0.00     0.019 A 
BRANCH  17  20
ATOM     20  C   UNL d   1      15.303  16.848  -0.991  0.00  0.00     0.196 C 
ATOM     21  O   UNL d   1      15.464  17.657  -1.017  0.00  0.00    -0.287 OA
ATOM     22  C   UNL d   1      15.372  16.437  -0.278  0.00  0.00     0.045 C 
ENDBRANCH  17  20
ENDBRANCH   2  14
TORSDOF 5
ENDMDL
