MODEL 1
REMARK VINA RESULT:      -6.5      0.000      0.000
REMARK  5 active torsions:
REMARK  status: ('A' for Active; 'I' for Inactive)
REMARK    1  A    between atoms: C_3  and  C_1 
REMARK    2  A    between atoms: C_7  and  C_3 
REMARK    3  A    between atoms: N_9  and  C_3 
REMARK    4  A    between atoms: C_17  and  C_8 
REMARK    5  A    between atoms: C_10  and  N_9 
ROOT
ATOM      1  C   UNL d   1     -48.615  13.906  22.163  0.00  0.00     0.111 C 
ENDROOT
BRANCH   1   2
ATOM      2  C   UNL d   1     -49.025  13.179  22.157  0.00  0.00     0.160 A 
ATOM      3  C   UNL d   1     -49.426  12.928  21.482  0.00  0.00     0.258 A 
ATOM      4  C   UNL d   1     -49.829  12.201  21.496  0.00  0.00     0.238 A 
ATOM      5  O   UNL d   1     -49.437  13.391  20.777  0.00  0.00    -0.281 OA
ATOM      6  O   UNL d   1     -50.235  11.947  20.811  0.00  0.00    -0.283 OA
ATOM      7  C   UNL d   1     -49.836  11.726  22.171  0.00  0.00     0.073 A 
ATOM      8  C   UNL d   1     -49.435  11.977  22.846  0.00  0.00     0.146 A 
ATOM      9  O   UNL d   1     -49.034  12.698  22.836  0.00  0.00    -0.299 OA
BRANCH   8  10
ATOM     10  C   UNL d   1     -49.456  11.478  23.520  0.00  0.00     0.259 C 
ATOM     11  O   UNL d   1     -48.817  10.993  23.698  0.00  0.00    -0.281 OA
ENDBRANCH   8  10
ENDBRANCH   1   2
BRANCH   1  12
ATOM     12  C   UNL d   1     -48.967  14.566  22.542  0.00  0.00     0.047 A 
ATOM     13  C   UNL d   1     -49.105  15.260  22.119  0.00  0.00     0.142 A 
ATOM     14  F   UNL d   1     -48.988  15.318  21.627  0.00  0.00    -0.204 F 
ATOM     15  C   UNL d   1     -49.451  15.917  22.479  0.00  0.00     0.030 A 
ATOM     16  C   UNL d   1     -49.662  15.878  23.275  0.00  0.00     0.002 A 
ATOM     17  C   UNL d   1     -49.523  15.184  23.697  0.00  0.00     0.000 A 
ATOM     18  C   UNL d   1     -49.178  14.528  23.338  0.00  0.00     0.004 A 
ENDBRANCH   1  12
BRANCH   1  19
ATOM     19  N   UNL d   1     -47.880  13.974  21.805  0.00  0.00    -0.225 NA
BRANCH  19  20
ATOM     20  C   UNL d   1     -47.181  13.775  22.225  0.00  0.00     0.163 A 
ATOM     21  N   UNL d   1     -46.933  14.229  22.856  0.00  0.00    -0.225 NA
ATOM     22  C   UNL d   1     -46.255  14.036  23.264  0.00  0.00     0.101 A 
ATOM     23  C   UNL d   1     -45.803  13.362  23.036  0.00  0.00     0.021 A 
ATOM     24  C   UNL d   1     -46.051  12.907  22.405  0.00  0.00     0.005 A 
ATOM     25  C   UNL d   1     -46.746  13.104  21.986  0.00  0.00     0.039 A 
ENDBRANCH  19  20
ENDBRANCH   1  19
TORSDOF 5
ENDMDL
MODEL 2
REMARK VINA RESULT:      -6.3      1.559      3.451
REMARK  5 active torsions:
REMARK  status: ('A' for Active; 'I' for Inactive)
REMARK    1  A    between atoms: C_3  and  C_1 
REMARK    2  A    between atoms: C_7  and  C_3 
REMARK    3  A    between atoms: N_9  and  C_3 
REMARK    4  A    between atoms: C_17  and  C_8 
REMARK    5  A    between atoms: C_10  and  N_9 
ROOT
ATOM      1  C   UNL d   1     -48.968  13.116  22.934  0.00  0.00     0.111 C 
ENDROOT
BRANCH   1   2
ATOM      2  C   UNL d   1     -48.145  12.983  22.980  0.00  0.00     0.160 A 
ATOM      3  C   UNL d   1     -47.849  12.293  23.318  0.00  0.00     0.258 A 
ATOM      4  C   UNL d   1     -47.026  12.180  23.355  0.00  0.00     0.238 A 
ATOM      5  O   UNL d   1     -48.360  11.698  23.628  0.00  0.00    -0.281 OA
ATOM      6  O   UNL d   1     -46.726  11.479  23.698  0.00  0.00    -0.283 OA
ATOM      7  C   UNL d   1     -46.501  12.744  23.061  0.00  0.00     0.073 A 
ATOM      8  C   UNL d   1     -46.797  13.435  22.723  0.00  0.00     0.146 A 
ATOM      9  O   UNL d   1     -47.613  13.551  22.684  0.00  0.00    -0.299 OA
BRANCH   8  10
ATOM     10  C   UNL d   1     -46.244  13.994  22.430  0.00  0.00     0.259 C 
ATOM     11  O   UNL d   1     -45.775  14.426  22.949  0.00  0.00    -0.281 OA
ENDBRANCH   8  10
ENDBRANCH   1   2
BRANCH   1  12
ATOM     12  C   UNL d   1     -49.366  12.937  22.217  0.00  0.00     0.047 A 
ATOM     13  C   UNL d   1     -49.944  12.348  22.203  0.00  0.00     0.142 A 
ATOM     14  F   UNL d   1     -50.081  12.077  22.611  0.00  0.00    -0.204 F 
ATOM     15  C   UNL d   1     -50.344  12.162  21.506  0.00  0.00     0.030 A 
ATOM     16  C   UNL d   1     -50.163  12.569  20.813  0.00  0.00     0.002 A 
ATOM     17  C   UNL d   1     -49.585  13.157  20.828  0.00  0.00     0.000 A 
ATOM     18  C   UNL d   1     -49.185  13.344  21.524  0.00  0.00     0.004 A 
ENDBRANCH   1  12
BRANCH   1  19
ATOM     19  N   UNL d   1     -49.380  13.416  23.576  0.00  0.00    -0.225 NA
BRANCH  19  20
ATOM     20  C   UNL d   1     -49.667  14.205  23.567  0.00  0.00     0.163 A 
ATOM     21  N   UNL d   1     -49.160  14.829  23.432  0.00  0.00    -0.225 NA
ATOM     22  C   UNL d   1     -49.438  15.595  23.423  0.00  0.00     0.101 A 
ATOM     23  C   UNL d   1     -50.257  15.747  23.554  0.00  0.00     0.021 A 
ATOM     24  C   UNL d   1     -50.764  15.123  23.688  0.00  0.00     0.005 A 
ATOM     25  C   UNL d   1     -50.481  14.338  23.698  0.00  0.00     0.039 A 
ENDBRANCH  19  20
ENDBRANCH   1  19
TORSDOF 5
ENDMDL
MODEL 3
REMARK VINA RESULT:      -6.1      1.377      2.613
REMARK  5 active torsions:
REMARK  status: ('A' for Active; 'I' for Inactive)
REMARK    1  A    between atoms: C_3  and  C_1 
REMARK    2  A    between atoms: C_7  and  C_3 
REMARK    3  A    between atoms: N_9  and  C_3 
REMARK    4  A    between atoms: C_17  and  C_8 
REMARK    5  A    between atoms: C_10  and  N_9 
ROOT
ATOM      1  C   UNL d   1     -48.637  13.248  22.130  0.00  0.00     0.111 C 
ENDROOT
BRANCH   1   2
ATOM      2  C   UNL d   1     -49.294  13.761  22.180  0.00  0.00     0.160 A 
ATOM      3  C   UNL d   1     -49.778  13.889  21.526  0.00  0.00     0.258 A 
ATOM      4  C   UNL d   1     -50.427  14.404  21.597  0.00  0.00     0.238 A 
ATOM      5  O   UNL d   1     -49.632  13.510  20.787  0.00  0.00    -0.281 OA
ATOM      6  O   UNL d   1     -50.919  14.533  20.934  0.00  0.00    -0.283 OA
ATOM      7  C   UNL d   1     -50.596  14.789  22.308  0.00  0.00     0.073 A 
ATOM      8  C   UNL d   1     -50.111  14.661  22.962  0.00  0.00     0.146 A 
ATOM      9  O   UNL d   1     -49.465  14.150  22.895  0.00  0.00    -0.299 OA
BRANCH   8  10
ATOM     10  C   UNL d   1     -50.301  15.063  23.672  0.00  0.00     0.259 C 
ATOM     11  O   UNL d   1     -50.935  15.585  23.698  0.00  0.00    -0.281 OA
ENDBRANCH   8  10
ENDBRANCH   1   2
BRANCH   1  12
ATOM     12  C   UNL d   1     -48.675  12.503  22.514  0.00  0.00     0.047 A 
ATOM     13  C   UNL d   1     -48.647  11.808  22.071  0.00  0.00     0.142 A 
ATOM     14  F   UNL d   1     -48.606  11.799  21.564  0.00  0.00    -0.204 F 
ATOM     15  C   UNL d   1     -48.684  11.069  22.435  0.00  0.00     0.030 A 
ATOM     16  C   UNL d   1     -48.750  11.025  23.256  0.00  0.00     0.002 A 
ATOM     17  C   UNL d   1     -48.779  11.720  23.698  0.00  0.00     0.000 A 
ATOM     18  C   UNL d   1     -48.742  12.459  23.334  0.00  0.00     0.004 A 
ENDBRANCH   1  12
BRANCH   1  19
ATOM     19  N   UNL d   1     -47.966  13.467  21.713  0.00  0.00    -0.225 NA
BRANCH  19  20
ATOM     20  C   UNL d   1     -47.285  13.745  22.117  0.00  0.00     0.163 A 
ATOM     21  N   UNL d   1     -47.309  14.443  22.538  0.00  0.00    -0.225 NA
ATOM     22  C   UNL d   1     -46.647  14.713  22.931  0.00  0.00     0.101 A 
ATOM     23  C   UNL d   1     -45.931  14.270  22.904  0.00  0.00     0.021 A 
ATOM     24  C   UNL d   1     -45.907  13.571  22.483  0.00  0.00     0.005 A 
ATOM     25  C   UNL d   1     -46.583  13.293  22.080  0.00  0.00     0.039 A 
ENDBRANCH  19  20
ENDBRANCH   1  19
TORSDOF 5
ENDMDL
MODEL 4
REMARK VINA RESULT:      -5.2      1.561      3.134
REMARK  5 active torsions:
REMARK  status: ('A' for Active; 'I' for Inactive)
REMARK    1  A    between atoms: C_3  and  C_1 
REMARK    2  A    between atoms: C_7  and  C_3 
REMARK    3  A    between atoms: N_9  and  C_3 
REMARK    4  A    between atoms: C_17  and  C_8 
REMARK    5  A    between atoms: C_10  and  N_9 
ROOT
ATOM      1  C   UNL d   1     -48.724  13.711  22.992  0.00  0.00     0.111 C 
ENDROOT
BRANCH   1   2
ATOM      2  C   UNL d   1     -49.383  14.097  22.655  0.00  0.00     0.160 A 
ATOM      3  C   UNL d   1     -49.684  14.787  22.991  0.00  0.00     0.258 A 
ATOM      4  C   UNL d   1     -50.342  15.155  22.640  0.00  0.00     0.238 A 
ATOM      5  O   UNL d   1     -49.341  15.128  23.682  0.00  0.00    -0.281 OA
ATOM      6  O   UNL d   1     -50.646  15.855  22.981  0.00  0.00    -0.283 OA
ATOM      7  C   UNL d   1     -50.699  14.845  21.964  0.00  0.00     0.073 A 
ATOM      8  C   UNL d   1     -50.398  14.155  21.628  0.00  0.00     0.146 A 
ATOM      9  O   UNL d   1     -49.745  13.786  21.974  0.00  0.00    -0.299 OA
BRANCH   8  10
ATOM     10  C   UNL d   1     -50.777  13.858  20.941  0.00  0.00     0.259 C 
ATOM     11  O   UNL d   1     -50.676  13.074  20.717  0.00  0.00    -0.281 OA
ENDBRANCH   8  10
ENDBRANCH   1   2
BRANCH   1  12
ATOM     12  C   UNL d   1     -47.986  13.752  22.595  0.00  0.00     0.047 A 
ATOM     13  C   UNL d   1     -47.331  14.082  22.974  0.00  0.00     0.142 A 
ATOM     14  F   UNL d   1     -47.344  14.269  23.446  0.00  0.00    -0.204 F 
ATOM     15  C   UNL d   1     -46.600  14.128  22.596  0.00  0.00     0.030 A 
ATOM     16  C   UNL d   1     -46.521  13.840  21.828  0.00  0.00     0.002 A 
ATOM     17  C   UNL d   1     -47.176  13.511  21.450  0.00  0.00     0.000 A 
ATOM     18  C   UNL d   1     -47.907  13.464  21.827  0.00  0.00     0.004 A 
ENDBRANCH   1  12
BRANCH   1  19
ATOM     19  N   UNL d   1     -48.795  13.300  23.698  0.00  0.00    -0.225 NA
BRANCH  19  20
ATOM     20  C   UNL d   1     -48.977  12.481  23.697  0.00  0.00     0.163 A 
ATOM     21  N   UNL d   1     -48.380  11.924  23.696  0.00  0.00    -0.225 NA
ATOM     22  C   UNL d   1     -48.556  11.129  23.696  0.00  0.00     0.101 A 
ATOM     23  C   UNL d   1     -49.359  10.874  23.696  0.00  0.00     0.021 A 
ATOM     24  C   UNL d   1     -49.956  11.431  23.697  0.00  0.00     0.005 A 
ATOM     25  C   UNL d   1     -49.778  12.246  23.697  0.00  0.00     0.039 A 
ENDBRANCH  19  20
ENDBRANCH   1  19
TORSDOF 5
ENDMDL
MODEL 5
REMARK VINA RESULT:      -4.3      1.500      3.190
REMARK  5 active torsions:
REMARK  status: ('A' for Active; 'I' for Inactive)
REMARK    1  A    between atoms: C_3  and  C_1 
REMARK    2  A    between atoms: C_7  and  C_3 
REMARK    3  A    between atoms: N_9  and  C_3 
REMARK    4  A    between atoms: C_17  and  C_8 
REMARK    5  A    between atoms: C_10  and  N_9 
ROOT
ATOM      1  C   UNL d   1     -47.491  13.496  22.991  0.00  0.00     0.111 C 
ENDROOT
BRANCH   1   2
ATOM      2  C   UNL d   1     -48.127  13.855  22.586  0.00  0.00     0.160 A 
ATOM      3  C   UNL d   1     -48.454  14.561  22.858  0.00  0.00     0.258 A 
ATOM      4  C   UNL d   1     -49.087  14.901  22.440  0.00  0.00     0.238 A 
ATOM      5  O   UNL d   1     -48.162  14.946  23.549  0.00  0.00    -0.281 OA
ATOM      6  O   UNL d   1     -49.419  15.617  22.716  0.00  0.00    -0.283 OA
ATOM      7  C   UNL d   1     -49.394  14.548  21.761  0.00  0.00     0.073 A 
ATOM      8  C   UNL d   1     -49.067  13.842  21.489  0.00  0.00     0.146 A 
ATOM      9  O   UNL d   1     -48.439  13.500  21.901  0.00  0.00    -0.299 OA
BRANCH   8  10
ATOM     10  C   UNL d   1     -49.396  13.501  20.797  0.00  0.00     0.259 C 
ATOM     11  O   UNL d   1     -49.444  12.684  20.718  0.00  0.00    -0.281 OA
ENDBRANCH   8  10
ENDBRANCH   1   2
BRANCH   1  12
ATOM     12  C   UNL d   1     -46.721  13.550  22.662  0.00  0.00     0.047 A 
ATOM     13  C   UNL d   1     -46.195  14.125  22.933  0.00  0.00     0.142 A 
ATOM     14  F   UNL d   1     -46.309  14.461  23.297  0.00  0.00    -0.204 F 
ATOM     15  C   UNL d   1     -45.436  14.189  22.618  0.00  0.00     0.030 A 
ATOM     16  C   UNL d   1     -45.198  13.669  22.024  0.00  0.00     0.002 A 
ATOM     17  C   UNL d   1     -45.723  13.095  21.754  0.00  0.00     0.000 A 
ATOM     18  C   UNL d   1     -46.483  13.030  22.068  0.00  0.00     0.004 A 
ENDBRANCH   1  12
BRANCH   1  19
ATOM     19  N   UNL d   1     -47.615  13.099  23.697  0.00  0.00    -0.225 NA
BRANCH  19  20
ATOM     20  C   UNL d   1     -47.838  12.290  23.698  0.00  0.00     0.163 A 
ATOM     21  N   UNL d   1     -47.271  11.704  23.697  0.00  0.00    -0.225 NA
ATOM     22  C   UNL d   1     -47.487  10.918  23.698  0.00  0.00     0.101 A 
ATOM     23  C   UNL d   1     -48.303  10.705  23.698  0.00  0.00     0.021 A 
ATOM     24  C   UNL d   1     -48.870  11.291  23.698  0.00  0.00     0.005 A 
ATOM     25  C   UNL d   1     -48.651  12.097  23.698  0.00  0.00     0.039 A 
ENDBRANCH  19  20
ENDBRANCH   1  19
TORSDOF 5
ENDMDL
MODEL 6
REMARK VINA RESULT:      -4.1      1.078      1.721
REMARK  5 active torsions:
REMARK  status: ('A' for Active; 'I' for Inactive)
REMARK    1  A    between atoms: C_3  and  C_1 
REMARK    2  A    between atoms: C_7  and  C_3 
REMARK    3  A    between atoms: N_9  and  C_3 
REMARK    4  A    between atoms: C_17  and  C_8 
REMARK    5  A    between atoms: C_10  and  N_9 
ROOT
ATOM      1  C   UNL d   1     -48.389  13.588  22.971  0.00  0.00     0.111 C 
ENDROOT
BRANCH   1   2
ATOM      2  C   UNL d   1     -48.723  12.959  22.535  0.00  0.00     0.160 A 
ATOM      3  C   UNL d   1     -49.254  12.437  22.889  0.00  0.00     0.258 A 
ATOM      4  C   UNL d   1     -49.575  11.818  22.437  0.00  0.00     0.238 A 
ATOM      5  O   UNL d   1     -49.479  12.517  23.698  0.00  0.00    -0.281 OA
ATOM      6  O   UNL d   1     -50.114  11.289  22.796  0.00  0.00    -0.283 OA
ATOM      7  C   UNL d   1     -49.373  11.714  21.644  0.00  0.00     0.073 A 
ATOM      8  C   UNL d   1     -48.842  12.235  21.290  0.00  0.00     0.146 A 
ATOM      9  O   UNL d   1     -48.521  12.852  21.735  0.00  0.00    -0.299 OA
BRANCH   8  10
ATOM     10  C   UNL d   1     -48.652  12.110  20.483  0.00  0.00     0.259 C 
ATOM     11  O   UNL d   1     -47.872  11.993  20.253  0.00  0.00    -0.281 OA
ENDBRANCH   8  10
ENDBRANCH   1   2
BRANCH   1  12
ATOM     12  C   UNL d   1     -48.652  14.370  22.819  0.00  0.00     0.047 A 
ATOM     13  C   UNL d   1     -49.226  14.713  23.301  0.00  0.00     0.142 A 
ATOM     14  F   UNL d   1     -49.439  14.476  23.697  0.00  0.00    -0.204 F 
ATOM     15  C   UNL d   1     -49.494  15.481  23.163  0.00  0.00     0.030 A 
ATOM     16  C   UNL d   1     -49.183  15.912  22.533  0.00  0.00     0.002 A 
ATOM     17  C   UNL d   1     -48.609  15.568  22.051  0.00  0.00     0.000 A 
ATOM     18  C   UNL d   1     -48.341  14.801  22.189  0.00  0.00     0.004 A 
ENDBRANCH   1  12
BRANCH   1  19
ATOM     19  N   UNL d   1     -47.814  13.445  23.538  0.00  0.00    -0.225 NA
BRANCH  19  20
ATOM     20  C   UNL d   1     -47.013  13.329  23.314  0.00  0.00     0.163 A 
ATOM     21  N   UNL d   1     -46.614  12.653  23.536  0.00  0.00    -0.225 NA
ATOM     22  C   UNL d   1     -45.837  12.540  23.318  0.00  0.00     0.101 A 
ATOM     23  C   UNL d   1     -45.439  13.124  22.859  0.00  0.00     0.021 A 
ATOM     24  C   UNL d   1     -45.838  13.800  22.637  0.00  0.00     0.005 A 
ATOM     25  C   UNL d   1     -46.634  13.918  22.859  0.00  0.00     0.039 A 
ENDBRANCH  19  20
ENDBRANCH   1  19
TORSDOF 5
ENDMDL
MODEL 7
REMARK VINA RESULT:      -4.0      9.300     11.037
REMARK  5 active torsions:
REMARK  status: ('A' for Active; 'I' for Inactive)
REMARK    1  A    between atoms: C_3  and  C_1 
REMARK    2  A    between atoms: C_7  and  C_3 
REMARK    3  A    between atoms: N_9  and  C_3 
REMARK    4  A    between atoms: C_17  and  C_8 
REMARK    5  A    between atoms: C_10  and  N_9 
ROOT
ATOM      1  C   UNL d   1     -39.204  14.290  17.434  0.00  0.00     0.111 C 
ENDROOT
BRANCH   1   2
ATOM      2  C   UNL d   1     -38.801  14.059  18.128  0.00  0.00     0.160 A 
ATOM      3  C   UNL d   1     -38.622  13.266  18.266  0.00  0.00     0.258 A 
ATOM      4  C   UNL d   1     -38.220  13.058  18.963  0.00  0.00     0.238 A 
ATOM      5  O   UNL d   1     -38.837  12.663  17.718  0.00  0.00    -0.281 OA
ATOM      6  O   UNL d   1     -38.039  12.254  19.103  0.00  0.00    -0.283 OA
ATOM      7  C   UNL d   1     -37.997  13.626  19.518  0.00  0.00     0.073 A 
ATOM      8  C   UNL d   1     -38.176  14.418  19.380  0.00  0.00     0.146 A 
ATOM      9  O   UNL d   1     -38.575  14.630  18.689  0.00  0.00    -0.299 OA
BRANCH   8  10
ATOM     10  C   UNL d   1     -37.940  14.978  19.958  0.00  0.00     0.259 C 
ATOM     11  O   UNL d   1     -38.466  15.221  20.540  0.00  0.00    -0.281 OA
ENDBRANCH   8  10
ENDBRANCH   1   2
BRANCH   1  12
ATOM     12  C   UNL d   1     -38.778  14.693  16.834  0.00  0.00     0.047 A 
ATOM     13  C   UNL d   1     -38.656  14.333  16.102  0.00  0.00     0.142 A 
ATOM     14  F   UNL d   1     -38.826  13.869  15.984  0.00  0.00    -0.204 F 
ATOM     15  C   UNL d   1     -38.239  14.718  15.503  0.00  0.00     0.030 A 
ATOM     16  C   UNL d   1     -37.940  15.473  15.638  0.00  0.00     0.002 A 
ATOM     17  C   UNL d   1     -38.062  15.832  16.370  0.00  0.00     0.000 A 
ATOM     18  C   UNL d   1     -38.478  15.449  16.969  0.00  0.00     0.004 A 
ENDBRANCH   1  12
BRANCH   1  19
ATOM     19  N   UNL d   1     -40.002  14.126  17.340  0.00  0.00    -0.225 NA
BRANCH  19  20
ATOM     20  C   UNL d   1     -40.582  14.681  17.585  0.00  0.00     0.163 A 
ATOM     21  N   UNL d   1     -40.724  15.354  17.145  0.00  0.00    -0.225 NA
ATOM     22  C   UNL d   1     -41.288  15.892  17.383  0.00  0.00     0.101 A 
ATOM     23  C   UNL d   1     -41.730  15.757  18.087  0.00  0.00     0.021 A 
ATOM     24  C   UNL d   1     -41.588  15.084  18.527  0.00  0.00     0.005 A 
ATOM     25  C   UNL d   1     -41.011  14.531  18.285  0.00  0.00     0.039 A 
ENDBRANCH  19  20
ENDBRANCH   1  19
TORSDOF 5
ENDMDL
MODEL 8
REMARK VINA RESULT:      -3.7      7.707      9.527
REMARK  5 active torsions:
REMARK  status: ('A' for Active; 'I' for Inactive)
REMARK    1  A    between atoms: C_3  and  C_1 
REMARK    2  A    between atoms: C_7  and  C_3 
REMARK    3  A    between atoms: N_9  and  C_3 
REMARK    4  A    between atoms: C_17  and  C_8 
REMARK    5  A    between atoms: C_10  and  N_9 
ROOT
ATOM      1  C   UNL d   1     -40.201  14.971  20.472  0.00  0.00     0.111 C 
ENDROOT
BRANCH   1   2
ATOM      2  C   UNL d   1     -39.477  14.758  20.829  0.00  0.00     0.160 A 
ATOM      3  C   UNL d   1     -39.150  15.221  21.427  0.00  0.00     0.258 A 
ATOM      4  C   UNL d   1     -38.428  14.991  21.769  0.00  0.00     0.238 A 
ATOM      5  O   UNL d   1     -39.530  15.922  21.701  0.00  0.00    -0.281 OA
ATOM      6  O   UNL d   1     -38.097  15.460  22.376  0.00  0.00    -0.283 OA
ATOM      7  C   UNL d   1     -38.033  14.309  21.523  0.00  0.00     0.073 A 
ATOM      8  C   UNL d   1     -38.359  13.846  20.924  0.00  0.00     0.146 A 
ATOM      9  O   UNL d   1     -39.076  14.072  20.582  0.00  0.00    -0.299 OA
BRANCH   8  10
ATOM     10  C   UNL d   1     -37.940  13.159  20.690  0.00  0.00     0.259 C 
ATOM     11  O   UNL d   1     -37.967  12.901  19.910  0.00  0.00    -0.281 OA
ENDBRANCH   8  10
ENDBRANCH   1   2
BRANCH   1  12
ATOM     12  C   UNL d   1     -40.896  14.552  20.686  0.00  0.00     0.047 A 
ATOM     13  C   UNL d   1     -41.572  14.965  20.914  0.00  0.00     0.142 A 
ATOM     14  F   UNL d   1     -41.599  15.473  20.935  0.00  0.00    -0.204 F 
ATOM     15  C   UNL d   1     -42.262  14.567  21.127  0.00  0.00     0.030 A 
ATOM     16  C   UNL d   1     -42.276  13.743  21.111  0.00  0.00     0.002 A 
ATOM     17  C   UNL d   1     -41.599  13.331  20.884  0.00  0.00     0.000 A 
ATOM     18  C   UNL d   1     -40.909  13.729  20.671  0.00  0.00     0.004 A 
ENDBRANCH   1  12
BRANCH   1  19
ATOM     19  N   UNL d   1     -40.233  15.579  19.922  0.00  0.00    -0.225 NA
BRANCH  19  20
ATOM     20  C   UNL d   1     -40.045  15.435  19.117  0.00  0.00     0.163 A 
ATOM     21  N   UNL d   1     -40.425  14.845  18.702  0.00  0.00    -0.225 NA
ATOM     22  C   UNL d   1     -40.242  14.705  17.920  0.00  0.00     0.101 A 
ATOM     23  C   UNL d   1     -39.656  15.172  17.534  0.00  0.00     0.021 A 
ATOM     24  C   UNL d   1     -39.276  15.762  17.950  0.00  0.00     0.005 A 
ATOM     25  C   UNL d   1     -39.462  15.907  18.751  0.00  0.00     0.039 A 
ENDBRANCH  19  20
ENDBRANCH   1  19
TORSDOF 5
ENDMDL
MODEL 9
REMARK VINA RESULT:      -3.6      8.131      9.999
REMARK  5 active torsions:
REMARK  status: ('A' for Active; 'I' for Inactive)
REMARK    1  A    between atoms: C_3  and  C_1 
REMARK    2  A    between atoms: C_7  and  C_3 
REMARK    3  A    between atoms: N_9  and  C_3 
REMARK    4  A    between atoms: C_17  and  C_8 
REMARK    5  A    between atoms: C_10  and  N_9 
ROOT
ATOM      1  C   UNL d   1     -39.643  14.834  19.468  0.00  0.00     0.111 C 
ENDROOT
BRANCH   1   2
ATOM      2  C   UNL d   1     -39.452  14.538  18.711  0.00  0.00     0.160 A 
ATOM      3  C   UNL d   1     -39.544  15.008  18.040  0.00  0.00     0.258 A 
ATOM      4  C   UNL d   1     -39.348  14.694  17.296  0.00  0.00     0.238 A 
ATOM      5  O   UNL d   1     -39.832  15.799  18.091  0.00  0.00    -0.281 OA
ATOM      6  O   UNL d   1     -39.442  15.171  16.616  0.00  0.00    -0.283 OA
ATOM      7  C   UNL d   1     -39.064  13.924  17.214  0.00  0.00     0.073 A 
ATOM      8  C   UNL d   1     -38.972  13.454  17.885  0.00  0.00     0.146 A 
ATOM      9  O   UNL d   1     -39.166  13.762  18.626  0.00  0.00    -0.299 OA
BRANCH   8  10
ATOM     10  C   UNL d   1     -38.682  12.675  17.778  0.00  0.00     0.259 C 
ATOM     11  O   UNL d   1     -38.038  12.534  17.287  0.00  0.00    -0.281 OA
ENDBRANCH   8  10
ENDBRANCH   1   2
BRANCH   1  12
ATOM     12  C   UNL d   1     -39.071  14.778  20.080  0.00  0.00     0.047 A 
ATOM     13  C   UNL d   1     -38.676  15.455  20.338  0.00  0.00     0.142 A 
ATOM     14  F   UNL d   1     -38.757  15.919  20.146  0.00  0.00    -0.204 F 
ATOM     15  C   UNL d   1     -38.112  15.415  20.938  0.00  0.00     0.030 A 
ATOM     16  C   UNL d   1     -37.940  14.688  21.285  0.00  0.00     0.002 A 
ATOM     17  C   UNL d   1     -38.335  14.012  21.027  0.00  0.00     0.000 A 
ATOM     18  C   UNL d   1     -38.899  14.051  20.427  0.00  0.00     0.004 A 
ENDBRANCH   1  12
BRANCH   1  19
ATOM     19  N   UNL d   1     -40.376  15.172  19.612  0.00  0.00    -0.225 NA
BRANCH  19  20
ATOM     20  C   UNL d   1     -40.963  14.751  20.038  0.00  0.00     0.163 A 
ATOM     21  N   UNL d   1     -41.169  13.992  19.819  0.00  0.00    -0.225 NA
ATOM     22  C   UNL d   1     -41.739  13.582  20.232  0.00  0.00     0.101 A 
ATOM     23  C   UNL d   1     -42.123  13.941  20.891  0.00  0.00     0.021 A 
ATOM     24  C   UNL d   1     -41.918  14.700  21.109  0.00  0.00     0.005 A 
ATOM     25  C   UNL d   1     -41.334  15.121  20.688  0.00  0.00     0.039 A 
ENDBRANCH  19  20
ENDBRANCH   1  19
TORSDOF 5
ENDMDL
