MODEL 1
REMARK VINA RESULT:      75.9      0.000      0.000
REMARK  5 active torsions:
REMARK  status: ('A' for Active; 'I' for Inactive)
REMARK    1  A    between atoms: S_13  and  C_7 
REMARK    2  A    between atoms: C_22  and  C_10 
REMARK    3  A    between atoms: C_11  and  C_16 
REMARK       I    between atoms: N_12  and  C_11 
REMARK    4  A    between atoms: C_16  and  S_13 
REMARK    5  A    between atoms: C_23  and  C_22 
ROOT
ATOM      1  N   UNL d   1     -56.592 -98.818 -45.715  0.00  0.00    -0.224 N 
ATOM      2  N   UNL d   1     -57.858 -98.783 -45.038  0.00  0.00    -0.241 N 
ATOM      3  C   UNL d   1     -57.426 -98.798 -45.739  0.00  0.00     0.343 A 
ATOM      4  C   UNL d   1     -57.457 -98.788 -44.314  0.00  0.00     0.160 A 
ATOM      5  C   UNL d   1     -56.201 -98.823 -44.990  0.00  0.00     0.273 A 
ATOM      6  C   UNL d   1     -56.633 -98.808 -44.290  0.00  0.00     0.115 A 
ATOM      7  C   UNL d   1     -56.241 -98.812 -43.566  0.00  0.00     0.120 A 
ATOM      8  N   UNL d   1     -57.890 -98.773 -43.605  0.00  0.00    -0.209 NA
ATOM      9  N   UNL d   1     -56.669 -98.797 -42.866  0.00  0.00    -0.220 NA
ATOM     10  C   UNL d   1     -57.498 -98.777 -42.882  0.00  0.00     0.165 A 
ATOM     11  O   UNL d   1     -57.817 -98.793 -46.466  0.00  0.00    -0.245 OA
ATOM     12  O   UNL d   1     -55.376 -98.842 -44.972  0.00  0.00    -0.266 OA
ATOM     13  C   UNL d   1     -56.168 -98.833 -46.415  0.00  0.00     0.107 C 
ATOM     14  C   UNL d   1     -58.682 -98.763 -45.061  0.00  0.00     0.105 C 
ENDROOT
BRANCH   7  15
ATOM     15  S   UNL d   1     -55.417 -98.832 -43.546  0.00  0.00    -0.062 SA
BRANCH  15  16
ATOM     16  C   UNL d   1     -55.024 -99.530 -43.347  0.00  0.00     0.098 C 
BRANCH  16  17
ATOM     17  C   UNL d   1     -54.950-100.136 -43.898  0.00  0.00     0.271 C 
ATOM     18  N   UNL d   1     -54.884-100.922 -43.641  0.00  0.00    -0.272 N 
ATOM     19  C   UNL d   1     -54.810-101.488 -44.291  0.00  0.00     0.083 A 
ATOM     20  C   UNL d   1     -54.901-100.996 -42.906  0.00  0.00     0.083 A 
ATOM     21  C   UNL d   1     -54.742-102.207 -44.330  0.00  0.00     0.019 A 
ATOM     22  C   UNL d   1     -54.712-102.748 -43.688  0.00  0.00     0.002 A 
ATOM     23  C   UNL d   1     -54.760-102.535 -42.832  0.00  0.00     0.002 A 
ATOM     24  C   UNL d   1     -54.847-101.725 -42.469  0.00  0.00     0.019 A 
ATOM     25  O   UNL d   1     -54.940 -99.964 -44.705  0.00  0.00    -0.266 OA
ENDBRANCH  16  17
ENDBRANCH  15  16
ENDBRANCH   7  15
BRANCH  10  26
ATOM     26  C   UNL d   1     -57.927 -98.762 -42.177  0.00  0.00     0.039 C 
BRANCH  26  27
ATOM     27  C   UNL d   1     -58.639 -99.182 -42.120  0.00  0.00     0.003 C 
ATOM     28  C   UNL d   1     -59.296 -98.839 -41.776  0.00  0.00     0.000 C 
ENDBRANCH  26  27
ENDBRANCH  10  26
TORSDOF 5
ENDMDL
