MODEL 1
REMARK VINA RESULT:      -6.3      0.000      0.000
REMARK  5 active torsions:
REMARK  status: ('A' for Active; 'I' for Inactive)
REMARK    1  A    between atoms: N_5  and  C_1 
REMARK    2  A    between atoms: N_6  and  C_1 
REMARK       I    between atoms: C_2  and  N_3 
REMARK    3  A    between atoms: C_4  and  C_2 
REMARK    4  A    between atoms: N_3  and  N_5 
REMARK    5  A    between atoms: C_11  and  N_6 
ROOT
ATOM      1  N   UNL d   1     -48.087  14.174  22.658  0.00  0.00    -0.273 N 
ATOM      2  H   UNL d   1     -48.034  14.671  23.307  0.00  0.00     0.189 HD
ENDROOT
BRANCH   1   3
ATOM      3  N   UNL d   1     -47.475  13.631  22.509  0.00  0.00    -0.264 N 
ATOM      4  C   UNL d   1     -46.759  13.678  22.912  0.00  0.00     0.272 C 
ATOM      5  O   UNL d   1     -46.645  14.268  23.468  0.00  0.00    -0.266 OA
ATOM      6  H   UNL d   1     -47.591  13.028  21.941  0.00  0.00     0.190 HD
BRANCH   4   7
ATOM      7  C   UNL d   1     -46.156  13.139  22.762  0.00  0.00     0.058 A 
ATOM      8  C   UNL d   1     -46.153  12.397  23.140  0.00  0.00     0.011 A 
ATOM      9  C   UNL d   1     -45.545  11.866  22.982  0.00  0.00     0.035 A 
ATOM     10 BR   UNL d   1     -45.537  11.133  23.353  0.00  0.00    -0.049 Br
ATOM     11  C   UNL d   1     -44.947  12.062  22.458  0.00  0.00     0.007 A 
ATOM     12  C   UNL d   1     -44.945  12.794  22.081  0.00  0.00     0.001 A 
ATOM     13  C   UNL d   1     -45.558  13.335  22.237  0.00  0.00     0.005 A 
ENDBRANCH   4   7
ENDBRANCH   1   3
BRANCH   1  14
ATOM     14  C   UNL d   1     -48.734  14.207  22.158  0.00  0.00     0.191 C 
ATOM     15  S   UNL d   1     -48.996  13.532  21.762  0.00  0.00    -0.039 SA
BRANCH  14  16
ATOM     16  N   UNL d   1     -49.123  14.931  22.055  0.00  0.00    -0.331 N 
ATOM     17  H   UNL d   1     -48.918  15.427  21.436  0.00  0.00     0.168 HD
BRANCH  16  18
ATOM     18  C   UNL d   1     -49.709  15.136  22.580  0.00  0.00     0.058 A 
ATOM     19  C   UNL d   1     -50.459  14.765  22.517  0.00  0.00     0.017 A 
ATOM     20  C   UNL d   1     -51.062  14.968  23.047  0.00  0.00     0.002 A 
ATOM     21  C   UNL d   1     -50.928  15.531  23.635  0.00  0.00     0.000 A 
ATOM     22  C   UNL d   1     -50.179  15.901  23.698  0.00  0.00     0.002 A 
ATOM     23  C   UNL d   1     -49.575  15.699  23.168  0.00  0.00     0.017 A 
ENDBRANCH  16  18
ENDBRANCH  14  16
ENDBRANCH   1  14
TORSDOF 5
ENDMDL
MODEL 2
REMARK VINA RESULT:      -5.7      1.974      4.886
REMARK  5 active torsions:
REMARK  status: ('A' for Active; 'I' for Inactive)
REMARK    1  A    between atoms: N_5  and  C_1 
REMARK    2  A    between atoms: N_6  and  C_1 
REMARK       I    between atoms: C_2  and  N_3 
REMARK    3  A    between atoms: C_4  and  C_2 
REMARK    4  A    between atoms: N_3  and  N_5 
REMARK    5  A    between atoms: C_11  and  N_6 
ROOT
ATOM      1  N   UNL d   1     -47.718  13.040  22.345  0.00  0.00    -0.273 N 
ATOM      2  H   UNL d   1     -47.753  12.413  21.819  0.00  0.00     0.189 HD
ENDROOT
BRANCH   1   3
ATOM      3  N   UNL d   1     -48.386  13.527  22.442  0.00  0.00    -0.264 N 
ATOM      4  C   UNL d   1     -49.084  13.377  22.034  0.00  0.00     0.272 C 
ATOM      5  O   UNL d   1     -49.125  12.739  21.522  0.00  0.00    -0.266 OA
ATOM      6  H   UNL d   1     -48.345  14.179  22.965  0.00  0.00     0.190 HD
BRANCH   4   7
ATOM      7  C   UNL d   1     -49.742  13.861  22.134  0.00  0.00     0.058 A 
ATOM      8  C   UNL d   1     -49.749  14.440  22.732  0.00  0.00     0.011 A 
ATOM      9  C   UNL d   1     -50.412  14.919  22.823  0.00  0.00     0.035 A 
ATOM     10 BR   UNL d   1     -50.424  15.492  23.411  0.00  0.00    -0.049 Br
ATOM     11  C   UNL d   1     -51.061  14.828  22.331  0.00  0.00     0.007 A 
ATOM     12  C   UNL d   1     -51.059  14.257  21.738  0.00  0.00     0.001 A 
ATOM     13  C   UNL d   1     -50.391  13.770  21.642  0.00  0.00     0.005 A 
ENDBRANCH   4   7
ENDBRANCH   1   3
BRANCH   1  14
ATOM     14  C   UNL d   1     -47.037  13.191  22.772  0.00  0.00     0.191 C 
ATOM     15  S   UNL d   1     -46.506  13.774  22.529  0.00  0.00    -0.039 SA
BRANCH  14  16
ATOM     16  N   UNL d   1     -46.888  12.748  23.456  0.00  0.00    -0.331 N 
ATOM     17  H   UNL d   1     -47.263  12.934  24.160  0.00  0.00     0.168 HD
BRANCH  16  18
ATOM     18  C   UNL d   1     -46.364  12.128  23.411  0.00  0.00     0.058 A 
ATOM     19  C   UNL d   1     -46.599  11.375  23.698  0.00  0.00     0.017 A 
ATOM     20  C   UNL d   1     -46.072  10.738  23.656  0.00  0.00     0.002 A 
ATOM     21  C   UNL d   1     -45.319  10.840  23.334  0.00  0.00     0.000 A 
ATOM     22  C   UNL d   1     -45.085  11.591  23.048  0.00  0.00     0.002 A 
ATOM     23  C   UNL d   1     -45.612  12.229  23.089  0.00  0.00     0.017 A 
ENDBRANCH  16  18
ENDBRANCH  14  16
ENDBRANCH   1  14
TORSDOF 5
ENDMDL
MODEL 3
REMARK VINA RESULT:      -5.4      8.793      9.340
REMARK  5 active torsions:
REMARK  status: ('A' for Active; 'I' for Inactive)
REMARK    1  A    between atoms: N_5  and  C_1 
REMARK    2  A    between atoms: N_6  and  C_1 
REMARK       I    between atoms: C_2  and  N_3 
REMARK    3  A    between atoms: C_4  and  C_2 
REMARK    4  A    between atoms: N_3  and  N_5 
REMARK    5  A    between atoms: C_11  and  N_6 
ROOT
ATOM      1  N   UNL d   1     -39.750  14.559  19.729  0.00  0.00    -0.273 N 
ATOM      2  H   UNL d   1     -40.476  14.937  19.734  0.00  0.00     0.189 HD
ENDROOT
BRANCH   1   3
ATOM      3  N   UNL d   1     -39.361  14.415  20.451  0.00  0.00    -0.264 N 
ATOM      4  C   UNL d   1     -39.743  14.533  21.170  0.00  0.00     0.272 C 
ATOM      5  O   UNL d   1     -40.518  14.796  21.179  0.00  0.00    -0.266 OA
ATOM      6  H   UNL d   1     -38.569  14.145  20.442  0.00  0.00     0.190 HD
BRANCH   4   7
ATOM      7  C   UNL d   1     -39.354  14.388  21.880  0.00  0.00     0.058 A 
ATOM      8  C   UNL d   1     -39.074  15.023  22.341  0.00  0.00     0.011 A 
ATOM      9  C   UNL d   1     -38.686  14.866  23.050  0.00  0.00     0.035 A 
ATOM     10 BR   UNL d   1     -38.408  15.488  23.510  0.00  0.00    -0.049 Br
ATOM     11  C   UNL d   1     -38.576  14.094  23.302  0.00  0.00     0.007 A 
ATOM     12  C   UNL d   1     -38.851  13.464  22.850  0.00  0.00     0.001 A 
ATOM     13  C   UNL d   1     -39.243  13.617  22.132  0.00  0.00     0.005 A 
ENDBRANCH   4   7
ENDBRANCH   1   3
BRANCH   1  14
ATOM     14  C   UNL d   1     -39.405  14.324  19.025  0.00  0.00     0.191 C 
ATOM     15  S   UNL d   1     -38.587  14.362  18.922  0.00  0.00    -0.039 SA
BRANCH  14  16
ATOM     16  N   UNL d   1     -39.892  14.047  18.416  0.00  0.00    -0.331 N 
ATOM     17  H   UNL d   1     -40.203  13.290  18.446  0.00  0.00     0.168 HD
BRANCH  16  18
ATOM     18  C   UNL d   1     -40.052  14.542  17.790  0.00  0.00     0.058 A 
ATOM     19  C   UNL d   1     -40.810  14.897  17.736  0.00  0.00     0.017 A 
ATOM     20  C   UNL d   1     -40.982  15.402  17.103  0.00  0.00     0.002 A 
ATOM     21  C   UNL d   1     -40.412  15.557  16.526  0.00  0.00     0.000 A 
ATOM     22  C   UNL d   1     -39.655  15.202  16.581  0.00  0.00     0.002 A 
ATOM     23  C   UNL d   1     -39.483  14.697  17.214  0.00  0.00     0.017 A 
ENDBRANCH  16  18
ENDBRANCH  14  16
ENDBRANCH   1  14
TORSDOF 5
ENDMDL
