MODEL 1
REMARK VINA RESULT:      19.6      0.000      0.000
REMARK  3 active torsions:
REMARK  status: ('A' for Active; 'I' for Inactive)
REMARK    1  A    between atoms: N_3  and  C_1 
REMARK    2  A    between atoms: N_6  and  N_2 
REMARK    3  A    between atoms: S_5  and  N_6 
ROOT
ATOM      1  C   UNL d   1      13.389  12.159  -2.183  0.00  0.00     0.771 A 
ATOM      2  N   UNL d   1      14.029  12.284  -1.673  0.00  0.00    -0.026 N 
ATOM      3  N   UNL d   1      12.769  11.848  -1.741  0.00  0.00     0.048 NA
ATOM      4  C   UNL d   1      13.804  12.051  -0.920  0.00  0.00     0.204 A 
ATOM      5  N   UNL d   1      13.024  11.780  -0.960  0.00  0.00    -0.112 NA
ATOM      6  C   UNL d   1      14.272  12.080  -0.245  0.00  0.00     0.044 C 
ENDROOT
BRANCH   1   7
ATOM      7  N   UNL d   1      13.382  12.322  -2.997  0.00  0.00    -0.056 N 
ATOM      8  N   UNL d   1      13.523  11.781  -3.606  0.00  0.00    -0.150 NA
ATOM      9  C   UNL d   1      13.460  12.184  -4.323  0.00  0.00     0.103 A 
ATOM     10  C   UNL d   1      13.559  11.856  -5.078  0.00  0.00     0.022 C 
ATOM     11  C   UNL d   1      13.282  12.968  -4.158  0.00  0.00     0.041 A 
ATOM     12  C   UNL d   1      13.233  13.056  -3.339  0.00  0.00     0.102 A 
ATOM     13  C   UNL d   1      13.065  13.757  -2.937  0.00  0.00     0.021 C 
ENDBRANCH   1   7
BRANCH   2  14
ATOM     14  N   UNL d   1      14.763  12.591  -1.892  0.00  0.00    -0.059 NA
BRANCH  14  15
ATOM     15  S   UNL d   1      15.402  12.552  -1.358  0.00  0.00     0.282 S 
ATOM     16  O   UNL d   1      15.608  11.785  -1.545  0.00  0.00    -0.201 OA
ATOM     17  O   UNL d   1      15.186  13.330  -1.175  0.00  0.00    -0.201 OA
ATOM     18  C   UNL d   1      16.009  12.593  -0.814  0.00  0.00     0.167 C 
ENDBRANCH  14  15
ENDBRANCH   2  14
TORSDOF 3
ENDMDL
MODEL 2
REMARK VINA RESULT:      20.8      1.348      2.024
REMARK  3 active torsions:
REMARK  status: ('A' for Active; 'I' for Inactive)
REMARK    1  A    between atoms: N_3  and  C_1 
REMARK    2  A    between atoms: N_6  and  N_2 
REMARK    3  A    between atoms: S_5  and  N_6 
ROOT
ATOM      1  C   UNL d   1      14.663  12.318  -1.348  0.00  0.00     0.771 A 
ATOM      2  N   UNL d   1      14.809  13.058  -1.008  0.00  0.00    -0.026 N 
ATOM      3  N   UNL d   1      15.193  11.780  -1.021  0.00  0.00     0.048 NA
ATOM      4  C   UNL d   1      15.426  12.977  -0.475  0.00  0.00     0.204 A 
ATOM      5  N   UNL d   1      15.665  12.186  -0.481  0.00  0.00    -0.112 NA
ATOM      6  C   UNL d   1      15.750  13.576  -0.014  0.00  0.00     0.044 C 
ENDROOT
BRANCH   1   7
ATOM      7  N   UNL d   1      14.082  12.155  -1.917  0.00  0.00    -0.056 N 
ATOM      8  N   UNL d   1      14.170  12.210  -2.737  0.00  0.00    -0.150 NA
ATOM      9  C   UNL d   1      13.453  11.997  -3.085  0.00  0.00     0.103 A 
ATOM     10  C   UNL d   1      13.292  11.974  -3.897  0.00  0.00     0.022 C 
ATOM     11  C   UNL d   1      12.925  11.812  -2.484  0.00  0.00     0.041 A 
ATOM     12  C   UNL d   1      13.311  11.909  -1.761  0.00  0.00     0.102 A 
ATOM     13  C   UNL d   1      12.981  11.781  -1.016  0.00  0.00     0.021 C 
ENDBRANCH   1   7
BRANCH   2  14
ATOM     14  N   UNL d   1      14.400  13.754  -1.181  0.00  0.00    -0.059 NA
BRANCH  14  15
ATOM     15  S   UNL d   1      14.691  14.484  -0.903  0.00  0.00     0.282 S 
ATOM     16  O   UNL d   1      14.586  14.308  -0.113  0.00  0.00    -0.201 OA
ATOM     17  O   UNL d   1      14.794  14.653  -1.706  0.00  0.00    -0.201 OA
ATOM     18  C   UNL d   1      14.987  15.220  -0.710  0.00  0.00     0.167 C 
ENDBRANCH  14  15
ENDBRANCH   2  14
TORSDOF 3
ENDMDL
