MODEL 1
REMARK VINA RESULT:      -2.9      0.000      0.000
REMARK  2 active torsions:
REMARK  status: ('A' for Active; 'I' for Inactive)
REMARK    1  A    between atoms: C_6  and  C_1 
REMARK    2  A    between atoms: N_8  and  C_6 
ROOT
ATOM      1  C   UNL d   1      30.703  17.142 -24.898  0.00  0.00     0.090 C 
ENDROOT
BRANCH   1   2
ATOM      2  C   UNL d   1      30.034  16.723 -24.651  0.00  0.00     0.133 A 
ATOM      3  C   UNL d   1      30.039  15.899 -24.685  0.00  0.00     0.289 A 
ATOM      4  N   UNL d   1      29.375  15.473 -24.441  0.00  0.00    -0.151 NA
ATOM      5  O   UNL d   1      30.704  15.492 -24.962  0.00  0.00    -0.265 OA
ATOM      6  C   UNL d   1      28.709  15.878 -24.165  0.00  0.00     0.374 A 
ATOM      7  N   UNL d   1      28.705  16.703 -24.131  0.00  0.00    -0.151 NA
ATOM      8  O   UNL d   1      28.045  15.453 -23.921  0.00  0.00    -0.242 OA
ATOM      9  C   UNL d   1      29.380  17.128 -24.379  0.00  0.00     0.289 A 
ATOM     10  O   UNL d   1      29.379  17.945 -24.347  0.00  0.00    -0.265 OA
ENDBRANCH   1   2
BRANCH   1  11
ATOM     11  N   UNL d   1      31.305  17.309 -24.361  0.00  0.00    -0.304 N 
ATOM     12  C   UNL d   1      31.921  17.855 -24.471  0.00  0.00     0.064 A 
ATOM     13  C   UNL d   1      32.391  17.840 -23.796  0.00  0.00     0.018 A 
ATOM     14  C   UNL d   1      32.105  18.356 -25.094  0.00  0.00     0.018 A 
ATOM     15  C   UNL d   1      33.055  18.333 -23.744  0.00  0.00     0.002 A 
ATOM     16  C   UNL d   1      32.078  17.294 -23.270  0.00  0.00     0.021 A 
ATOM     17  C   UNL d   1      33.237  18.834 -24.372  0.00  0.00     0.000 A 
ATOM     18  C   UNL d   1      32.761  18.845 -25.047  0.00  0.00     0.002 A 
ATOM     19  C   UNL d   1      31.406  16.961 -23.612  0.00  0.00     0.080 A 
ENDBRANCH   1  11
TORSDOF 2
ENDMDL
MODEL 2
REMARK VINA RESULT:      -2.7      1.262      1.922
REMARK  2 active torsions:
REMARK  status: ('A' for Active; 'I' for Inactive)
REMARK    1  A    between atoms: C_6  and  C_1 
REMARK    2  A    between atoms: N_8  and  C_6 
ROOT
ATOM      1  C   UNL d   1      30.489  15.470 -23.661  0.00  0.00     0.090 C 
ENDROOT
BRANCH   1   2
ATOM      2  C   UNL d   1      29.663  15.466 -23.655  0.00  0.00     0.133 A 
ATOM      3  C   UNL d   1      29.264  15.471 -22.932  0.00  0.00     0.289 A 
ATOM      4  N   UNL d   1      28.439  15.467 -22.917  0.00  0.00    -0.151 NA
ATOM      5  O   UNL d   1      29.684  15.479 -22.219  0.00  0.00    -0.265 OA
ATOM      6  C   UNL d   1      28.018  15.459 -23.629  0.00  0.00     0.374 A 
ATOM      7  N   UNL d   1      28.417  15.455 -24.352  0.00  0.00    -0.151 NA
ATOM      8  O   UNL d   1      27.192  15.456 -23.615  0.00  0.00    -0.242 OA
ATOM      9  C   UNL d   1      29.252  15.459 -24.360  0.00  0.00     0.289 A 
ATOM     10  O   UNL d   1      29.651  15.454 -25.074  0.00  0.00    -0.265 OA
ENDBRANCH   1   2
BRANCH   1  11
ATOM     11  N   UNL d   1      30.898  16.178 -23.764  0.00  0.00    -0.304 N 
ATOM     12  C   UNL d   1      31.706  16.302 -23.619  0.00  0.00     0.064 A 
ATOM     13  C   UNL d   1      31.872  17.088 -23.797  0.00  0.00     0.018 A 
ATOM     14  C   UNL d   1      32.298  15.802 -23.350  0.00  0.00     0.018 A 
ATOM     15  C   UNL d   1      32.644  17.377 -23.705  0.00  0.00     0.002 A 
ATOM     16  C   UNL d   1      31.183  17.452 -24.050  0.00  0.00     0.021 A 
ATOM     17  C   UNL d   1      33.236  16.872 -23.435  0.00  0.00     0.000 A 
ATOM     18  C   UNL d   1      33.062  16.085 -23.258  0.00  0.00     0.002 A 
ATOM     19  C   UNL d   1      30.574  16.896 -24.033  0.00  0.00     0.080 A 
ENDBRANCH   1  11
TORSDOF 2
ENDMDL
MODEL 3
REMARK VINA RESULT:      -2.3      2.681      4.205
REMARK  2 active torsions:
REMARK  status: ('A' for Active; 'I' for Inactive)
REMARK    1  A    between atoms: C_6  and  C_1 
REMARK    2  A    between atoms: N_8  and  C_6 
ROOT
ATOM      1  C   UNL d   1      33.241  18.244 -23.728  0.00  0.00     0.090 C 
ENDROOT
BRANCH   1   2
ATOM      2  C   UNL d   1      33.238  18.985 -23.360  0.00  0.00     0.133 A 
ATOM      3  C   UNL d   1      33.237  19.026 -22.535  0.00  0.00     0.289 A 
ATOM      4  N   UNL d   1      33.233  19.762 -22.160  0.00  0.00    -0.151 NA
ATOM      5  O   UNL d   1      33.240  18.336 -22.079  0.00  0.00    -0.265 OA
ATOM      6  C   UNL d   1      33.231  20.452 -22.616  0.00  0.00     0.374 A 
ATOM      7  N   UNL d   1      33.232  20.410 -23.440  0.00  0.00    -0.151 NA
ATOM      8  O   UNL d   1      33.227  21.187 -22.240  0.00  0.00    -0.242 OA
ATOM      9  C   UNL d   1      33.235  19.663 -23.813  0.00  0.00     0.289 A 
ATOM     10  O   UNL d   1      33.236  19.618 -24.630  0.00  0.00    -0.265 OA
ENDBRANCH   1   2
BRANCH   1  11
ATOM     11  N   UNL d   1      32.530  17.874 -23.915  0.00  0.00    -0.304 N 
ATOM     12  C   UNL d   1      32.435  17.079 -24.135  0.00  0.00     0.064 A 
ATOM     13  C   UNL d   1      31.633  16.952 -24.269  0.00  0.00     0.018 A 
ATOM     14  C   UNL d   1      32.975  16.468 -24.227  0.00  0.00     0.018 A 
ATOM     15  C   UNL d   1      31.368  16.201 -24.499  0.00  0.00     0.002 A 
ATOM     16  C   UNL d   1      31.230  17.652 -24.136  0.00  0.00     0.021 A 
ATOM     17  C   UNL d   1      31.912  15.589 -24.591  0.00  0.00     0.000 A 
ATOM     18  C   UNL d   1      32.716  15.724 -24.455  0.00  0.00     0.002 A 
ATOM     19  C   UNL d   1      31.777  18.229 -23.916  0.00  0.00     0.080 A 
ENDBRANCH   1  11
TORSDOF 2
ENDMDL
MODEL 4
REMARK VINA RESULT:      -0.5      3.999      5.516
REMARK  2 active torsions:
REMARK  status: ('A' for Active; 'I' for Inactive)
REMARK    1  A    between atoms: C_6  and  C_1 
REMARK    2  A    between atoms: N_8  and  C_6 
ROOT
ATOM      1  C   UNL d   1      32.232  20.816 -22.477  0.00  0.00     0.090 C 
ENDROOT
BRANCH   1   2
ATOM      2  C   UNL d   1      32.476  21.480 -22.049  0.00  0.00     0.133 A 
ATOM      3  C   UNL d   1      32.980  22.028 -22.406  0.00  0.00     0.289 A 
ATOM      4  N   UNL d   1      33.228  22.694 -21.986  0.00  0.00    -0.151 NA
ATOM      5  O   UNL d   1      33.241  21.916 -23.184  0.00  0.00    -0.265 OA
ATOM      6  C   UNL d   1      32.968  22.806 -21.209  0.00  0.00     0.374 A 
ATOM      7  N   UNL d   1      32.464  22.258 -20.852  0.00  0.00    -0.151 NA
ATOM      8  O   UNL d   1      33.216  23.472 -20.789  0.00  0.00    -0.242 OA
ATOM      9  C   UNL d   1      32.217  21.586 -21.283  0.00  0.00     0.289 A 
ATOM     10  O   UNL d   1      31.717  21.042 -20.933  0.00  0.00    -0.265 OA
ENDBRANCH   1   2
BRANCH   1  11
ATOM     11  N   UNL d   1      32.584  20.084 -22.338  0.00  0.00    -0.304 N 
ATOM     12  C   UNL d   1      32.607  19.444 -22.865  0.00  0.00     0.064 A 
ATOM     13  C   UNL d   1      33.012  18.831 -22.495  0.00  0.00     0.018 A 
ATOM     14  C   UNL d   1      32.313  19.349 -23.625  0.00  0.00     0.018 A 
ATOM     15  C   UNL d   1      33.124  18.112 -22.892  0.00  0.00     0.002 A 
ATOM     16  C   UNL d   1      33.240  19.079 -21.748  0.00  0.00     0.021 A 
ATOM     17  C   UNL d   1      32.827  18.019 -23.655  0.00  0.00     0.000 A 
ATOM     18  C   UNL d   1      32.422  18.639 -24.021  0.00  0.00     0.002 A 
ATOM     19  C   UNL d   1      32.979  19.854 -21.642  0.00  0.00     0.080 A 
ENDBRANCH   1  11
TORSDOF 2
ENDMDL
