MODEL 1
REMARK VINA RESULT:      42.9      0.000      0.000
REMARK  3 active torsions:
REMARK  status: ('A' for Active; 'I' for Inactive)
REMARK    1  A    between atoms: C_11  and  N_2 
REMARK    2  A    between atoms: C_9  and  N_3 
REMARK    3  A    between atoms: C_10  and  C_12 
ROOT
ATOM      1  C   UNL d   1      45.849 -15.115  44.079  0.00  0.00     0.339 A 
ATOM      2  N   UNL d   1      45.371 -14.457  44.209  0.00  0.00    -0.258 N 
ATOM      3  N   UNL d   1      45.405 -15.799  44.226  0.00  0.00    -0.258 N 
ATOM      4  S   UNL d   1      43.421 -15.178  44.808  0.00  0.00     0.214 S 
ATOM      5  C   UNL d   1      44.615 -14.732  44.441  0.00  0.00     0.097 A 
ATOM      6  C   UNL d   1      44.646 -15.562  44.448  0.00  0.00     0.097 A 
ATOM      7  C   UNL d   1      43.859 -14.502  44.662  0.00  0.00     0.118 A 
ATOM      8  C   UNL d   1      43.897 -15.832  44.678  0.00  0.00     0.118 A 
ATOM      9  O   UNL d   1      46.643 -15.100  43.841  0.00  0.00    -0.245 OA
ATOM     10  O   UNL d   1      42.976 -15.868  44.955  0.00  0.00    -0.217 OA
ATOM     11  O   UNL d   1      42.896 -14.553  44.952  0.00  0.00    -0.217 OA
ENDROOT
BRANCH   3  12
ATOM     12  C   UNL d   1      45.671 -16.580  44.162  0.00  0.00     0.068 A 
ATOM     13  C   UNL d   1      45.655 -16.966  43.435  0.00  0.00     0.021 A 
ATOM     14  C   UNL d   1      45.918 -17.740  43.366  0.00  0.00     0.073 A 
ATOM     15  C   UNL d   1      46.200 -18.135  44.034  0.00  0.00     0.004 A 
ATOM     16  C   UNL d   1      46.221 -17.755  44.768  0.00  0.00     0.001 A 
ATOM     17  C   UNL d   1      45.954 -16.975  44.829  0.00  0.00     0.018 A 
BRANCH  14  18
ATOM     18  C   UNL d   1      45.901 -18.126  42.635  0.00  0.00     0.419 C 
ATOM     19  F   UNL d   1      45.889 -18.475  41.966  0.00  0.00    -0.166 F 
ATOM     20  F   UNL d   1      46.385 -17.981  41.931  0.00  0.00    -0.166 F 
ATOM     21  F   UNL d   1      45.401 -18.775  42.369  0.00  0.00    -0.166 F 
ENDBRANCH  14  18
ENDBRANCH   3  12
BRANCH   2  22
ATOM     22  C   UNL d   1      45.591 -13.663  44.127  0.00  0.00     0.068 A 
ATOM     23  C   UNL d   1      45.528 -13.294  43.392  0.00  0.00     0.016 A 
ATOM     24  C   UNL d   1      45.248 -13.708  42.738  0.00  0.00     0.002 C 
ATOM     25  C   UNL d   1      45.751 -12.498  43.321  0.00  0.00     0.001 A 
ATOM     26  C   UNL d   1      46.031 -12.084  43.975  0.00  0.00     0.000 A 
ATOM     27  C   UNL d   1      46.091 -12.459  44.705  0.00  0.00     0.002 A 
ATOM     28  C   UNL d   1      45.871 -13.248  44.780  0.00  0.00     0.018 A 
ENDBRANCH   2  22
TORSDOF 3
ENDMDL
