MODEL 1
REMARK VINA RESULT:      26.1      0.000      0.000
REMARK  9 active torsions:
REMARK  status: ('A' for Active; 'I' for Inactive)
REMARK    1  A    between atoms: C_9  and  C_1 
REMARK    2  A    between atoms: N_8  and  C_2 
REMARK    3  A    between atoms: C_10  and  C_4 
REMARK    4  A    between atoms: C_6  and  N_7 
REMARK    5  A    between atoms: N_7  and  N_8 
REMARK    6  A    between atoms: O_18  and  C_9 
REMARK    7  A    between atoms: O_19  and  C_10 
REMARK    8  A    between atoms: C_23  and  O_18 
REMARK    9  A    between atoms: C_24  and  O_19 
ROOT
ATOM      1  C   UNL d   1      46.280 -18.628  43.204  0.00  0.00     0.090 A 
ATOM      2  C   UNL d   1      46.068 -17.869  43.057  0.00  0.00     0.138 A 
ATOM      3  C   UNL d   1      46.404 -18.984  42.498  0.00  0.00     0.018 A 
ATOM      4  C   UNL d   1      46.285 -18.501  41.902  0.00  0.00     0.095 A 
ATOM      5  S   UNL d   1      46.067 -17.775  42.215  0.00  0.00    -0.061 SA
ATOM      6  C   UNL d   1      46.645 -19.816  42.377  0.00  0.00     0.001 C 
ENDROOT
BRANCH   2   7
ATOM      7  N   UNL d   1      45.899 -17.344  43.670  0.00  0.00    -0.141 NA
BRANCH   7   8
ATOM      8  N   UNL d   1      46.268 -16.587  43.731  0.00  0.00    -0.141 NA
BRANCH   8   9
ATOM      9  C   UNL d   1      45.842 -15.927  44.068  0.00  0.00     0.180 A 
ATOM     10  C   UNL d   1      46.051 -15.151  43.791  0.00  0.00     0.218 A 
ATOM     11  O   UNL d   1      46.644 -15.083  43.222  0.00  0.00    -0.285 OA
ATOM     12  C   UNL d   1      45.657 -14.495  44.098  0.00  0.00     0.044 A 
ATOM     13  C   UNL d   1      45.064 -14.564  44.667  0.00  0.00     0.007 A 
ATOM     14  C   UNL d   1      44.843 -15.326  44.953  0.00  0.00     0.044 A 
ATOM     15  C   UNL d   1      45.238 -16.013  44.649  0.00  0.00     0.218 A 
ATOM     16  O   UNL d   1      45.023 -16.737  44.926  0.00  0.00    -0.285 OA
ENDBRANCH   8   9
ENDBRANCH   7   8
ENDBRANCH   2   7
BRANCH   1  17
ATOM     17  C   UNL d   1      46.354 -18.972  43.968  0.00  0.00     0.302 C 
ATOM     18  O   UNL d   1      46.617 -18.517  44.619  0.00  0.00    -0.259 OA
BRANCH  17  19
ATOM     19  O   UNL d   1      46.158 -19.794  44.074  0.00  0.00    -0.271 OA
BRANCH  19  20
ATOM     20  C   UNL d   1      45.941 -20.075  44.820  0.00  0.00     0.126 C 
ATOM     21  C   UNL d   1      45.151 -20.267  44.955  0.00  0.00     0.029 C 
ENDBRANCH  19  20
ENDBRANCH  17  19
ENDBRANCH   1  17
BRANCH   4  22
ATOM     22  C   UNL d   1      46.367 -18.701  41.089  0.00  0.00     0.306 C 
ATOM     23  O   UNL d   1      46.257 -19.456  40.839  0.00  0.00    -0.258 OA
BRANCH  22  24
ATOM     24  O   UNL d   1      46.564 -18.087  40.580  0.00  0.00    -0.271 OA
BRANCH  24  25
ATOM     25  C   UNL d   1      46.346 -18.156  39.763  0.00  0.00     0.126 C 
ATOM     26  C   UNL d   1      45.867 -17.596  39.437  0.00  0.00     0.029 C 
ENDBRANCH  24  25
ENDBRANCH  22  24
ENDBRANCH   4  22
TORSDOF 9
ENDMDL
