MODEL 1
REMARK VINA RESULT:       1.2      0.000      0.000
REMARK  2 active torsions:
REMARK  status: ('A' for Active; 'I' for Inactive)
REMARK    1  A    between atoms: N_7  and  C_3 
REMARK    2  A    between atoms: C_15  and  C_5 
ROOT
ATOM      1  N   UNL d   1      58.866  -0.153  30.658  0.00  0.00    -0.196 N 
ATOM      2  C   UNL d   1      58.111  -0.390  30.946  0.00  0.00     0.167 A 
ATOM      3  C   UNL d   1      59.135  -0.439  29.926  0.00  0.00     0.153 A 
ATOM      4  N   UNL d   1      59.064   0.638  31.827  0.00  0.00    -0.163 NA
ATOM      5  C   UNL d   1      57.849  -0.112  31.661  0.00  0.00     0.055 A 
ATOM      6  N   UNL d   1      57.651  -0.904  30.492  0.00  0.00    -0.227 NA
ATOM      7  C   UNL d   1      58.669  -0.945  29.489  0.00  0.00     0.052 A 
ATOM      8  C   UNL d   1      58.321   0.405  32.110  0.00  0.00     0.104 A 
ATOM      9  C   UNL d   1      57.913  -1.186  29.771  0.00  0.00     0.086 A 
ATOM     10  C   UNL d   1      58.778  -1.309  28.769  0.00  0.00     0.005 A 
ATOM     11  C   UNL d   1      58.047   0.682  32.833  0.00  0.00     0.023 C 
ATOM     12  C   UNL d   1      57.575  -1.692  29.217  0.00  0.00     0.019 A 
ATOM     13  C   UNL d   1      58.120  -1.767  28.590  0.00  0.00     0.002 A 
ENDROOT
BRANCH   3  14
ATOM     14  N   UNL d   1      59.897  -0.202  29.632  0.00  0.00    -0.274 N 
ATOM     15  C   UNL d   1      60.731  -0.319  29.655  0.00  0.00     0.149 A 
ATOM     16  N   UNL d   1      61.086   0.229  29.116  0.00  0.00    -0.225 NA
ATOM     17  C   UNL d   1      61.133  -0.878  30.126  0.00  0.00     0.041 C 
ATOM     18  C   UNL d   1      60.461   0.679  28.767  0.00  0.00     0.120 A 
ATOM     19  C   UNL d   1      59.737   0.419  29.079  0.00  0.00     0.104 A 
ENDBRANCH   3  14
BRANCH   5  20
ATOM     20  C   UNL d   1      57.109  -0.344  31.943  0.00  0.00     0.004 A 
ATOM     21  C   UNL d   1      56.465   0.170  31.890  0.00  0.00     0.000 A 
ATOM     22  C   UNL d   1      55.728  -0.057  32.170  0.00  0.00     0.000 A 
ATOM     23  C   UNL d   1      55.629  -0.807  32.507  0.00  0.00     0.000 A 
ATOM     24  C   UNL d   1      56.259  -1.320  32.563  0.00  0.00     0.000 A 
ATOM     25  C   UNL d   1      57.006  -1.086  32.279  0.00  0.00     0.000 A 
ENDBRANCH   5  20
TORSDOF 2
ENDMDL
MODEL 2
REMARK VINA RESULT:       2.0      0.994      4.303
REMARK  2 active torsions:
REMARK  status: ('A' for Active; 'I' for Inactive)
REMARK    1  A    between atoms: N_7  and  C_3 
REMARK    2  A    between atoms: C_15  and  C_5 
ROOT
ATOM      1  N   UNL d   1      57.695  -0.182  31.051  0.00  0.00    -0.196 N 
ATOM      2  C   UNL d   1      58.472  -0.085  30.741  0.00  0.00     0.167 A 
ATOM      3  C   UNL d   1      57.546  -0.010  31.850  0.00  0.00     0.153 A 
ATOM      4  N   UNL d   1      57.239  -0.613  29.771  0.00  0.00    -0.163 NA
ATOM      5  C   UNL d   1      58.618  -0.251  29.962  0.00  0.00     0.055 A 
ATOM      6  N   UNL d   1      59.074   0.180  31.242  0.00  0.00    -0.227 NA
ATOM      7  C   UNL d   1      58.150   0.250  32.331  0.00  0.00     0.052 A 
ATOM      8  C   UNL d   1      58.005  -0.517  29.467  0.00  0.00     0.104 A 
ATOM      9  C   UNL d   1      58.930   0.349  32.029  0.00  0.00     0.086 A 
ATOM     10  C   UNL d   1      58.175   0.457  33.118  0.00  0.00     0.005 A 
ATOM     11  C   UNL d   1      58.161  -0.684  28.678  0.00  0.00     0.023 C 
ATOM     12  C   UNL d   1      59.415   0.615  32.638  0.00  0.00     0.019 A 
ATOM     13  C   UNL d   1      58.939   0.682  33.319  0.00  0.00     0.002 A 
ENDROOT
BRANCH   3  14
ATOM     14  N   UNL d   1      56.763  -0.107  32.166  0.00  0.00    -0.274 N 
ATOM     15  C   UNL d   1      56.187  -0.637  32.477  0.00  0.00     0.149 A 
ATOM     16  N   UNL d   1      55.493  -0.188  32.665  0.00  0.00    -0.225 NA
ATOM     17  C   UNL d   1      56.285  -1.460  32.582  0.00  0.00     0.041 C 
ATOM     18  C   UNL d   1      55.654   0.617  32.464  0.00  0.00     0.120 A 
ATOM     19  C   UNL d   1      56.425   0.669  32.161  0.00  0.00     0.104 A 
ENDBRANCH   3  14
BRANCH   5  20
ATOM     20  C   UNL d   1      59.379  -0.156  29.659  0.00  0.00     0.004 A 
ATOM     21  C   UNL d   1      59.630   0.583  29.390  0.00  0.00     0.000 A 
ATOM     22  C   UNL d   1      60.386   0.681  29.089  0.00  0.00     0.000 A 
ATOM     23  C   UNL d   1      60.902   0.034  29.053  0.00  0.00     0.000 A 
ATOM     24  C   UNL d   1      60.663  -0.699  29.315  0.00  0.00     0.000 A 
ATOM     25  C   UNL d   1      59.894  -0.795  29.621  0.00  0.00     0.000 A 
ENDBRANCH   5  20
TORSDOF 2
ENDMDL
MODEL 3
REMARK VINA RESULT:       3.9      1.184      2.455
REMARK  2 active torsions:
REMARK  status: ('A' for Active; 'I' for Inactive)
REMARK    1  A    between atoms: N_7  and  C_3 
REMARK    2  A    between atoms: C_15  and  C_5 
ROOT
ATOM      1  N   UNL d   1      57.703  -0.832  30.955  0.00  0.00    -0.196 N 
ATOM      2  C   UNL d   1      57.637  -0.420  31.686  0.00  0.00     0.167 A 
ATOM      3  C   UNL d   1      58.371  -0.714  30.475  0.00  0.00     0.153 A 
ATOM      4  N   UNL d   1      56.447  -1.460  31.196  0.00  0.00    -0.163 NA
ATOM      5  C   UNL d   1      56.986  -0.534  32.155  0.00  0.00     0.055 A 
ATOM      6  N   UNL d   1      58.242   0.095  31.913  0.00  0.00    -0.227 NA
ATOM      7  C   UNL d   1      58.960  -0.203  30.713  0.00  0.00     0.052 A 
ATOM      8  C   UNL d   1      56.382  -1.055  31.916  0.00  0.00     0.104 A 
ATOM      9  C   UNL d   1      58.901   0.212  31.443  0.00  0.00     0.086 A 
ATOM     10  C   UNL d   1      59.663   0.022  30.371  0.00  0.00     0.005 A 
ATOM     11  C   UNL d   1      55.726  -1.164  32.397  0.00  0.00     0.023 C 
ATOM     12  C   UNL d   1      59.571   0.682  31.533  0.00  0.00     0.019 A 
ATOM     13  C   UNL d   1      60.047   0.560  30.859  0.00  0.00     0.002 A 
ENDROOT
BRANCH   3  14
ATOM     14  N   UNL d   1      58.440  -1.128  29.736  0.00  0.00    -0.274 N 
ATOM     15  C   UNL d   1      58.358  -1.096  28.898  0.00  0.00     0.149 A 
ATOM     16  N   UNL d   1      58.575  -1.854  28.586  0.00  0.00    -0.225 NA
ATOM     17  C   UNL d   1      58.108  -0.434  28.455  0.00  0.00     0.041 C 
ATOM     18  C   UNL d   1      58.788  -2.343  29.241  0.00  0.00     0.120 A 
ATOM     19  C   UNL d   1      58.707  -1.904  29.941  0.00  0.00     0.104 A 
ENDBRANCH   3  14
BRANCH   5  20
ATOM     20  C   UNL d   1      56.922  -0.131  32.872  0.00  0.00     0.004 A 
ATOM     21  C   UNL d   1      56.222   0.260  33.067  0.00  0.00     0.000 A 
ATOM     22  C   UNL d   1      56.155   0.662  33.778  0.00  0.00     0.000 A 
ATOM     23  C   UNL d   1      56.794   0.676  34.306  0.00  0.00     0.000 A 
ATOM     24  C   UNL d   1      57.488   0.292  34.121  0.00  0.00     0.000 A 
ATOM     25  C   UNL d   1      57.552  -0.115  33.397  0.00  0.00     0.000 A 
ENDBRANCH   5  20
TORSDOF 2
ENDMDL
