MODEL 1
REMARK VINA RESULT:      -8.2      0.000      0.000
REMARK  5 active torsions:
REMARK  status: ('A' for Active; 'I' for Inactive)
REMARK    1  A    between atoms: C_5  and  C_1 
REMARK    2  A    between atoms: C_2  and  C_5 
REMARK    3  A    between atoms: C_7  and  C_2 
REMARK    4  A    between atoms: N_4  and  C_11 
REMARK       I    between atoms: N_12  and  C_7 
REMARK    5  A    between atoms: C_17  and  N_12 
ROOT
ATOM      1  C   UNL d   1     -48.582  12.499  23.199  0.00  0.00     0.126 C 
ATOM      2  C   UNL d   1     -48.975  11.803  23.377  0.00  0.00     0.106 C 
ATOM      3  N   UNL d   1     -49.371  11.098  23.555  0.00  0.00    -0.191 NA
ENDROOT
BRANCH   1   4
ATOM      4  C   UNL d   1     -48.906  13.226  23.429  0.00  0.00     0.017 C 
BRANCH   4   5
ATOM      5  C   UNL d   1     -49.538  13.550  23.012  0.00  0.00     0.020 A 
ATOM      6  C   UNL d   1     -49.934  13.187  22.381  0.00  0.00     0.080 A 
ATOM      7  N   UNL d   1     -50.533  13.707  22.124  0.00  0.00    -0.303 N 
ATOM      8  C   UNL d   1     -51.061  13.571  21.511  0.00  0.00     0.100 C 
ATOM      9  C   UNL d   1     -50.501  14.389  22.599  0.00  0.00     0.064 A 
ATOM     10  C   UNL d   1     -49.883  14.289  23.150  0.00  0.00     0.018 A 
ATOM     11  C   UNL d   1     -50.948  15.083  22.607  0.00  0.00     0.018 A 
ATOM     12  C   UNL d   1     -49.723  14.883  23.697  0.00  0.00     0.002 A 
ATOM     13  C   UNL d   1     -50.171  15.571  23.698  0.00  0.00     0.000 A 
ATOM     14  C   UNL d   1     -50.781  15.673  23.157  0.00  0.00     0.002 A 
ENDBRANCH   4   5
ENDBRANCH   1   4
BRANCH   1  15
ATOM     15  C   UNL d   1     -47.862  12.480  22.791  0.00  0.00     0.289 C 
ATOM     16  N   UNL d   1     -47.164  12.674  23.189  0.00  0.00    -0.207 NA
ATOM     17  O   UNL d   1     -47.845  12.269  21.999  0.00  0.00    -0.264 OA
BRANCH  16  18
ATOM     18  C   UNL d   1     -46.384  12.699  22.918  0.00  0.00     0.086 A 
ATOM     19  C   UNL d   1     -45.866  12.092  23.101  0.00  0.00     0.043 A 
ATOM     20  C   UNL d   1     -45.088  12.116  22.831  0.00  0.00     0.128 A 
ATOM     21  C   UNL d   1     -44.834  12.763  22.371  0.00  0.00     0.024 A 
ATOM     22  C   UNL d   1     -45.365  13.372  22.191  0.00  0.00     0.003 A 
ATOM     23  C   UNL d   1     -46.135  13.335  22.465  0.00  0.00     0.019 A 
BRANCH  20  24
ATOM     24  N   UNL d   1     -44.562  11.505  23.013  0.00  0.00    -0.114 N 
ATOM     25  O   UNL d   1     -44.762  10.956  23.595  0.00  0.00    -0.532 OA
ATOM     26  O   UNL d   1     -43.839  11.449  22.612  0.00  0.00    -0.532 OA
ENDBRANCH  20  24
ENDBRANCH  16  18
ENDBRANCH   1  15
TORSDOF 5
ENDMDL
MODEL 2
REMARK VINA RESULT:      -8.1      0.876      1.167
REMARK  5 active torsions:
REMARK  status: ('A' for Active; 'I' for Inactive)
REMARK    1  A    between atoms: C_5  and  C_1 
REMARK    2  A    between atoms: C_2  and  C_5 
REMARK    3  A    between atoms: C_7  and  C_2 
REMARK    4  A    between atoms: N_4  and  C_11 
REMARK       I    between atoms: N_12  and  C_7 
REMARK    5  A    between atoms: C_17  and  N_12 
ROOT
ATOM      1  C   UNL d   1     -48.986  12.185  23.418  0.00  0.00     0.126 C 
ATOM      2  C   UNL d   1     -49.581  11.639  23.558  0.00  0.00     0.106 C 
ATOM      3  N   UNL d   1     -50.181  11.086  23.698  0.00  0.00    -0.191 NA
ENDROOT
BRANCH   1   4
ATOM      4  C   UNL d   1     -49.129  12.991  23.541  0.00  0.00     0.017 C 
BRANCH   4   5
ATOM      5  C   UNL d   1     -49.666  13.396  23.065  0.00  0.00     0.020 A 
ATOM      6  C   UNL d   1     -50.066  13.077  22.414  0.00  0.00     0.080 A 
ATOM      7  N   UNL d   1     -50.551  13.675  22.095  0.00  0.00    -0.303 N 
ATOM      8  C   UNL d   1     -51.045  13.602  21.444  0.00  0.00     0.100 C 
ATOM      9  C   UNL d   1     -50.446  14.361  22.554  0.00  0.00     0.064 A 
ATOM     10  C   UNL d   1     -49.895  14.185  23.155  0.00  0.00     0.018 A 
ATOM     11  C   UNL d   1     -50.773  15.118  22.506  0.00  0.00     0.018 A 
ATOM     12  C   UNL d   1     -49.683  14.767  23.698  0.00  0.00     0.002 A 
ATOM     13  C   UNL d   1     -50.013  15.517  23.644  0.00  0.00     0.000 A 
ATOM     14  C   UNL d   1     -50.555  15.694  23.053  0.00  0.00     0.002 A 
ENDBRANCH   4   5
ENDBRANCH   1   4
BRANCH   1  15
ATOM     15  C   UNL d   1     -48.242  11.934  23.154  0.00  0.00     0.289 C 
ATOM     16  N   UNL d   1     -47.562  12.231  23.516  0.00  0.00    -0.207 NA
ATOM     17  O   UNL d   1     -48.185  11.394  22.540  0.00  0.00    -0.264 OA
BRANCH  16  18
ATOM     18  C   UNL d   1     -46.765  12.076  23.363  0.00  0.00     0.086 A 
ATOM     19  C   UNL d   1     -46.318  12.608  22.930  0.00  0.00     0.043 A 
ATOM     20  C   UNL d   1     -45.523  12.453  22.777  0.00  0.00     0.128 A 
ATOM     21  C   UNL d   1     -45.179  11.752  23.068  0.00  0.00     0.024 A 
ATOM     22  C   UNL d   1     -45.638  11.220  23.505  0.00  0.00     0.003 A 
ATOM     23  C   UNL d   1     -46.427  11.386  23.650  0.00  0.00     0.019 A 
BRANCH  20  24
ATOM     24  N   UNL d   1     -45.069  12.987  22.340  0.00  0.00    -0.114 N 
ATOM     25  O   UNL d   1     -44.398  12.720  21.941  0.00  0.00    -0.532 OA
ATOM     26  O   UNL d   1     -45.290  13.786  22.305  0.00  0.00    -0.532 OA
ENDBRANCH  20  24
ENDBRANCH  16  18
ENDBRANCH   1  15
TORSDOF 5
ENDMDL
MODEL 3
REMARK VINA RESULT:      -5.5      7.835      9.710
REMARK  5 active torsions:
REMARK  status: ('A' for Active; 'I' for Inactive)
REMARK    1  A    between atoms: C_5  and  C_1 
REMARK    2  A    between atoms: C_2  and  C_5 
REMARK    3  A    between atoms: C_7  and  C_2 
REMARK    4  A    between atoms: N_4  and  C_11 
REMARK       I    between atoms: N_12  and  C_7 
REMARK    5  A    between atoms: C_17  and  N_12 
ROOT
ATOM      1  C   UNL d   1     -40.619  14.878  20.592  0.00  0.00     0.126 C 
ATOM      2  C   UNL d   1     -41.157  14.287  20.768  0.00  0.00     0.106 C 
ATOM      3  N   UNL d   1     -41.702  13.688  20.943  0.00  0.00    -0.191 NA
ENDROOT
BRANCH   1   4
ATOM      4  C   UNL d   1     -40.195  15.244  21.201  0.00  0.00     0.017 C 
BRANCH   4   5
ATOM      5  C   UNL d   1     -39.634  14.819  21.631  0.00  0.00     0.020 A 
ATOM      6  C   UNL d   1     -39.390  14.045  21.468  0.00  0.00     0.080 A 
ATOM      7  N   UNL d   1     -38.819  13.834  22.037  0.00  0.00    -0.303 N 
ATOM      8  C   UNL d   1     -38.428  13.114  22.086  0.00  0.00     0.100 C 
ATOM      9  C   UNL d   1     -38.714  14.482  22.548  0.00  0.00     0.064 A 
ATOM     10  C   UNL d   1     -39.222  15.093  22.293  0.00  0.00     0.018 A 
ATOM     11  C   UNL d   1     -38.230  14.599  23.206  0.00  0.00     0.018 A 
ATOM     12  C   UNL d   1     -39.235  15.808  22.701  0.00  0.00     0.002 A 
ATOM     13  C   UNL d   1     -38.751  15.917  23.354  0.00  0.00     0.000 A 
ATOM     14  C   UNL d   1     -38.250  15.318  23.608  0.00  0.00     0.002 A 
ENDBRANCH   4   5
ENDBRANCH   1   4
BRANCH   1  15
ATOM     15  C   UNL d   1     -40.498  15.113  19.806  0.00  0.00     0.289 C 
ATOM     16  N   UNL d   1     -40.369  14.538  19.227  0.00  0.00    -0.207 NA
ATOM     17  O   UNL d   1     -40.506  15.908  19.610  0.00  0.00    -0.264 OA
BRANCH  16  18
ATOM     18  C   UNL d   1     -40.235  14.619  18.416  0.00  0.00     0.086 A 
ATOM     19  C   UNL d   1     -39.530  14.362  18.088  0.00  0.00     0.043 A 
ATOM     20  C   UNL d   1     -39.396  14.442  17.279  0.00  0.00     0.128 A 
ATOM     21  C   UNL d   1     -39.982  14.788  16.799  0.00  0.00     0.024 A 
ATOM     22  C   UNL d   1     -40.692  15.045  17.139  0.00  0.00     0.003 A 
ATOM     23  C   UNL d   1     -40.813  14.959  17.944  0.00  0.00     0.019 A 
BRANCH  20  24
ATOM     24  N   UNL d   1     -38.686  14.184  16.944  0.00  0.00    -0.114 N 
ATOM     25  O   UNL d   1     -38.552  13.375  16.847  0.00  0.00    -0.532 OA
ATOM     26  O   UNL d   1     -38.114  14.736  16.709  0.00  0.00    -0.532 OA
ENDBRANCH  20  24
ENDBRANCH  16  18
ENDBRANCH   1  15
TORSDOF 5
ENDMDL
MODEL 4
REMARK VINA RESULT:      -5.3      1.307      2.032
REMARK  5 active torsions:
REMARK  status: ('A' for Active; 'I' for Inactive)
REMARK    1  A    between atoms: C_5  and  C_1 
REMARK    2  A    between atoms: C_2  and  C_5 
REMARK    3  A    between atoms: C_7  and  C_2 
REMARK    4  A    between atoms: N_4  and  C_11 
REMARK       I    between atoms: N_12  and  C_7 
REMARK    5  A    between atoms: C_17  and  N_12 
ROOT
ATOM      1  C   UNL d   1     -47.776  14.027  22.837  0.00  0.00     0.126 C 
ATOM      2  C   UNL d   1     -47.653  14.812  22.640  0.00  0.00     0.106 C 
ATOM      3  N   UNL d   1     -47.528  15.606  22.440  0.00  0.00    -0.191 NA
ENDROOT
BRANCH   1   4
ATOM      4  C   UNL d   1     -48.443  13.812  23.279  0.00  0.00     0.017 C 
BRANCH   4   5
ATOM      5  C   UNL d   1     -49.174  13.724  22.910  0.00  0.00     0.020 A 
ATOM      6  C   UNL d   1     -49.462  14.196  22.293  0.00  0.00     0.080 A 
ATOM      7  N   UNL d   1     -50.219  13.916  22.089  0.00  0.00    -0.303 N 
ATOM      8  C   UNL d   1     -50.707  14.221  21.504  0.00  0.00     0.100 C 
ATOM      9  C   UNL d   1     -50.394  13.270  22.584  0.00  0.00     0.064 A 
ATOM     10  C   UNL d   1     -49.744  13.153  23.093  0.00  0.00     0.018 A 
ATOM     11  C   UNL d   1     -51.053  12.775  22.640  0.00  0.00     0.018 A 
ATOM     12  C   UNL d   1     -49.764  12.545  23.648  0.00  0.00     0.002 A 
ATOM     13  C   UNL d   1     -50.422  12.057  23.698  0.00  0.00     0.000 A 
ATOM     14  C   UNL d   1     -51.064  12.169  23.199  0.00  0.00     0.002 A 
ENDBRANCH   4   5
ENDBRANCH   1   4
BRANCH   1  15
ATOM     15  C   UNL d   1     -47.235  13.447  22.597  0.00  0.00     0.289 C 
ATOM     16  N   UNL d   1     -46.602  13.253  23.092  0.00  0.00    -0.207 NA
ATOM     17  O   UNL d   1     -47.330  13.072  21.875  0.00  0.00    -0.264 OA
BRANCH  16  18
ATOM     18  C   UNL d   1     -45.994  12.704  22.988  0.00  0.00     0.086 A 
ATOM     19  C   UNL d   1     -45.336  12.899  22.543  0.00  0.00     0.043 A 
ATOM     20  C   UNL d   1     -44.728  12.352  22.439  0.00  0.00     0.128 A 
ATOM     21  C   UNL d   1     -44.790  11.599  22.792  0.00  0.00     0.024 A 
ATOM     22  C   UNL d   1     -45.459  11.411  23.241  0.00  0.00     0.003 A 
ATOM     23  C   UNL d   1     -46.056  11.964  23.336  0.00  0.00     0.019 A 
BRANCH  20  24
ATOM     24  N   UNL d   1     -44.062  12.545  21.990  0.00  0.00    -0.114 N 
ATOM     25  O   UNL d   1     -44.070  13.225  21.523  0.00  0.00    -0.532 OA
ATOM     26  O   UNL d   1     -43.392  12.057  22.012  0.00  0.00    -0.532 OA
ENDBRANCH  20  24
ENDBRANCH  16  18
ENDBRANCH   1  15
TORSDOF 5
ENDMDL
MODEL 5
REMARK VINA RESULT:      -5.3      1.589      4.879
REMARK  5 active torsions:
REMARK  status: ('A' for Active; 'I' for Inactive)
REMARK    1  A    between atoms: C_5  and  C_1 
REMARK    2  A    between atoms: C_2  and  C_5 
REMARK    3  A    between atoms: C_7  and  C_2 
REMARK    4  A    between atoms: N_4  and  C_11 
REMARK       I    between atoms: N_12  and  C_7 
REMARK    5  A    between atoms: C_17  and  N_12 
ROOT
ATOM      1  C   UNL d   1     -48.008  12.002  23.425  0.00  0.00     0.126 C 
ATOM      2  C   UNL d   1     -48.045  11.196  23.561  0.00  0.00     0.106 C 
ATOM      3  N   UNL d   1     -48.085  10.380  23.698  0.00  0.00    -0.191 NA
ENDROOT
BRANCH   1   4
ATOM      4  C   UNL d   1     -47.347  12.433  23.677  0.00  0.00     0.017 C 
BRANCH   4   5
ATOM      5  C   UNL d   1     -46.594  12.235  23.407  0.00  0.00     0.020 A 
ATOM      6  C   UNL d   1     -46.210  11.512  23.539  0.00  0.00     0.080 A 
ATOM      7  N   UNL d   1     -45.464  11.549  23.170  0.00  0.00    -0.303 N 
ATOM      8  C   UNL d   1     -44.899  10.955  23.161  0.00  0.00     0.100 C 
ATOM      9  C   UNL d   1     -45.392  12.297  22.812  0.00  0.00     0.064 A 
ATOM     10  C   UNL d   1     -46.095  12.721  22.961  0.00  0.00     0.018 A 
ATOM     11  C   UNL d   1     -44.787  12.648  22.375  0.00  0.00     0.018 A 
ATOM     12  C   UNL d   1     -46.180  13.486  22.670  0.00  0.00     0.002 A 
ATOM     13  C   UNL d   1     -45.573  13.829  22.235  0.00  0.00     0.000 A 
ATOM     14  C   UNL d   1     -44.880  13.415  22.087  0.00  0.00     0.002 A 
ENDBRANCH   4   5
ENDBRANCH   1   4
BRANCH   1  15
ATOM     15  C   UNL d   1     -48.628  12.390  23.036  0.00  0.00     0.289 C 
ATOM     16  N   UNL d   1     -49.112  12.908  23.460  0.00  0.00    -0.207 NA
ATOM     17  O   UNL d   1     -48.757  12.258  22.238  0.00  0.00    -0.264 OA
BRANCH  16  18
ATOM     18  C   UNL d   1     -49.759  13.358  23.211  0.00  0.00     0.086 A 
ATOM     19  C   UNL d   1     -49.740  14.174  23.276  0.00  0.00     0.043 A 
ATOM     20  C   UNL d   1     -50.386  14.623  23.028  0.00  0.00     0.128 A 
ATOM     21  C   UNL d   1     -51.055  14.240  22.712  0.00  0.00     0.024 A 
ATOM     22  C   UNL d   1     -51.064  13.415  22.651  0.00  0.00     0.003 A 
ATOM     23  C   UNL d   1     -50.417  12.980  22.900  0.00  0.00     0.019 A 
BRANCH  20  24
ATOM     24  N   UNL d   1     -50.371  15.447  23.091  0.00  0.00    -0.114 N 
ATOM     25  O   UNL d   1     -51.019  15.842  23.415  0.00  0.00    -0.532 OA
ATOM     26  O   UNL d   1     -49.708  15.870  22.829  0.00  0.00    -0.532 OA
ENDBRANCH  20  24
ENDBRANCH  16  18
ENDBRANCH   1  15
TORSDOF 5
ENDMDL
