MODEL 1
REMARK VINA RESULT:      23.7      0.000      0.000
REMARK  1 active torsions:
REMARK  status: ('A' for Active; 'I' for Inactive)
REMARK       I    between atoms: C_4  and  N_1 
REMARK    1  A    between atoms: C_7  and  C_4 
ROOT
ATOM      1  N   UNL d   1      44.284 -15.372  36.825  0.00  0.00    -0.175 N 
ATOM      2  N   UNL d   1      44.385 -16.099  36.437  0.00  0.00    -0.057 NA
ATOM      3  N   UNL d   1      45.185 -16.224  36.335  0.00  0.00    -0.129 NA
ATOM      4  C   UNL d   1      43.556 -15.030  37.039  0.00  0.00     0.282 C 
ATOM      5  C   UNL d   1      45.029 -15.048  36.963  0.00  0.00     0.107 A 
ATOM      6  C   UNL d   1      45.589 -15.574  36.660  0.00  0.00     0.122 A 
ATOM      7  O   UNL d   1      43.547 -14.305  37.422  0.00  0.00    -0.265 OA
ATOM      8  C   UNL d   1      45.275 -14.350  37.321  0.00  0.00     0.021 A 
ATOM      9  C   UNL d   1      46.403 -15.396  36.718  0.00  0.00     0.022 A 
ATOM     10  C   UNL d   1      46.079 -14.174  37.378  0.00  0.00     0.002 A 
ATOM     11  C   UNL d   1      46.646 -14.694  37.078  0.00  0.00     0.002 A 
ENDROOT
BRANCH   4  12
ATOM     12  C   UNL d   1      42.854 -15.423  36.863  0.00  0.00     0.058 A 
ATOM     13  C   UNL d   1      42.128 -15.073  37.040  0.00  0.00     0.005 A 
ATOM     14  C   UNL d   1      41.427 -15.466  36.864  0.00  0.00     0.000 A 
ATOM     15  C   UNL d   1      41.440 -16.209  36.510  0.00  0.00     0.000 A 
ATOM     16  C   UNL d   1      42.165 -16.560  36.332  0.00  0.00     0.000 A 
ATOM     17  C   UNL d   1      40.723 -16.600  36.335  0.00  0.00     0.000 C 
ATOM     18  C   UNL d   1      42.869 -16.170  36.507  0.00  0.00     0.005 A 
ENDBRANCH   4  12
TORSDOF 1
ENDMDL
MODEL 2
REMARK VINA RESULT:      24.8      1.052      3.878
REMARK  1 active torsions:
REMARK  status: ('A' for Active; 'I' for Inactive)
REMARK       I    between atoms: C_4  and  N_1 
REMARK    1  A    between atoms: C_7  and  C_4 
ROOT
ATOM      1  N   UNL d   1      43.173 -15.636  36.643  0.00  0.00    -0.175 N 
ATOM      2  N   UNL d   1      43.038 -14.819  36.703  0.00  0.00    -0.057 NA
ATOM      3  N   UNL d   1      42.236 -14.687  36.633  0.00  0.00    -0.129 NA
ATOM      4  C   UNL d   1      43.913 -16.014  36.685  0.00  0.00     0.282 C 
ATOM      5  C   UNL d   1      42.446 -16.009  36.535  0.00  0.00     0.107 A 
ATOM      6  C   UNL d   1      41.864 -15.423  36.528  0.00  0.00     0.122 A 
ATOM      7  O   UNL d   1      43.956 -16.830  36.615  0.00  0.00    -0.265 OA
ATOM      8  C   UNL d   1      42.233 -16.798  36.441  0.00  0.00     0.021 A 
ATOM      9  C   UNL d   1      41.062 -15.633  36.427  0.00  0.00     0.022 A 
ATOM     10  C   UNL d   1      41.441 -17.005  36.342  0.00  0.00     0.002 A 
ATOM     11  C   UNL d   1      40.852 -16.425  36.334  0.00  0.00     0.002 A 
ENDROOT
BRANCH   4  12
ATOM     12  C   UNL d   1      44.593 -15.563  36.795  0.00  0.00     0.058 A 
ATOM     13  C   UNL d   1      44.610 -14.971  37.369  0.00  0.00     0.005 A 
ATOM     14  C   UNL d   1      45.290 -14.521  37.479  0.00  0.00     0.000 A 
ATOM     15  C   UNL d   1      45.960 -14.656  37.021  0.00  0.00     0.000 A 
ATOM     16  C   UNL d   1      45.946 -15.248  36.447  0.00  0.00     0.000 A 
ATOM     17  C   UNL d   1      46.646 -14.194  37.140  0.00  0.00     0.000 C 
ATOM     18  C   UNL d   1      45.266 -15.700  36.333  0.00  0.00     0.005 A 
ENDBRANCH   4  12
TORSDOF 1
ENDMDL
MODEL 3
REMARK VINA RESULT:      26.4      6.864      7.320
REMARK  1 active torsions:
REMARK  status: ('A' for Active; 'I' for Inactive)
REMARK       I    between atoms: C_4  and  N_1 
REMARK    1  A    between atoms: C_7  and  C_4 
ROOT
ATOM      1  N   UNL d   1      46.192 -18.913  42.683  0.00  0.00    -0.175 N 
ATOM      2  N   UNL d   1      46.090 -18.107  42.854  0.00  0.00    -0.057 NA
ATOM      3  N   UNL d   1      46.187 -18.003  43.658  0.00  0.00    -0.129 NA
ATOM      4  C   UNL d   1      46.140 -19.263  41.931  0.00  0.00     0.282 C 
ATOM      5  C   UNL d   1      46.353 -19.307  43.389  0.00  0.00     0.107 A 
ATOM      6  C   UNL d   1      46.350 -18.746  43.995  0.00  0.00     0.122 A 
ATOM      7  O   UNL d   1      46.255 -20.071  41.851  0.00  0.00    -0.265 OA
ATOM      8  C   UNL d   1      46.501 -20.097  43.564  0.00  0.00     0.021 A 
ATOM      9  C   UNL d   1      46.498 -18.980  44.782  0.00  0.00     0.022 A 
ATOM     10  C   UNL d   1      46.647 -20.328  44.343  0.00  0.00     0.002 A 
ATOM     11  C   UNL d   1      46.646 -19.773  44.954  0.00  0.00     0.002 A 
ENDROOT
BRANCH   4  12
ATOM     12  C   UNL d   1      45.974 -18.794  41.275  0.00  0.00     0.058 A 
ATOM     13  C   UNL d   1      45.205 -18.527  41.140  0.00  0.00     0.005 A 
ATOM     14  C   UNL d   1      45.040 -18.058  40.484  0.00  0.00     0.000 A 
ATOM     15  C   UNL d   1      45.636 -17.850  39.957  0.00  0.00     0.000 A 
ATOM     16  C   UNL d   1      46.406 -18.116  40.089  0.00  0.00     0.000 A 
ATOM     17  C   UNL d   1      45.458 -17.373  39.293  0.00  0.00     0.000 C 
ATOM     18  C   UNL d   1      46.575 -18.585  40.745  0.00  0.00     0.005 A 
ENDBRANCH   4  12
TORSDOF 1
ENDMDL
