MODEL 1
REMARK VINA RESULT:      -4.3      0.000      0.000
REMARK  7 active torsions:
REMARK  status: ('A' for Active; 'I' for Inactive)
REMARK    1  A    between atoms: C_6  and  C_1 
REMARK    2  A    between atoms: C_7  and  C_3 
REMARK    3  A    between atoms: O_14  and  C_6 
REMARK    4  A    between atoms: C_8  and  C_7 
REMARK    5  A    between atoms: S_10  and  C_8 
REMARK    6  A    between atoms: C_13  and  S_10 
REMARK    7  A    between atoms: C_22  and  O_14 
ROOT
ATOM      1  C   UNL d   1     -41.561-122.447 -53.671  0.00  0.00     0.083 A 
ATOM      2  C   UNL d   1     -41.563-122.023 -52.966  0.00  0.00     0.028 A 
ATOM      3  C   UNL d   1     -41.404-122.532 -52.382  0.00  0.00     0.121 A 
ATOM      4  N   UNL d   1     -41.299-123.286 -52.710  0.00  0.00    -0.242 NA
ATOM      5  C   UNL d   1     -41.401-123.200 -53.487  0.00  0.00     0.087 A 
ATOM      6  C   UNL d   1     -41.707-121.223 -52.924  0.00  0.00     0.002 C 
ATOM      7  C   UNL d   1     -41.352-123.817 -54.082  0.00  0.00     0.021 C 
ENDROOT
BRANCH   3   8
ATOM      8  C   UNL d   1     -41.369-122.252 -51.596  0.00  0.00     0.220 C 
ATOM      9  O   UNL d   1     -41.123-121.500 -51.435  0.00  0.00    -0.284 OA
BRANCH   8  10
ATOM     10  C   UNL d   1     -41.592-122.757 -50.976  0.00  0.00     0.079 C 
BRANCH  10  11
ATOM     11  S   UNL d   1     -41.299-122.642 -50.229  0.00  0.00    -0.083 SA
BRANCH  11  12
ATOM     12  C   UNL d   1     -41.729-122.945 -49.574  0.00  0.00     0.030 A 
ATOM     13  C   UNL d   1     -41.347-123.415 -49.007  0.00  0.00     0.007 A 
ATOM     14  C   UNL d   1     -41.775-123.695 -48.389  0.00  0.00     0.012 A 
ATOM     15  C   UNL d   1     -42.580-123.536 -48.293  0.00  0.00     0.058 A 
ATOM     16  C   UNL d   1     -42.930-123.083 -48.847  0.00  0.00     0.012 A 
ATOM     17 CL   UNL d   1     -43.043-123.817 -47.657  0.00  0.00    -0.082 Cl
ATOM     18  C   UNL d   1     -42.532-122.780 -49.488  0.00  0.00     0.007 A 
ENDBRANCH  11  12
ENDBRANCH  10  11
ENDBRANCH   8  10
ENDBRANCH   3   8
BRANCH   1  19
ATOM     19  C   UNL d   1     -41.705-122.127 -54.439  0.00  0.00     0.302 C 
ATOM     20  O   UNL d   1     -41.126-121.638 -54.799  0.00  0.00    -0.259 OA
BRANCH  19  21
ATOM     21  O   UNL d   1     -42.412-122.283 -54.856  0.00  0.00    -0.271 OA
BRANCH  21  22
ATOM     22  C   UNL d   1     -42.412-122.158 -55.674  0.00  0.00     0.126 C 
ATOM     23  C   UNL d   1     -43.130-121.972 -56.075  0.00  0.00     0.029 C 
ENDBRANCH  21  22
ENDBRANCH  19  21
ENDBRANCH   1  19
TORSDOF 7
ENDMDL
MODEL 2
REMARK VINA RESULT:      -4.1      2.288      5.249
REMARK  7 active torsions:
REMARK  status: ('A' for Active; 'I' for Inactive)
REMARK    1  A    between atoms: C_6  and  C_1 
REMARK    2  A    between atoms: C_7  and  C_3 
REMARK    3  A    between atoms: O_14  and  C_6 
REMARK    4  A    between atoms: C_8  and  C_7 
REMARK    5  A    between atoms: S_10  and  C_8 
REMARK    6  A    between atoms: C_13  and  S_10 
REMARK    7  A    between atoms: C_22  and  O_14 
ROOT
ATOM      1  C   UNL d   1     -42.297-122.839 -49.638  0.00  0.00     0.083 A 
ATOM      2  C   UNL d   1     -41.803-122.376 -50.107  0.00  0.00     0.028 A 
ATOM      3  C   UNL d   1     -41.982-122.528 -50.861  0.00  0.00     0.121 A 
ATOM      4  N   UNL d   1     -42.591-123.090 -50.881  0.00  0.00    -0.242 NA
ATOM      5  C   UNL d   1     -42.757-123.256 -50.128  0.00  0.00     0.087 A 
ATOM      6  C   UNL d   1     -41.246-121.867 -49.803  0.00  0.00     0.002 C 
ATOM      7  C   UNL d   1     -43.350-123.807 -49.844  0.00  0.00     0.021 C 
ENDROOT
BRANCH   3   8
ATOM      8  C   UNL d   1     -41.564-122.132 -51.466  0.00  0.00     0.220 C 
ATOM      9  O   UNL d   1     -41.123-121.476 -51.303  0.00  0.00    -0.284 OA
BRANCH   8  10
ATOM     10  C   UNL d   1     -41.606-122.421 -52.244  0.00  0.00     0.079 C 
BRANCH  10  11
ATOM     11  S   UNL d   1     -41.266-122.007 -52.853  0.00  0.00    -0.083 SA
BRANCH  11  12
ATOM     12  C   UNL d   1     -41.576-122.100 -53.628  0.00  0.00     0.030 A 
ATOM     13  C   UNL d   1     -42.043-121.502 -53.964  0.00  0.00     0.007 A 
ATOM     14  C   UNL d   1     -42.329-121.610 -54.706  0.00  0.00     0.012 A 
ATOM     15  C   UNL d   1     -42.180-122.291 -55.149  0.00  0.00     0.058 A 
ATOM     16  C   UNL d   1     -41.731-122.854 -54.810  0.00  0.00     0.012 A 
ATOM     17 CL   UNL d   1     -42.469-122.422 -55.921  0.00  0.00    -0.082 Cl
ATOM     18  C   UNL d   1     -41.421-122.784 -54.062  0.00  0.00     0.007 A 
ENDBRANCH  11  12
ENDBRANCH  10  11
ENDBRANCH   8  10
ENDBRANCH   3   8
BRANCH   1  19
ATOM     19  C   UNL d   1     -42.300-122.857 -48.794  0.00  0.00     0.302 C 
ATOM     20  O   UNL d   1     -42.848-122.381 -48.372  0.00  0.00    -0.259 OA
BRANCH  19  21
ATOM     21  O   UNL d   1     -41.772-123.337 -48.361  0.00  0.00    -0.271 OA
BRANCH  21  22
ATOM     22  C   UNL d   1     -41.954-123.495 -47.569  0.00  0.00     0.126 C 
ATOM     23  C   UNL d   1     -41.343-123.529 -46.991  0.00  0.00     0.029 C 
ENDBRANCH  21  22
ENDBRANCH  19  21
ENDBRANCH   1  19
TORSDOF 7
ENDMDL
MODEL 3
REMARK VINA RESULT:      -2.1      0.852      1.370
REMARK  7 active torsions:
REMARK  status: ('A' for Active; 'I' for Inactive)
REMARK    1  A    between atoms: C_6  and  C_1 
REMARK    2  A    between atoms: C_7  and  C_3 
REMARK    3  A    between atoms: O_14  and  C_6 
REMARK    4  A    between atoms: C_8  and  C_7 
REMARK    5  A    between atoms: S_10  and  C_8 
REMARK    6  A    between atoms: C_13  and  S_10 
REMARK    7  A    between atoms: C_22  and  O_14 
ROOT
ATOM      1  C   UNL d   1     -41.795-122.109 -53.850  0.00  0.00     0.083 A 
ATOM      2  C   UNL d   1     -41.589-122.763 -53.393  0.00  0.00     0.028 A 
ATOM      3  C   UNL d   1     -41.649-122.551 -52.635  0.00  0.00     0.121 A 
ATOM      4  N   UNL d   1     -41.893-121.759 -52.599  0.00  0.00    -0.242 NA
ATOM      5  C   UNL d   1     -41.972-121.523 -53.347  0.00  0.00     0.087 A 
ATOM      6  C   UNL d   1     -41.370-123.479 -53.711  0.00  0.00     0.002 C 
ATOM      7  C   UNL d   1     -42.214-120.745 -53.617  0.00  0.00     0.021 C 
ENDROOT
BRANCH   3   8
ATOM      8  C   UNL d   1     -41.472-123.110 -52.040  0.00  0.00     0.220 C 
ATOM      9  O   UNL d   1     -41.127-123.816 -52.227  0.00  0.00    -0.284 OA
BRANCH   8  10
ATOM     10  C   UNL d   1     -41.654-122.933 -51.250  0.00  0.00     0.079 C 
BRANCH  10  11
ATOM     11  S   UNL d   1     -41.837-123.527 -50.729  0.00  0.00    -0.083 SA
BRANCH  11  12
ATOM     12  C   UNL d   1     -41.894-123.345 -49.911  0.00  0.00     0.030 A 
ATOM     13  C   UNL d   1     -42.636-123.204 -49.567  0.00  0.00     0.007 A 
ATOM     14  C   UNL d   1     -42.669-123.032 -48.784  0.00  0.00     0.012 A 
ATOM     15  C   UNL d   1     -41.997-122.989 -48.305  0.00  0.00     0.058 A 
ATOM     16  C   UNL d   1     -41.294-123.127 -48.653  0.00  0.00     0.012 A 
ATOM     17 CL   UNL d   1     -42.011-122.811 -47.490  0.00  0.00    -0.082 Cl
ATOM     18  C   UNL d   1     -41.217-123.304 -49.443  0.00  0.00     0.007 A 
ENDBRANCH  11  12
ENDBRANCH  10  11
ENDBRANCH   8  10
ENDBRANCH   3   8
BRANCH   1  19
ATOM     19  C   UNL d   1     -41.809-122.081 -54.693  0.00  0.00     0.302 C 
ATOM     20  O   UNL d   1     -41.187-121.697 -55.106  0.00  0.00    -0.259 OA
BRANCH  19  21
ATOM     21  O   UNL d   1     -42.428-122.427 -55.135  0.00  0.00    -0.271 OA
BRANCH  21  22
ATOM     22  C   UNL d   1     -42.466-122.258 -55.944  0.00  0.00     0.126 C 
ATOM     23  C   UNL d   1     -43.207-122.265 -56.345  0.00  0.00     0.029 C 
ENDBRANCH  21  22
ENDBRANCH  19  21
ENDBRANCH   1  19
TORSDOF 7
ENDMDL
MODEL 4
REMARK VINA RESULT:      -1.3      0.985      1.366
REMARK  7 active torsions:
REMARK  status: ('A' for Active; 'I' for Inactive)
REMARK    1  A    between atoms: C_6  and  C_1 
REMARK    2  A    between atoms: C_7  and  C_3 
REMARK    3  A    between atoms: O_14  and  C_6 
REMARK    4  A    between atoms: C_8  and  C_7 
REMARK    5  A    between atoms: S_10  and  C_8 
REMARK    6  A    between atoms: C_13  and  S_10 
REMARK    7  A    between atoms: C_22  and  O_14 
ROOT
ATOM      1  C   UNL d   1     -41.471-122.357 -53.185  0.00  0.00     0.083 A 
ATOM      2  C   UNL d   1     -41.486-122.936 -52.600  0.00  0.00     0.028 A 
ATOM      3  C   UNL d   1     -41.421-122.570 -51.903  0.00  0.00     0.121 A 
ATOM      4  N   UNL d   1     -41.364-121.754 -52.036  0.00  0.00    -0.242 NA
ATOM      5  C   UNL d   1     -41.398-121.660 -52.818  0.00  0.00     0.087 A 
ATOM      6  C   UNL d   1     -41.556-123.731 -52.759  0.00  0.00     0.002 C 
ATOM      7  C   UNL d   1     -41.362-120.917 -53.246  0.00  0.00     0.021 C 
ENDROOT
BRANCH   3   8
ATOM      8  C   UNL d   1     -41.420-123.026 -51.203  0.00  0.00     0.220 C 
ATOM      9  O   UNL d   1     -41.260-123.817 -51.224  0.00  0.00    -0.284 OA
BRANCH   8  10
ATOM     10  C   UNL d   1     -41.587-122.656 -50.478  0.00  0.00     0.079 C 
BRANCH  10  11
ATOM     11  S   UNL d   1     -42.168-122.948 -49.994  0.00  0.00    -0.083 SA
BRANCH  11  12
ATOM     12  C   UNL d   1     -42.044-122.939 -49.163  0.00  0.00     0.030 A 
ATOM     13  C   UNL d   1     -41.308-122.714 -48.854  0.00  0.00     0.007 A 
ATOM     14  C   UNL d   1     -41.211-122.712 -48.057  0.00  0.00     0.012 A 
ATOM     15  C   UNL d   1     -41.811-122.925 -47.532  0.00  0.00     0.058 A 
ATOM     16  C   UNL d   1     -42.511-123.139 -47.846  0.00  0.00     0.012 A 
ATOM     17 CL   UNL d   1     -41.729-122.930 -46.701  0.00  0.00    -0.082 Cl
ATOM     18  C   UNL d   1     -42.651-123.154 -48.647  0.00  0.00     0.007 A 
ENDBRANCH  11  12
ENDBRANCH  10  11
ENDBRANCH   8  10
ENDBRANCH   3   8
BRANCH   1  19
ATOM     19  C   UNL d   1     -41.525-122.494 -54.016  0.00  0.00     0.302 C 
ATOM     20  O   UNL d   1     -41.123-123.149 -54.355  0.00  0.00    -0.259 OA
BRANCH  19  21
ATOM     21  O   UNL d   1     -41.969-121.996 -54.518  0.00  0.00    -0.271 OA
BRANCH  21  22
ATOM     22  C   UNL d   1     -42.147-122.272 -55.278  0.00  0.00     0.126 C 
ATOM     23  C   UNL d   1     -42.576-121.786 -55.816  0.00  0.00     0.029 C 
ENDBRANCH  21  22
ENDBRANCH  19  21
ENDBRANCH   1  19
TORSDOF 7
ENDMDL
