MODEL 1
REMARK VINA RESULT:      -6.6      0.000      0.000
REMARK  8 active torsions:
REMARK  status: ('A' for Active; 'I' for Inactive)
REMARK    1  A    between atoms: C_2  and  S_1 
REMARK    2  A    between atoms: N_13  and  S_1 
REMARK    3  A    between atoms: C_16  and  C_4 
REMARK    4  A    between atoms: O_17  and  C_5 
REMARK    5  A    between atoms: N_8  and  C_18 
REMARK    6  A    between atoms: C_21  and  N_13 
REMARK    7  A    between atoms: C_18  and  C_19 
REMARK    8  A    between atoms: C_19  and  C_21 
ROOT
ATOM      1  C   UNL d   1      52.606  33.234  53.295  0.00  0.00     0.128 A 
ATOM      2  C   UNL d   1      53.113  33.391  53.933  0.00  0.00     0.015 A 
ATOM      3  C   UNL d   1      53.226  34.169  54.184  0.00  0.00     0.001 A 
ATOM      4  C   UNL d   1      52.214  33.851  52.911  0.00  0.00     0.106 A 
ATOM      5  C   UNL d   1      52.831  34.789  53.796  0.00  0.00     0.002 A 
ATOM      6  C   UNL d   1      52.326  34.629  53.161  0.00  0.00     0.025 A 
ATOM      7  C   UNL d   1      52.944  35.567  54.047  0.00  0.00     0.000 C 
ENDROOT
BRANCH   1   8
ATOM      8  S   UNL d   1      52.493  32.456  53.045  0.00  0.00     0.287 S 
ATOM      9  O   UNL d   1      53.160  32.514  52.562  0.00  0.00    -0.198 OA
ATOM     10  O   UNL d   1      51.825  32.397  53.527  0.00  0.00    -0.198 OA
BRANCH   8  11
ATOM     11  N   UNL d   1      52.380  31.673  52.793  0.00  0.00    -0.157 NA
BRANCH  11  12
ATOM     12  C   UNL d   1      52.975  31.109  52.920  0.00  0.00     0.114 C 
BRANCH  12  13
ATOM     13  C   UNL d   1      52.790  30.392  53.284  0.00  0.00     0.041 C 
BRANCH  13  14
ATOM     14  C   UNL d   1      53.373  29.817  53.405  0.00  0.00     0.083 C 
BRANCH  14  15
ATOM     15  N   UNL d   1      53.347  29.326  54.067  0.00  0.00    -0.285 N 
ATOM     16  C   UNL d   1      53.401  28.503  54.055  0.00  0.00     0.183 A 
ATOM     17  N   UNL d   1      53.349  28.240  54.838  0.00  0.00    -0.222 NA
ATOM     18  C   UNL d   1      53.264  28.901  55.326  0.00  0.00     0.120 A 
ATOM     19  C   UNL d   1      53.262  29.574  54.845  0.00  0.00     0.102 A 
ENDBRANCH  14  15
ENDBRANCH  13  14
ENDBRANCH  12  13
ENDBRANCH  11  12
ENDBRANCH   8  11
ENDBRANCH   1   8
BRANCH   4  20
ATOM     20  O   UNL d   1      51.711  33.690  52.279  0.00  0.00    -0.327 OA
ATOM     21  C   UNL d   1      51.255  34.293  51.954  0.00  0.00     0.181 C 
ENDBRANCH   4  20
BRANCH   3  22
ATOM     22  C   UNL d   1      53.728  34.331  54.816  0.00  0.00     0.000 C 
ATOM     23  C   UNL d   1      54.532  34.155  54.761  0.00  0.00     0.000 C 
ATOM     24  C   UNL d   1      53.426  34.668  55.504  0.00  0.00     0.000 C 
ENDBRANCH   3  22
TORSDOF 8
ENDMDL
MODEL 2
REMARK VINA RESULT:      -6.3      1.060      2.023
REMARK  8 active torsions:
REMARK  status: ('A' for Active; 'I' for Inactive)
REMARK    1  A    between atoms: C_2  and  S_1 
REMARK    2  A    between atoms: N_13  and  S_1 
REMARK    3  A    between atoms: C_16  and  C_4 
REMARK    4  A    between atoms: O_17  and  C_5 
REMARK    5  A    between atoms: N_8  and  C_18 
REMARK    6  A    between atoms: C_21  and  N_13 
REMARK    7  A    between atoms: C_18  and  C_19 
REMARK    8  A    between atoms: C_19  and  C_21 
ROOT
ATOM      1  C   UNL d   1      53.605  33.244  53.890  0.00  0.00     0.128 A 
ATOM      2  C   UNL d   1      52.927  33.509  53.490  0.00  0.00     0.015 A 
ATOM      3  C   UNL d   1      52.679  34.291  53.580  0.00  0.00     0.001 A 
ATOM      4  C   UNL d   1      54.030  33.759  54.377  0.00  0.00     0.106 A 
ATOM      5  C   UNL d   1      53.107  34.807  54.070  0.00  0.00     0.002 A 
ATOM      6  C   UNL d   1      53.781  34.540  54.467  0.00  0.00     0.025 A 
ATOM      7  C   UNL d   1      52.858  35.589  54.159  0.00  0.00     0.000 C 
ENDROOT
BRANCH   1   8
ATOM      8  S   UNL d   1      53.854  32.463  53.801  0.00  0.00     0.287 S 
ATOM      9  O   UNL d   1      53.475  32.261  54.505  0.00  0.00    -0.198 OA
ATOM     10  O   UNL d   1      54.234  32.665  53.095  0.00  0.00    -0.198 OA
BRANCH   8  11
ATOM     11  N   UNL d   1      54.104  31.677  53.710  0.00  0.00    -0.157 NA
BRANCH  11  12
ATOM     12  C   UNL d   1      53.547  31.082  53.551  0.00  0.00     0.114 C 
BRANCH  12  13
ATOM     13  C   UNL d   1      53.746  30.291  53.670  0.00  0.00     0.041 C 
BRANCH  13  14
ATOM     14  C   UNL d   1      53.158  29.723  53.803  0.00  0.00     0.083 C 
BRANCH  14  15
ATOM     15  N   UNL d   1      53.269  29.127  54.361  0.00  0.00    -0.285 N 
ATOM     16  C   UNL d   1      53.689  28.428  54.239  0.00  0.00     0.183 A 
ATOM     17  N   UNL d   1      53.658  27.994  54.944  0.00  0.00    -0.222 NA
ATOM     18  C   UNL d   1      53.220  28.428  55.493  0.00  0.00     0.120 A 
ATOM     19  C   UNL d   1      52.979  29.131  55.130  0.00  0.00     0.102 A 
ENDBRANCH  14  15
ENDBRANCH  13  14
ENDBRANCH  12  13
ENDBRANCH  11  12
ENDBRANCH   8  11
ENDBRANCH   1   8
BRANCH   4  20
ATOM     20  O   UNL d   1      54.702  33.492  54.772  0.00  0.00    -0.327 OA
ATOM     21  C   UNL d   1      55.116  34.002  55.266  0.00  0.00     0.181 C 
ENDBRANCH   4  20
BRANCH   3  22
ATOM     22  C   UNL d   1      52.007  34.558  53.184  0.00  0.00     0.000 C 
ATOM     23  C   UNL d   1      52.047  34.747  52.382  0.00  0.00     0.000 C 
ATOM     24  C   UNL d   1      51.296  34.637  53.592  0.00  0.00     0.000 C 
ENDBRANCH   3  22
TORSDOF 8
ENDMDL
