MODEL 1
REMARK VINA RESULT:      -8.8      0.000      0.000
REMARK  3 active torsions:
REMARK  status: ('A' for Active; 'I' for Inactive)
REMARK    1  A    between atoms: C_9  and  C_1 
REMARK       I    between atoms: C_4  and  N_8 
REMARK    2  A    between atoms: C_5  and  C_4 
REMARK    3  A    between atoms: N_8  and  C_17 
ROOT
ATOM      1  C   UNL d   1     -47.668  13.273  23.030  0.00  0.00     0.036 A 
ATOM      2  C   UNL d   1     -47.615  12.694  23.600  0.00  0.00     0.005 A 
ATOM      3  C   UNL d   1     -47.034  13.461  22.560  0.00  0.00     0.005 A 
ATOM      4  C   UNL d   1     -46.259  12.477  23.228  0.00  0.00     0.085 A 
ATOM      5  C   UNL d   1     -46.893  12.289  23.698  0.00  0.00     0.019 A 
ATOM      6  C   UNL d   1     -46.319  13.080  22.637  0.00  0.00     0.019 A 
ENDROOT
BRANCH   1   7
ATOM      7  C   UNL d   1     -48.389  13.677  22.933  0.00  0.00     0.162 A 
ATOM      8  N   UNL d   1     -48.606  14.456  23.145  0.00  0.00    -0.225 NA
ATOM      9  C   UNL d   1     -49.376  14.553  22.917  0.00  0.00     0.101 A 
ATOM     10  C   UNL d   1     -49.905  15.197  22.973  0.00  0.00     0.021 A 
ATOM     11  C   UNL d   1     -49.628  13.844  22.570  0.00  0.00     0.101 A 
ATOM     12  C   UNL d   1     -50.674  15.127  22.684  0.00  0.00     0.002 A 
ATOM     13  C   UNL d   1     -50.925  14.419  22.337  0.00  0.00     0.002 A 
ATOM     14  C   UNL d   1     -50.408  13.779  22.279  0.00  0.00     0.021 A 
ATOM     15  N   UNL d   1     -49.009  13.319  22.589  0.00  0.00    -0.225 NA
ENDBRANCH   1   7
BRANCH   4  16
ATOM     16  N   UNL d   1     -45.537  12.073  23.325  0.00  0.00    -0.206 NA
ATOM     17  C   UNL d   1     -45.504  11.243  23.307  0.00  0.00     0.302 C 
ATOM     18  O   UNL d   1     -46.189  10.824  23.192  0.00  0.00    -0.263 OA
BRANCH  17  19
ATOM     19  C   UNL d   1     -44.806  10.834  23.400  0.00  0.00     0.158 A 
ATOM     20  O   UNL d   1     -44.054  11.095  23.227  0.00  0.00    -0.300 OA
ATOM     21  C   UNL d   1     -43.517  10.479  23.417  0.00  0.00     0.123 A 
ATOM     22  C   UNL d   1     -43.924   9.865  23.695  0.00  0.00     0.029 A 
ATOM     23  C   UNL d   1     -44.713  10.051  23.698  0.00  0.00     0.032 A 
ENDBRANCH  17  19
ENDBRANCH   4  16
TORSDOF 3
ENDMDL
MODEL 2
REMARK VINA RESULT:      -8.1      1.549      1.951
REMARK  3 active torsions:
REMARK  status: ('A' for Active; 'I' for Inactive)
REMARK    1  A    between atoms: C_9  and  C_1 
REMARK       I    between atoms: C_4  and  N_8 
REMARK    2  A    between atoms: C_5  and  C_4 
REMARK    3  A    between atoms: N_8  and  C_17 
ROOT
ATOM      1  C   UNL d   1     -47.635  13.936  22.961  0.00  0.00     0.036 A 
ATOM      2  C   UNL d   1     -47.089  14.499  22.745  0.00  0.00     0.005 A 
ATOM      3  C   UNL d   1     -47.418  13.162  23.077  0.00  0.00     0.005 A 
ATOM      4  C   UNL d   1     -46.077  13.500  22.757  0.00  0.00     0.085 A 
ATOM      5  C   UNL d   1     -46.294  14.273  22.641  0.00  0.00     0.019 A 
ATOM      6  C   UNL d   1     -46.648  12.917  22.982  0.00  0.00     0.019 A 
ENDROOT
BRANCH   1   7
ATOM      7  C   UNL d   1     -48.429  14.162  23.065  0.00  0.00     0.162 A 
ATOM      8  N   UNL d   1     -49.123  13.698  23.105  0.00  0.00    -0.225 NA
ATOM      9  C   UNL d   1     -49.740  14.211  23.211  0.00  0.00     0.101 A 
ATOM     10  C   UNL d   1     -50.563  14.096  23.292  0.00  0.00     0.021 A 
ATOM     11  C   UNL d   1     -49.428  14.978  23.234  0.00  0.00     0.101 A 
ATOM     12  C   UNL d   1     -51.063  14.743  23.395  0.00  0.00     0.002 A 
ATOM     13  C   UNL d   1     -50.752  15.510  23.418  0.00  0.00     0.002 A 
ATOM     14  C   UNL d   1     -49.940  15.631  23.339  0.00  0.00     0.021 A 
ATOM     15  N   UNL d   1     -48.623  14.929  23.143  0.00  0.00    -0.225 NA
ENDBRANCH   1   7
BRANCH   4  16
ATOM     16  N   UNL d   1     -45.282  13.272  22.654  0.00  0.00    -0.206 NA
ATOM     17  C   UNL d   1     -45.016  12.960  21.932  0.00  0.00     0.302 C 
ATOM     18  O   UNL d   1     -45.542  12.877  21.320  0.00  0.00    -0.263 OA
BRANCH  17  19
ATOM     19  C   UNL d   1     -44.243  12.734  21.816  0.00  0.00     0.158 A 
ATOM     20  O   UNL d   1     -43.853  12.110  22.167  0.00  0.00    -0.300 OA
ATOM     21  C   UNL d   1     -43.067  12.099  21.873  0.00  0.00     0.123 A 
ATOM     22  C   UNL d   1     -42.979  12.691  21.363  0.00  0.00     0.029 A 
ATOM     23  C   UNL d   1     -43.678  13.097  21.306  0.00  0.00     0.032 A 
ENDBRANCH  17  19
ENDBRANCH   4  16
TORSDOF 3
ENDMDL
MODEL 3
REMARK VINA RESULT:      -6.6      1.564      5.524
REMARK  3 active torsions:
REMARK  status: ('A' for Active; 'I' for Inactive)
REMARK    1  A    between atoms: C_9  and  C_1 
REMARK       I    between atoms: C_4  and  N_8 
REMARK    2  A    between atoms: C_5  and  C_4 
REMARK    3  A    between atoms: N_8  and  C_17 
ROOT
ATOM      1  C   UNL d   1     -46.595  12.426  22.857  0.00  0.00     0.036 A 
ATOM      2  C   UNL d   1     -46.789  12.996  23.405  0.00  0.00     0.005 A 
ATOM      3  C   UNL d   1     -47.006  12.354  22.160  0.00  0.00     0.005 A 
ATOM      4  C   UNL d   1     -47.833  13.442  22.547  0.00  0.00     0.085 A 
ATOM      5  C   UNL d   1     -47.422  13.513  23.243  0.00  0.00     0.019 A 
ATOM      6  C   UNL d   1     -47.627  12.847  21.980  0.00  0.00     0.019 A 
ENDROOT
BRANCH   1   7
ATOM      7  C   UNL d   1     -45.963  11.909  23.019  0.00  0.00     0.162 A 
ATOM      8  N   UNL d   1     -45.957  11.163  23.397  0.00  0.00    -0.225 NA
ATOM      9  C   UNL d   1     -45.187  10.912  23.402  0.00  0.00     0.101 A 
ATOM     10  C   UNL d   1     -44.821  10.221  23.694  0.00  0.00     0.021 A 
ATOM     11  C   UNL d   1     -44.729  11.495  23.033  0.00  0.00     0.101 A 
ATOM     12  C   UNL d   1     -44.007  10.120  23.617  0.00  0.00     0.002 A 
ATOM     13  C   UNL d   1     -43.548  10.703  23.248  0.00  0.00     0.002 A 
ATOM     14  C   UNL d   1     -43.904  11.388  22.957  0.00  0.00     0.021 A 
ATOM     15  N   UNL d   1     -45.222  12.099  22.805  0.00  0.00    -0.225 NA
ENDBRANCH   1   7
BRANCH   4  16
ATOM     16  N   UNL d   1     -48.465  13.958  22.384  0.00  0.00    -0.206 NA
ATOM     17  C   UNL d   1     -49.178  13.909  22.806  0.00  0.00     0.302 C 
ATOM     18  O   UNL d   1     -49.255  13.346  23.385  0.00  0.00    -0.263 OA
BRANCH  17  19
ATOM     19  C   UNL d   1     -49.805  14.407  22.658  0.00  0.00     0.158 A 
ATOM     20  O   UNL d   1     -50.300  14.399  22.010  0.00  0.00    -0.300 OA
ATOM     21  C   UNL d   1     -50.861  15.016  22.107  0.00  0.00     0.123 A 
ATOM     22  C   UNL d   1     -50.716  15.386  22.785  0.00  0.00     0.029 A 
ATOM     23  C   UNL d   1     -50.078  15.039  23.145  0.00  0.00     0.032 A 
ENDBRANCH  17  19
ENDBRANCH   4  16
TORSDOF 3
ENDMDL
MODEL 4
REMARK VINA RESULT:      -6.2      8.029      9.483
REMARK  3 active torsions:
REMARK  status: ('A' for Active; 'I' for Inactive)
REMARK    1  A    between atoms: C_9  and  C_1 
REMARK       I    between atoms: C_4  and  N_8 
REMARK    2  A    between atoms: C_5  and  C_4 
REMARK    3  A    between atoms: N_8  and  C_17 
ROOT
ATOM      1  C   UNL d   1     -39.804  14.828  20.629  0.00  0.00     0.036 A 
ATOM      2  C   UNL d   1     -40.613  14.821  20.545  0.00  0.00     0.005 A 
ATOM      3  C   UNL d   1     -39.321  15.112  20.040  0.00  0.00     0.005 A 
ATOM      4  C   UNL d   1     -40.467  15.396  19.251  0.00  0.00     0.085 A 
ATOM      5  C   UNL d   1     -40.949  15.112  19.840  0.00  0.00     0.019 A 
ATOM      6  C   UNL d   1     -39.626  15.401  19.344  0.00  0.00     0.019 A 
ENDROOT
BRANCH   1   7
ATOM      7  C   UNL d   1     -39.469  14.538  21.333  0.00  0.00     0.162 A 
ATOM      8  N   UNL d   1     -39.313  14.924  22.058  0.00  0.00    -0.225 NA
ATOM      9  C   UNL d   1     -38.983  14.372  22.549  0.00  0.00     0.101 A 
ATOM     10  C   UNL d   1     -38.708  14.409  23.336  0.00  0.00     0.021 A 
ATOM     11  C   UNL d   1     -38.937  13.658  22.131  0.00  0.00     0.101 A 
ATOM     12  C   UNL d   1     -38.392  13.738  23.697  0.00  0.00     0.002 A 
ATOM     13  C   UNL d   1     -38.346  13.025  23.279  0.00  0.00     0.002 A 
ATOM     14  C   UNL d   1     -38.616  12.981  22.501  0.00  0.00     0.021 A 
ATOM     15  N   UNL d   1     -39.239  13.779  21.388  0.00  0.00    -0.225 NA
ENDBRANCH   1   7
BRANCH   4  16
ATOM     16  N   UNL d   1     -40.802  15.687  18.547  0.00  0.00    -0.206 NA
ATOM     17  C   UNL d   1     -40.881  15.202  17.877  0.00  0.00     0.302 C 
ATOM     18  O   UNL d   1     -40.627  14.433  17.916  0.00  0.00    -0.263 OA
BRANCH  17  19
ATOM     19  C   UNL d   1     -41.206  15.472  17.182  0.00  0.00     0.158 A 
ATOM     20  O   UNL d   1     -41.989  15.644  17.036  0.00  0.00    -0.300 OA
ATOM     21  C   UNL d   1     -42.053  15.903  16.240  0.00  0.00     0.123 A 
ATOM     22  C   UNL d   1     -41.338  15.891  15.912  0.00  0.00     0.029 A 
ATOM     23  C   UNL d   1     -40.800  15.632  16.460  0.00  0.00     0.032 A 
ENDBRANCH  17  19
ENDBRANCH   4  16
TORSDOF 3
ENDMDL
