MODEL 1
REMARK VINA RESULT:      -8.0      0.000      0.000
REMARK  4 active torsions:
REMARK  status: ('A' for Active; 'I' for Inactive)
REMARK    1  A    between atoms: N_7  and  C_3 
REMARK       I    between atoms: C_8  and  N_7 
REMARK    2  A    between atoms: C_10  and  C_8 
REMARK    3  A    between atoms: C_12  and  C_10 
REMARK    4  A    between atoms: C_16  and  C_12 
ROOT
ATOM      1  N   UNL d   1      52.116  34.439  53.160  0.00  0.00    -0.190 NA
ATOM      2  C   UNL d   1      51.380  34.079  53.092  0.00  0.00     0.281 C 
ATOM      3  O   UNL d   1      51.224  33.376  53.495  0.00  0.00    -0.265 OA
ENDROOT
BRANCH   1   4
ATOM      4  C   UNL d   1      52.702  34.097  53.632  0.00  0.00     0.159 A 
ATOM      5  N   UNL d   1      53.098  34.547  54.194  0.00  0.00    -0.241 N 
ATOM      6  C   UNL d   1      53.677  34.208  54.660  0.00  0.00     0.343 A 
ATOM      7  C   UNL d   1      52.909  35.345  54.286  0.00  0.00     0.105 C 
ATOM      8  N   UNL d   1      53.866  33.411  54.567  0.00  0.00    -0.224 N 
ATOM      9  O   UNL d   1      54.074  34.663  55.224  0.00  0.00    -0.245 OA
ATOM     10  C   UNL d   1      53.478  32.944  54.007  0.00  0.00     0.271 A 
ATOM     11  C   UNL d   1      54.452  33.067  55.038  0.00  0.00     0.107 C 
ATOM     12  C   UNL d   1      52.891  33.299  53.539  0.00  0.00     0.099 A 
ATOM     13  O   UNL d   1      53.665  32.154  53.915  0.00  0.00    -0.266 OA
ENDBRANCH   1   4
BRANCH   2  14
ATOM     14  C   UNL d   1      50.797  34.421  52.621  0.00  0.00     0.063 C 
BRANCH  14  15
ATOM     15  C   UNL d   1      50.017  34.184  52.702  0.00  0.00     0.005 C 
BRANCH  15  16
ATOM     16  C   UNL d   1      49.428  34.553  52.281  0.00  0.00     0.000 A 
ATOM     17  C   UNL d   1      48.955  35.119  52.657  0.00  0.00     0.000 A 
ATOM     18  C   UNL d   1      48.347  35.503  52.230  0.00  0.00     0.000 A 
ATOM     19  C   UNL d   1      48.228  35.316  51.451  0.00  0.00     0.000 A 
ATOM     20  C   UNL d   1      48.697  34.751  51.072  0.00  0.00     0.000 A 
ATOM     21  C   UNL d   1      49.304  34.368  51.497  0.00  0.00     0.000 A 
ENDBRANCH  15  16
ENDBRANCH  14  15
ENDBRANCH   2  14
TORSDOF 4
ENDMDL
MODEL 2
REMARK VINA RESULT:      -7.4      2.144      4.464
REMARK  4 active torsions:
REMARK  status: ('A' for Active; 'I' for Inactive)
REMARK    1  A    between atoms: N_7  and  C_3 
REMARK       I    between atoms: C_8  and  N_7 
REMARK    2  A    between atoms: C_10  and  C_8 
REMARK    3  A    between atoms: C_12  and  C_10 
REMARK    4  A    between atoms: C_16  and  C_12 
ROOT
ATOM      1  N   UNL d   1      52.657  32.779  53.736  0.00  0.00    -0.190 NA
ATOM      2  C   UNL d   1      53.270  32.344  53.400  0.00  0.00     0.281 C 
ATOM      3  O   UNL d   1      54.007  32.694  53.281  0.00  0.00    -0.265 OA
ENDROOT
BRANCH   1   4
ATOM      4  C   UNL d   1      52.779  33.567  53.954  0.00  0.00     0.159 A 
ATOM      5  N   UNL d   1      52.284  34.158  53.670  0.00  0.00    -0.241 N 
ATOM      6  C   UNL d   1      52.405  34.936  53.886  0.00  0.00     0.343 A 
ATOM      7  C   UNL d   1      51.661  33.963  53.165  0.00  0.00     0.105 C 
ATOM      8  N   UNL d   1      53.027  35.131  54.392  0.00  0.00    -0.224 N 
ATOM      9  O   UNL d   1      51.906  35.529  53.600  0.00  0.00    -0.245 OA
ATOM     10  C   UNL d   1      53.534  34.549  54.686  0.00  0.00     0.271 A 
ATOM     11  C   UNL d   1      53.151  35.919  54.610  0.00  0.00     0.107 C 
ATOM     12  C   UNL d   1      53.401  33.762  54.459  0.00  0.00     0.099 A 
ATOM     13  O   UNL d   1      54.151  34.742  55.186  0.00  0.00    -0.266 OA
ENDBRANCH   1   4
BRANCH   2  14
ATOM     14  C   UNL d   1      53.146  31.560  53.183  0.00  0.00     0.063 C 
BRANCH  14  15
ATOM     15  C   UNL d   1      53.653  30.977  53.458  0.00  0.00     0.005 C 
BRANCH  15  16
ATOM     16  C   UNL d   1      53.376  30.228  53.610  0.00  0.00     0.000 A 
ATOM     17  C   UNL d   1      53.662  29.818  54.271  0.00  0.00     0.000 A 
ATOM     18  C   UNL d   1      53.382  29.047  54.434  0.00  0.00     0.000 A 
ATOM     19  C   UNL d   1      52.832  28.710  53.943  0.00  0.00     0.000 A 
ATOM     20  C   UNL d   1      52.545  29.116  53.284  0.00  0.00     0.000 A 
ATOM     21  C   UNL d   1      52.824  29.885  53.120  0.00  0.00     0.000 A 
ENDBRANCH  15  16
ENDBRANCH  14  15
ENDBRANCH   2  14
TORSDOF 4
ENDMDL
MODEL 3
REMARK VINA RESULT:      -7.2      2.465      5.273
REMARK  4 active torsions:
REMARK  status: ('A' for Active; 'I' for Inactive)
REMARK    1  A    between atoms: N_7  and  C_3 
REMARK       I    between atoms: C_8  and  N_7 
REMARK    2  A    between atoms: C_10  and  C_8 
REMARK    3  A    between atoms: C_12  and  C_10 
REMARK    4  A    between atoms: C_16  and  C_12 
ROOT
ATOM      1  N   UNL d   1      49.219  34.974  52.938  0.00  0.00    -0.190 NA
ATOM      2  C   UNL d   1      49.829  34.631  52.506  0.00  0.00     0.281 C 
ATOM      3  O   UNL d   1      49.762  34.553  51.687  0.00  0.00    -0.265 OA
ENDROOT
BRANCH   1   4
ATOM      4  C   UNL d   1      48.538  35.241  52.553  0.00  0.00     0.159 A 
ATOM      5  N   UNL d   1      48.084  35.842  52.882  0.00  0.00    -0.241 N 
ATOM      6  C   UNL d   1      47.411  36.106  52.500  0.00  0.00     0.343 A 
ATOM      7  C   UNL d   1      48.309  36.179  53.600  0.00  0.00     0.105 C 
ATOM      8  N   UNL d   1      47.186  35.768  51.782  0.00  0.00    -0.224 N 
ATOM      9  O   UNL d   1      46.956  36.709  52.833  0.00  0.00    -0.245 OA
ATOM     10  C   UNL d   1      47.631  35.164  51.438  0.00  0.00     0.271 A 
ATOM     11  C   UNL d   1      46.505  36.035  51.396  0.00  0.00     0.107 C 
ATOM     12  C   UNL d   1      48.313  34.904  51.834  0.00  0.00     0.099 A 
ATOM     13  O   UNL d   1      47.408  34.830  50.726  0.00  0.00    -0.266 OA
ENDBRANCH   1   4
BRANCH   2  14
ATOM     14  C   UNL d   1      50.507  34.365  52.891  0.00  0.00     0.063 C 
BRANCH  14  15
ATOM     15  C   UNL d   1      51.209  34.294  52.476  0.00  0.00     0.005 C 
BRANCH  15  16
ATOM     16  C   UNL d   1      51.890  34.062  52.855  0.00  0.00     0.000 A 
ATOM     17  C   UNL d   1      52.386  34.639  53.183  0.00  0.00     0.000 A 
ATOM     18  C   UNL d   1      53.089  34.409  53.574  0.00  0.00     0.000 A 
ATOM     19  C   UNL d   1      53.276  33.622  53.628  0.00  0.00     0.000 A 
ATOM     20  C   UNL d   1      52.784  33.044  53.302  0.00  0.00     0.000 A 
ATOM     21  C   UNL d   1      52.083  33.273  52.911  0.00  0.00     0.000 A 
ENDBRANCH  15  16
ENDBRANCH  14  15
ENDBRANCH   2  14
TORSDOF 4
ENDMDL
