MODEL 1
REMARK VINA RESULT:      15.1      0.000      0.000
REMARK  1 active torsions:
REMARK  status: ('A' for Active; 'I' for Inactive)
REMARK    1  A    between atoms: C_2  and  N_1 
ROOT
ATOM      1  C   UNL d   1     -56.997 -98.763 -44.530  0.00  0.00     0.130 A 
ATOM      2  C   UNL d   1     -57.261 -98.759 -43.776  0.00  0.00     0.067 A 
ATOM      3  C   UNL d   1     -58.074 -98.758 -43.608  0.00  0.00     0.215 A 
ATOM      4  C   UNL d   1     -58.617 -98.761 -44.229  0.00  0.00     0.120 A 
ATOM      5  C   UNL d   1     -57.528 -98.765 -45.169  0.00  0.00     0.025 A 
ATOM      6  C   UNL d   1     -58.340 -98.764 -45.023  0.00  0.00     0.022 A 
ATOM      7  N   UNL d   1     -59.425 -98.760 -44.080  0.00  0.00    -0.241 NA
ATOM      8  O   UNL d   1     -58.345 -98.755 -42.834  0.00  0.00    -0.285 OA
ATOM      9  C   UNL d   1     -58.878 -98.767 -45.642  0.00  0.00     0.003 A 
ATOM     10  C   UNL d   1     -59.955 -98.763 -44.720  0.00  0.00     0.099 A 
ATOM     11  C   UNL d   1     -59.692 -98.766 -45.473  0.00  0.00     0.021 A 
ENDROOT
BRANCH   1  12
ATOM     12  N   UNL d   1     -56.187 -98.763 -44.643  0.00  0.00    -0.114 N 
ATOM     13  O   UNL d   1     -55.888 -98.757 -45.412  0.00  0.00    -0.532 OA
ATOM     14  O   UNL d   1     -55.693 -98.770 -43.994  0.00  0.00    -0.532 OA
ENDBRANCH   1  12
TORSDOF 1
ENDMDL
MODEL 2
REMARK VINA RESULT:      15.2      1.050      1.632
REMARK  1 active torsions:
REMARK  status: ('A' for Active; 'I' for Inactive)
REMARK    1  A    between atoms: C_2  and  N_1 
ROOT
ATOM      1  C   UNL d   1     -57.253 -98.844 -44.334  0.00  0.00     0.130 A 
ATOM      2  C   UNL d   1     -57.766 -98.870 -44.945  0.00  0.00     0.067 A 
ATOM      3  C   UNL d   1     -58.587 -98.861 -44.816  0.00  0.00     0.215 A 
ATOM      4  C   UNL d   1     -58.875 -98.826 -44.043  0.00  0.00     0.120 A 
ATOM      5  C   UNL d   1     -57.524 -98.809 -43.549  0.00  0.00     0.025 A 
ATOM      6  C   UNL d   1     -58.335 -98.800 -43.399  0.00  0.00     0.022 A 
ATOM      7  N   UNL d   1     -59.683 -98.817 -43.897  0.00  0.00    -0.241 NA
ATOM      8  O   UNL d   1     -59.113 -98.887 -45.443  0.00  0.00    -0.285 OA
ATOM      9  C   UNL d   1     -58.620 -98.765 -42.631  0.00  0.00     0.003 A 
ATOM     10  C   UNL d   1     -59.954 -98.781 -43.112  0.00  0.00     0.099 A 
ATOM     11  C   UNL d   1     -59.441 -98.756 -42.501  0.00  0.00     0.021 A 
ENDROOT
BRANCH   1  12
ATOM     12  N   UNL d   1     -56.456 -98.855 -44.514  0.00  0.00    -0.114 N 
ATOM     13  O   UNL d   1     -56.221 -98.799 -45.304  0.00  0.00    -0.532 OA
ATOM     14  O   UNL d   1     -55.910 -98.920 -43.912  0.00  0.00    -0.532 OA
ENDBRANCH   1  12
TORSDOF 1
ENDMDL
MODEL 3
REMARK VINA RESULT:      16.9      1.269      2.972
REMARK  1 active torsions:
REMARK  status: ('A' for Active; 'I' for Inactive)
REMARK    1  A    between atoms: C_2  and  N_1 
ROOT
ATOM      1  C   UNL d   1     -58.535 -98.765 -43.709  0.00  0.00     0.130 A 
ATOM      2  C   UNL d   1     -58.666 -98.769 -44.496  0.00  0.00     0.067 A 
ATOM      3  C   UNL d   1     -58.034 -98.770 -45.035  0.00  0.00     0.215 A 
ATOM      4  C   UNL d   1     -57.259 -98.767 -44.751  0.00  0.00     0.120 A 
ATOM      5  C   UNL d   1     -57.762 -98.761 -43.403  0.00  0.00     0.025 A 
ATOM      6  C   UNL d   1     -57.121 -98.763 -43.922  0.00  0.00     0.022 A 
ATOM      7  N   UNL d   1     -56.622 -98.768 -45.270  0.00  0.00    -0.241 NA
ATOM      8  O   UNL d   1     -58.169 -98.774 -45.844  0.00  0.00    -0.285 OA
ATOM      9  C   UNL d   1     -56.351 -98.759 -43.639  0.00  0.00     0.003 A 
ATOM     10  C   UNL d   1     -55.850 -98.765 -44.965  0.00  0.00     0.099 A 
ATOM     11  C   UNL d   1     -55.719 -98.761 -44.178  0.00  0.00     0.021 A 
ENDROOT
BRANCH   1  12
ATOM     12  N   UNL d   1     -59.190 -98.764 -43.220  0.00  0.00    -0.114 N 
ATOM     13  O   UNL d   1     -59.944 -98.769 -43.558  0.00  0.00    -0.532 OA
ATOM     14  O   UNL d   1     -59.087 -98.757 -42.411  0.00  0.00    -0.532 OA
ENDBRANCH   1  12
TORSDOF 1
ENDMDL
