MODEL 1
REMARK VINA RESULT:      67.5      0.000      0.000
REMARK  4 active torsions:
REMARK  status: ('A' for Active; 'I' for Inactive)
REMARK    1  A    between atoms: C_4  and  C_1 
REMARK    2  A    between atoms: N_8  and  C_4 
REMARK    3  A    between atoms: C_12  and  C_4 
REMARK    4  A    between atoms: C_5  and  N_8 
ROOT
ATOM      1  C   UNL d   1     -51.388  25.768  34.448  0.00  0.00     0.085 C 
ENDROOT
BRANCH   1   2
ATOM      2  C   UNL d   1     -51.310  25.057  34.034  0.00  0.00     0.037 A 
ATOM      3  C   UNL d   1     -50.622  24.791  33.641  0.00  0.00     0.083 A 
ATOM      4  N   UNL d   1     -50.794  24.064  33.310  0.00  0.00    -0.245 NA
ATOM      5  C   UNL d   1     -49.901  25.190  33.595  0.00  0.00     0.021 C 
ATOM      6  C   UNL d   1     -51.579  23.883  33.497  0.00  0.00     0.081 A 
ATOM      7  C   UNL d   1     -51.885  24.494  33.938  0.00  0.00     0.021 A 
ATOM      8  C   UNL d   1     -52.044  23.223  33.309  0.00  0.00     0.019 A 
ATOM      9  C   UNL d   1     -52.662  24.457  34.200  0.00  0.00     0.002 A 
ATOM     10  C   UNL d   1     -53.137  23.807  34.021  0.00  0.00     0.000 A 
ATOM     11  C   UNL d   1     -52.831  23.196  33.580  0.00  0.00     0.002 A 
ENDBRANCH   1   2
BRANCH   1  12
ATOM     12  N   UNL d   1     -51.563  25.778  35.208  0.00  0.00    -0.221 NA
BRANCH  12  13
ATOM     13  C   UNL d   1     -51.142  26.221  35.681  0.00  0.00     0.194 A 
ATOM     14  N   UNL d   1     -50.546  26.699  35.477  0.00  0.00    -0.219 NA
ATOM     15  C   UNL d   1     -50.287  27.028  36.102  0.00  0.00     0.108 A 
ATOM     16  C   UNL d   1     -50.700  26.776  36.705  0.00  0.00     0.059 A 
ATOM     17  S   UNL d   1     -51.234  26.273  36.449  0.00  0.00    -0.046 SA
ENDBRANCH  12  13
ENDBRANCH   1  12
BRANCH   1  18
ATOM     18  C   UNL d   1     -51.284  26.493  34.067  0.00  0.00     0.021 A 
ATOM     19  C   UNL d   1     -51.951  26.919  33.832  0.00  0.00     0.022 A 
ATOM     20  C   UNL d   1     -51.861  27.647  33.450  0.00  0.00     0.099 A 
ATOM     21  N   UNL d   1     -51.107  27.943  33.306  0.00  0.00    -0.242 NA
ATOM     22  C   UNL d   1     -50.437  27.515  33.543  0.00  0.00     0.099 A 
ATOM     23  C   UNL d   1     -50.530  26.789  33.923  0.00  0.00     0.022 A 
ENDBRANCH   1  18
TORSDOF 4
ENDMDL
