MODEL 1
REMARK VINA RESULT:     100.1      0.000      0.000
REMARK  8 active torsions:
REMARK  status: ('A' for Active; 'I' for Inactive)
REMARK    1  A    between atoms: C_3  and  N_1 
REMARK    2  A    between atoms: C_6  and  N_2 
REMARK    3  A    between atoms: C_4  and  C_3 
REMARK    4  A    between atoms: C_7  and  C_3 
REMARK       I    between atoms: C_5  and  N_8 
REMARK    5  A    between atoms: O_18  and  C_5 
REMARK    6  A    between atoms: N_8  and  C_7 
REMARK    7  A    between atoms: C_21  and  O_18 
REMARK    8  A    between atoms: C_22  and  C_21 
ROOT
ATOM      1  C   UNL d   1      60.745  47.913  50.687  0.00  0.00     0.107 C 
ENDROOT
BRANCH   1   2
ATOM      2  N   UNL d   1      60.940  47.104  50.679  0.00  0.00    -0.298 N 
ATOM      3  C   UNL d   1      61.478  46.824  50.119  0.00  0.00     0.100 A 
ATOM      4  C   UNL d   1      61.679  46.024  50.102  0.00  0.00     0.100 A 
ATOM      5  N   UNL d   1      61.342  45.503  50.646  0.00  0.00    -0.299 N 
ATOM      6  C   UNL d   1      60.806  45.785  51.203  0.00  0.00     0.100 A 
ATOM      7  C   UNL d   1      60.604  46.583  51.223  0.00  0.00     0.100 A 
BRANCH   5   8
ATOM      8  C   UNL d   1      61.542  44.709  50.628  0.00  0.00     0.092 A 
ATOM      9  C   UNL d   1      61.865  44.376  49.948  0.00  0.00     0.156 A 
ATOM     10  F   UNL d   1      61.987  44.845  49.281  0.00  0.00    -0.203 F 
ATOM     11  C   UNL d   1      62.066  43.578  49.928  0.00  0.00     0.031 A 
ATOM     12  C   UNL d   1      61.944  43.108  50.595  0.00  0.00     0.002 A 
ATOM     13  C   UNL d   1      61.619  43.442  51.281  0.00  0.00     0.002 A 
ATOM     14  C   UNL d   1      61.419  44.239  51.295  0.00  0.00     0.020 A 
ENDBRANCH   5   8
ENDBRANCH   1   2
BRANCH   1  15
ATOM     15  C   UNL d   1      61.082  48.420  51.244  0.00  0.00     0.118 A 
ATOM     16  O   UNL d   1      61.554  49.049  51.004  0.00  0.00    -0.304 OA
ATOM     17  C   UNL d   1      61.808  49.453  51.682  0.00  0.00     0.123 A 
ATOM     18  C   UNL d   1      61.495  49.073  52.332  0.00  0.00     0.029 A 
ATOM     19  C   UNL d   1      61.048  48.439  52.070  0.00  0.00     0.028 A 
ENDBRANCH   1  15
BRANCH   1  20
ATOM     20  C   UNL d   1      60.206  48.211  50.127  0.00  0.00     0.124 C 
BRANCH  20  21
ATOM     21  N   UNL d   1      59.620  48.744  50.360  0.00  0.00    -0.183 NA
ATOM     22  C   UNL d   1      59.203  49.172  49.795  0.00  0.00     0.392 C 
ATOM     23  O   UNL d   1      59.365  49.074  48.998  0.00  0.00    -0.236 OA
BRANCH  22  24
ATOM     24  O   UNL d   1      58.619  49.703  50.033  0.00  0.00    -0.256 OA
BRANCH  24  25
ATOM     25  C   UNL d   1      57.860  49.649  49.724  0.00  0.00     0.128 C 
BRANCH  25  26
ATOM     26  C   UNL d   1      57.274  49.235  50.132  0.00  0.00     0.025 A 
ATOM     27  C   UNL d   1      56.667  48.862  49.716  0.00  0.00     0.002 A 
ATOM     28  C   UNL d   1      56.081  48.449  50.124  0.00  0.00     0.000 A 
ATOM     29  C   UNL d   1      56.103  48.409  50.949  0.00  0.00     0.000 A 
ATOM     30  C   UNL d   1      56.707  48.780  51.357  0.00  0.00     0.000 A 
ATOM     31  C   UNL d   1      57.296  49.196  50.956  0.00  0.00     0.002 A 
ENDBRANCH  25  26
ENDBRANCH  24  25
ENDBRANCH  22  24
ENDBRANCH  20  21
ENDBRANCH   1  20
TORSDOF 8
ENDMDL
