MODEL 1
REMARK VINA RESULT:      25.9      0.000      0.000
REMARK  4 active torsions:
REMARK  status: ('A' for Active; 'I' for Inactive)
REMARK    1  A    between atoms: C_7  and  N_2 
REMARK    2  A    between atoms: C_15  and  C_7 
REMARK    3  A    between atoms: C_8  and  O_14 
REMARK    4  A    between atoms: O_14  and  C_15 
ROOT
ATOM      1  C   UNL d   1      15.095  12.587  -0.859  0.00  0.00     0.296 A 
ATOM      2  N   UNL d   1      14.604  13.166  -1.173  0.00  0.00    -0.266 N 
ATOM      3  S   UNL d   1      15.656  12.969  -0.367  0.00  0.00    -0.025 SA
ATOM      4  C   UNL d   1      14.853  13.902  -0.882  0.00  0.00     0.074 A 
ATOM      5  C   UNL d   1      15.498  13.781  -0.388  0.00  0.00     0.050 A 
ATOM      6  O   UNL d   1      15.050  11.779  -0.998  0.00  0.00    -0.259 OA
ATOM      7  C   UNL d   1      14.564  14.666  -1.012  0.00  0.00     0.018 A 
ATOM      8  C   UNL d   1      15.868  14.422  -0.014  0.00  0.00     0.008 A 
ATOM      9  C   UNL d   1      14.931  15.307  -0.640  0.00  0.00     0.002 A 
ATOM     10  C   UNL d   1      15.576  15.187  -0.147  0.00  0.00     0.001 A 
ENDROOT
BRANCH   2  11
ATOM     11  C   UNL d   1      13.972  13.039  -1.687  0.00  0.00     0.110 C 
BRANCH  11  12
ATOM     12  C   UNL d   1      13.753  12.274  -1.896  0.00  0.00     0.142 C 
BRANCH  12  13
ATOM     13  O   UNL d   1      13.117  12.136  -2.408  0.00  0.00    -0.304 OA
BRANCH  13  14
ATOM     14  C   UNL d   1      13.176  12.331  -3.207  0.00  0.00     0.100 A 
ATOM     15  C   UNL d   1      13.476  11.780  -3.744  0.00  0.00     0.025 A 
ATOM     16  C   UNL d   1      13.534  11.975  -4.539  0.00  0.00     0.002 A 
ATOM     17  C   UNL d   1      13.292  12.720  -4.797  0.00  0.00     0.000 A 
ATOM     18  C   UNL d   1      12.992  13.270  -4.255  0.00  0.00     0.002 A 
ATOM     19  C   UNL d   1      13.352  12.914  -5.601  0.00  0.00     0.000 C 
ATOM     20  C   UNL d   1      12.937  13.067  -3.461  0.00  0.00     0.025 A 
ENDBRANCH  13  14
ENDBRANCH  12  13
ENDBRANCH  11  12
ENDBRANCH   2  11
TORSDOF 4
ENDMDL
