MODEL 1
REMARK VINA RESULT:      82.8      0.000      0.000
REMARK  4 active torsions:
REMARK  status: ('A' for Active; 'I' for Inactive)
REMARK    1  A    between atoms: C_13  and  N_5 
REMARK    2  A    between atoms: C_14  and  C_6 
REMARK    3  A    between atoms: C_21  and  C_13 
REMARK    4  A    between atoms: O_25  and  C_20 
ROOT
ATOM      1  C   UNL d   1      44.921 -15.126  37.141  0.00  0.00     0.080 A 
ATOM      2  C   UNL d   1      44.684 -14.363  37.373  0.00  0.00     0.267 A 
ATOM      3  C   UNL d   1      45.722 -15.321  37.102  0.00  0.00     0.108 A 
ATOM      4  C   UNL d   1      44.571 -16.450  36.715  0.00  0.00     0.111 A 
ATOM      5  N   UNL d   1      45.270 -13.807  37.565  0.00  0.00    -0.273 N 
ATOM      6  C   UNL d   1      44.344 -15.684  36.949  0.00  0.00     0.020 A 
ATOM      7  C   UNL d   1      45.382 -16.643  36.678  0.00  0.00     0.213 A 
ATOM      8  C   UNL d   1      46.296 -14.764  37.294  0.00  0.00     0.043 A 
ATOM      9  O   UNL d   1      45.948 -16.079  36.871  0.00  0.00    -0.287 OA
ATOM     10  C   UNL d   1      46.070 -14.006  37.525  0.00  0.00     0.069 A 
ATOM     11  C   UNL d   1      44.005 -17.014  36.522  0.00  0.00     0.105 C 
ATOM     12  N   UNL d   1      43.422 -17.570  36.331  0.00  0.00    -0.191 NA
ATOM     13  O   UNL d   1      43.885 -14.164  37.413  0.00  0.00    -0.267 OA
ATOM     14  N   UNL d   1      45.611 -17.401  36.446  0.00  0.00    -0.120 N 
ATOM     15  C   UNL d   1      46.647 -13.440  37.719  0.00  0.00     0.019 C 
ENDROOT
BRANCH   6  16
ATOM     16  C   UNL d   1      43.541 -15.492  36.986  0.00  0.00     0.001 A 
ATOM     17  C   UNL d   1      43.162 -15.167  36.334  0.00  0.00     0.002 A 
ATOM     18  C   UNL d   1      42.360 -14.977  36.375  0.00  0.00     0.024 A 
ATOM     19  C   UNL d   1      41.943 -15.114  37.072  0.00  0.00     0.094 A 
ATOM     20  C   UNL d   1      42.326 -15.444  37.735  0.00  0.00     0.024 A 
ATOM     21  C   UNL d   1      43.128 -15.630  37.683  0.00  0.00     0.002 A 
BRANCH  19  22
ATOM     22  O   UNL d   1      41.141 -14.925  37.117  0.00  0.00    -0.328 OA
ATOM     23  C   UNL d   1      40.699 -14.834  36.427  0.00  0.00     0.181 C 
ENDBRANCH  19  22
ENDBRANCH   6  16
BRANCH   5  24
ATOM     24  C   UNL d   1      45.043 -13.041  37.799  0.00  0.00     0.083 C 
BRANCH  24  25
ATOM     25  C   UNL d   1      44.950 -12.851  38.601  0.00  0.00     0.021 A 
ATOM     26  C   UNL d   1      45.593 -12.866  39.115  0.00  0.00     0.022 A 
ATOM     27  C   UNL d   1      45.487 -12.675  39.909  0.00  0.00     0.099 A 
ATOM     28  N   UNL d   1      44.744 -12.469  40.191  0.00  0.00    -0.242 NA
ATOM     29  C   UNL d   1      44.097 -12.454  39.674  0.00  0.00     0.099 A 
ATOM     30  C   UNL d   1      44.202 -12.645  38.881  0.00  0.00     0.022 A 
ENDBRANCH  24  25
ENDBRANCH   5  24
TORSDOF 4
ENDMDL
