MODEL 1
REMARK VINA RESULT:      41.7      0.000      0.000
REMARK  2 active torsions:
REMARK  status: ('A' for Active; 'I' for Inactive)
REMARK       I    between atoms: N_3  and  C_1 
REMARK    1  A    between atoms: O_4  and  C_1 
REMARK    2  A    between atoms: C_6  and  O_4 
ROOT
ATOM      1  C   UNL d   1     -51.260  24.860  33.413  0.00  0.00     0.105 A 
ATOM      2  C   UNL d   1     -50.961  24.094  33.413  0.00  0.00     0.030 A 
ATOM      3  C   UNL d   1     -50.738  25.514  33.463  0.00  0.00     0.122 A 
ATOM      4  N   UNL d   1     -52.079  24.989  33.364  0.00  0.00    -0.242 NA
ATOM      5  C   UNL d   1     -50.145  23.967  33.461  0.00  0.00     0.059 A 
ATOM      6  C   UNL d   1     -49.929  25.387  33.511  0.00  0.00     0.027 A 
ATOM      7  C   UNL d   1     -49.624  24.621  33.511  0.00  0.00     0.013 A 
ATOM      8 CL   UNL d   1     -49.840  23.195  33.461  0.00  0.00    -0.082 Cl
ATOM      9  C   UNL d   1     -51.475  23.450  33.364  0.00  0.00     0.004 A 
ATOM     10  C   UNL d   1     -52.593  24.345  33.315  0.00  0.00     0.099 A 
ATOM     11  C   UNL d   1     -52.287  23.572  33.315  0.00  0.00     0.021 A 
ENDROOT
BRANCH   3  12
ATOM     12  O   UNL d   1     -51.039  26.292  33.464  0.00  0.00    -0.257 OA
BRANCH  12  13
ATOM     13  C   UNL d   1     -50.522  26.947  33.436  0.00  0.00     0.378 C 
ATOM     14  N   UNL d   1     -50.813  27.710  33.394  0.00  0.00    -0.247 N 
ATOM     15  C   UNL d   1     -51.629  27.839  33.378  0.00  0.00     0.112 A 
ATOM     16  C   UNL d   1     -50.298  28.353  33.367  0.00  0.00     0.112 A 
ATOM     17  C   UNL d   1     -51.915  28.609  33.336  0.00  0.00     0.142 A 
ATOM     18  O   UNL d   1     -51.404  29.249  33.309  0.00  0.00    -0.300 OA
ATOM     19  C   UNL d   1     -50.589  29.120  33.325  0.00  0.00     0.142 A 
ATOM     20  O   UNL d   1     -49.695  26.817  33.453  0.00  0.00    -0.237 OA
ENDBRANCH  12  13
ENDBRANCH   3  12
TORSDOF 2
ENDMDL
MODEL 2
REMARK VINA RESULT:      44.2      1.051      1.358
REMARK  2 active torsions:
REMARK  status: ('A' for Active; 'I' for Inactive)
REMARK       I    between atoms: N_3  and  C_1 
REMARK    1  A    between atoms: O_4  and  C_1 
REMARK    2  A    between atoms: C_6  and  O_4 
ROOT
ATOM      1  C   UNL d   1     -51.843  25.374  33.306  0.00  0.00     0.105 A 
ATOM      2  C   UNL d   1     -52.069  24.583  33.307  0.00  0.00     0.030 A 
ATOM      3  C   UNL d   1     -51.030  25.578  33.306  0.00  0.00     0.122 A 
ATOM      4  N   UNL d   1     -52.418  25.973  33.306  0.00  0.00    -0.242 NA
ATOM      5  C   UNL d   1     -51.495  23.988  33.307  0.00  0.00     0.059 A 
ATOM      6  C   UNL d   1     -50.461  24.987  33.306  0.00  0.00     0.027 A 
ATOM      7  C   UNL d   1     -50.682  24.192  33.307  0.00  0.00     0.013 A 
ATOM      8 CL   UNL d   1     -51.719  23.189  33.307  0.00  0.00    -0.082 Cl
ATOM      9  C   UNL d   1     -52.869  24.382  33.307  0.00  0.00     0.004 A 
ATOM     10  C   UNL d   1     -53.218  25.772  33.306  0.00  0.00     0.099 A 
ATOM     11  C   UNL d   1     -53.443  24.972  33.306  0.00  0.00     0.021 A 
ENDROOT
BRANCH   3  12
ATOM     12  O   UNL d   1     -50.798  26.380  33.306  0.00  0.00    -0.257 OA
BRANCH  12  13
ATOM     13  C   UNL d   1     -50.017  26.596  33.507  0.00  0.00     0.378 C 
ATOM     14  N   UNL d   1     -49.816  27.379  33.624  0.00  0.00    -0.247 N 
ATOM     15  C   UNL d   1     -50.389  27.969  33.543  0.00  0.00     0.112 A 
ATOM     16  C   UNL d   1     -49.043  27.587  33.823  0.00  0.00     0.112 A 
ATOM     17  C   UNL d   1     -50.180  28.755  33.662  0.00  0.00     0.142 A 
ATOM     18  O   UNL d   1     -49.412  28.963  33.860  0.00  0.00    -0.300 OA
ATOM     19  C   UNL d   1     -48.839  28.374  33.941  0.00  0.00     0.142 A 
ATOM     20  O   UNL d   1     -49.436  25.999  33.589  0.00  0.00    -0.237 OA
ENDBRANCH  12  13
ENDBRANCH   3  12
TORSDOF 2
ENDMDL
