MODEL 1
REMARK VINA RESULT:      78.5      0.000      0.000
REMARK  5 active torsions:
REMARK  status: ('A' for Active; 'I' for Inactive)
REMARK    1  A    between atoms: N_2  and  S_1 
REMARK    2  A    between atoms: C_5  and  S_1 
REMARK    3  A    between atoms: C_4  and  C_3 
REMARK       I    between atoms: N_6  and  C_4 
REMARK    4  A    between atoms: C_12  and  N_6 
REMARK    5  A    between atoms: O_23  and  C_15 
ROOT
ATOM      1  N   UNL d   1      60.676  49.141  51.512  0.00  0.00    -0.226 N 
ATOM      2  C   UNL d   1      61.174  48.480  51.493  0.00  0.00     0.133 A 
ATOM      3  C   UNL d   1      61.013  49.706  52.006  0.00  0.00     0.092 A 
ATOM      4  C   UNL d   1      61.821  48.647  51.983  0.00  0.00     0.025 A 
ATOM      5  C   UNL d   1      61.717  49.403  52.297  0.00  0.00     0.021 A 
ENDROOT
BRANCH   2   6
ATOM      6  C   UNL d   1      61.045  47.790  51.066  0.00  0.00     0.296 C 
ATOM      7  N   UNL d   1      61.637  47.517  50.554  0.00  0.00    -0.207 NA
ATOM      8  O   UNL d   1      60.339  47.374  51.145  0.00  0.00    -0.264 OA
BRANCH   7   9
ATOM      9  C   UNL d   1      61.508  46.820  50.122  0.00  0.00     0.085 A 
ATOM     10  C   UNL d   1      60.952  46.266  50.389  0.00  0.00     0.021 A 
ATOM     11  C   UNL d   1      60.827  45.572  49.955  0.00  0.00     0.026 A 
ATOM     12  C   UNL d   1      61.254  45.436  49.264  0.00  0.00     0.094 A 
ATOM     13  C   UNL d   1      61.810  45.993  49.000  0.00  0.00     0.026 A 
ATOM     14  C   UNL d   1      61.935  46.684  49.431  0.00  0.00     0.021 A 
BRANCH  12  15
ATOM     15  O   UNL d   1      61.131  44.744  48.829  0.00  0.00    -0.328 OA
ATOM     16  C   UNL d   1      60.392  44.372  48.859  0.00  0.00     0.181 C 
ENDBRANCH  12  15
ENDBRANCH   7   9
ENDBRANCH   2   6
BRANCH   1  17
ATOM     17  S   UNL d   1      59.971  49.165  51.081  0.00  0.00     0.271 S 
ATOM     18  O   UNL d   1      60.392  49.580  50.518  0.00  0.00    -0.200 OA
ATOM     19  O   UNL d   1      59.551  48.741  51.663  0.00  0.00    -0.200 OA
BRANCH  17  20
ATOM     20  C   UNL d   1      59.290  49.210  50.624  0.00  0.00     0.104 A 
ATOM     21  C   UNL d   1      58.606  48.813  50.858  0.00  0.00     0.013 A 
ATOM     22  C   UNL d   1      57.926  48.862  50.394  0.00  0.00     0.001 A 
ATOM     23  C   UNL d   1      57.929  49.308  49.696  0.00  0.00     0.000 A 
ATOM     24  C   UNL d   1      58.620  49.708  49.460  0.00  0.00     0.001 A 
ATOM     25  C   UNL d   1      57.252  49.360  49.228  0.00  0.00     0.000 C 
ATOM     26  C   UNL d   1      59.297  49.655  49.928  0.00  0.00     0.013 A 
ENDBRANCH  17  20
ENDBRANCH   1  17
TORSDOF 5
ENDMDL
