MODEL 1
REMARK VINA RESULT:      93.8      0.000      0.000
REMARK  4 active torsions:
REMARK  status: ('A' for Active; 'I' for Inactive)
REMARK    1  A    between atoms: S_2  and  N_1 
REMARK    2  A    between atoms: C_7  and  S_2 
REMARK    3  A    between atoms: C_10  and  C_3 
REMARK    4  A    between atoms: C_14  and  C_10 
ROOT
ATOM      1  N   UNL d   1      60.638  48.275  51.014  0.00  0.00    -0.214 N 
ATOM      2  C   UNL d   1      59.925  48.675  50.859  0.00  0.00     0.157 A 
ATOM      3  N   UNL d   1      59.852  49.272  51.427  0.00  0.00    -0.226 NA
ATOM      4  C   UNL d   1      60.994  48.629  51.672  0.00  0.00     0.094 A 
ATOM      5  C   UNL d   1      60.513  49.247  51.933  0.00  0.00     0.100 A 
ATOM      6  C   UNL d   1      61.704  48.464  52.070  0.00  0.00     0.020 A 
ATOM      7  C   UNL d   1      60.732  49.708  52.592  0.00  0.00     0.021 A 
ATOM      8  C   UNL d   1      61.928  48.922  52.730  0.00  0.00     0.002 A 
ATOM      9  C   UNL d   1      61.429  49.539  52.976  0.00  0.00     0.002 A 
ENDROOT
BRANCH   1  10
ATOM     10  S   UNL d   1      60.921  47.638  50.573  0.00  0.00     0.272 S 
ATOM     11  O   UNL d   1      60.539  47.131  51.106  0.00  0.00    -0.200 OA
ATOM     12  O   UNL d   1      61.298  48.144  50.046  0.00  0.00    -0.200 OA
BRANCH  10  13
ATOM     13  C   UNL d   1      61.196  46.994  50.141  0.00  0.00     0.104 A 
ATOM     14  C   UNL d   1      60.921  46.239  50.330  0.00  0.00     0.013 A 
ATOM     15  C   UNL d   1      61.196  45.590  49.898  0.00  0.00     0.007 A 
ATOM     16  C   UNL d   1      61.729  45.709  49.299  0.00  0.00     0.035 A 
ATOM     17  C   UNL d   1      62.001  46.453  49.111  0.00  0.00     0.007 A 
ATOM     18 BR   UNL d   1      62.010  45.046  48.857  0.00  0.00    -0.049 Br
ATOM     19  C   UNL d   1      61.729  47.098  49.539  0.00  0.00     0.013 A 
ENDBRANCH  10  13
ENDBRANCH   1  10
BRANCH   2  20
ATOM     20  C   UNL d   1      59.383  48.498  50.238  0.00  0.00     0.038 C 
BRANCH  20  21
ATOM     21  C   UNL d   1      58.646  48.869  50.209  0.00  0.00     0.003 A 
ATOM     22  C   UNL d   1      58.440  49.339  49.551  0.00  0.00     0.000 A 
ATOM     23  C   UNL d   1      57.708  49.707  49.521  0.00  0.00     0.000 A 
ATOM     24  C   UNL d   1      57.169  49.618  50.136  0.00  0.00     0.000 A 
ATOM     25  C   UNL d   1      57.373  49.151  50.789  0.00  0.00     0.000 A 
ATOM     26  C   UNL d   1      58.107  48.779  50.825  0.00  0.00     0.000 A 
ENDBRANCH  20  21
ENDBRANCH   2  20
TORSDOF 4
ENDMDL
