MODEL 1
REMARK VINA RESULT:      -2.9      0.000      0.000
REMARK  4 active torsions:
REMARK  status: ('A' for Active; 'I' for Inactive)
REMARK    1  A    between atoms: C_3  and  N_1 
REMARK       I    between atoms: C_2  and  N_5 
REMARK       I    between atoms: N_4  and  C_2 
REMARK    2  A    between atoms: C_17  and  N_4 
REMARK    3  A    between atoms: N_5  and  C_16 
REMARK    4  A    between atoms: C_8  and  C_9 
ROOT
ATOM      1  C   UNL d   1      32.837  19.248 -22.336  0.00  0.00     0.369 C 
ATOM      2  N   UNL d   1      33.085  18.470 -22.552  0.00  0.00    -0.191 NA
ATOM      3  N   UNL d   1      33.241  19.669 -21.782  0.00  0.00    -0.191 NA
ATOM      4  O   UNL d   1      32.174  19.547 -22.712  0.00  0.00    -0.242 OA
ENDROOT
BRANCH   3   5
ATOM      5  C   UNL d   1      32.960  20.446 -21.593  0.00  0.00     0.086 A 
ATOM      6  C   UNL d   1      33.175  21.094 -22.060  0.00  0.00     0.021 A 
ATOM      7  C   UNL d   1      32.908  21.856 -21.888  0.00  0.00     0.025 A 
ATOM      8  C   UNL d   1      32.423  21.939 -21.232  0.00  0.00     0.127 A 
ATOM      9  C   UNL d   1      32.183  21.302 -20.732  0.00  0.00     0.025 A 
ATOM     10  C   UNL d   1      32.473  20.558 -20.943  0.00  0.00     0.021 A 
BRANCH   8  11
ATOM     11  N   UNL d   1      32.141  22.751 -21.051  0.00  0.00    -0.114 N 
ATOM     12  O   UNL d   1      32.299  23.071 -20.308  0.00  0.00    -0.532 OA
ATOM     13  O   UNL d   1      31.724  23.185 -21.621  0.00  0.00    -0.532 OA
ENDBRANCH   8  11
ENDBRANCH   3   5
BRANCH   2  14
ATOM     14  C   UNL d   1      32.682  18.028 -23.117  0.00  0.00     0.086 A 
ATOM     15  C   UNL d   1      32.846  18.135 -23.918  0.00  0.00     0.019 A 
ATOM     16  C   UNL d   1      32.450  17.701 -24.474  0.00  0.00     0.005 A 
ATOM     17  C   UNL d   1      31.863  17.132 -24.257  0.00  0.00     0.039 A 
ATOM     18  C   UNL d   1      31.711  17.037 -23.457  0.00  0.00     0.005 A 
ATOM     19  C   UNL d   1      32.118  17.483 -22.889  0.00  0.00     0.019 A 
BRANCH  17  20
ATOM     20  C   UNL d   1      31.458  16.691 -24.788  0.00  0.00     0.196 C 
ATOM     21  O   UNL d   1      31.743  15.979 -25.029  0.00  0.00    -0.287 OA
ATOM     22  C   UNL d   1      30.746  16.954 -25.097  0.00  0.00     0.045 C 
ENDBRANCH  17  20
ENDBRANCH   2  14
TORSDOF 4
ENDMDL
MODEL 2
REMARK VINA RESULT:      -2.9      1.172      5.265
REMARK  4 active torsions:
REMARK  status: ('A' for Active; 'I' for Inactive)
REMARK    1  A    between atoms: C_3  and  N_1 
REMARK       I    between atoms: C_2  and  N_5 
REMARK       I    between atoms: N_4  and  C_2 
REMARK    2  A    between atoms: C_17  and  N_4 
REMARK    3  A    between atoms: N_5  and  C_16 
REMARK    4  A    between atoms: C_8  and  C_9 
ROOT
ATOM      1  C   UNL d   1      32.654  18.937 -22.917  0.00  0.00     0.369 C 
ATOM      2  N   UNL d   1      33.241  19.424 -22.553  0.00  0.00    -0.191 NA
ATOM      3  N   UNL d   1      32.863  18.267 -23.310  0.00  0.00    -0.191 NA
ATOM      4  O   UNL d   1      31.874  19.177 -22.850  0.00  0.00    -0.242 OA
ENDROOT
BRANCH   3   5
ATOM      5  C   UNL d   1      32.244  17.805 -23.661  0.00  0.00     0.086 A 
ATOM      6  C   UNL d   1      31.913  17.169 -23.249  0.00  0.00     0.021 A 
ATOM      7  C   UNL d   1      31.311  16.710 -23.578  0.00  0.00     0.025 A 
ATOM      8  C   UNL d   1      31.058  16.916 -24.330  0.00  0.00     0.127 A 
ATOM      9  C   UNL d   1      31.372  17.558 -24.780  0.00  0.00     0.025 A 
ATOM     10  C   UNL d   1      31.972  17.988 -24.411  0.00  0.00     0.021 A 
BRANCH   8  11
ATOM     11  N   UNL d   1      30.417  16.426 -24.678  0.00  0.00    -0.114 N 
ATOM     12  O   UNL d   1      29.635  16.668 -24.583  0.00  0.00    -0.532 OA
ATOM     13  O   UNL d   1      30.601  15.734 -25.094  0.00  0.00    -0.532 OA
ENDBRANCH   8  11
ENDBRANCH   3   5
BRANCH   2  14
ATOM     14  C   UNL d   1      33.042  20.112 -22.148  0.00  0.00     0.086 A 
ATOM     15  C   UNL d   1      32.818  20.072 -21.355  0.00  0.00     0.019 A 
ATOM     16  C   UNL d   1      32.622  20.748 -20.955  0.00  0.00     0.005 A 
ATOM     17  C   UNL d   1      32.640  21.506 -21.330  0.00  0.00     0.039 A 
ATOM     18  C   UNL d   1      32.865  21.529 -22.117  0.00  0.00     0.005 A 
ATOM     19  C   UNL d   1      33.065  20.836 -22.525  0.00  0.00     0.019 A 
BRANCH  17  20
ATOM     20  C   UNL d   1      32.451  22.188 -20.956  0.00  0.00     0.196 C 
ATOM     21  O   UNL d   1      31.743  22.545 -21.091  0.00  0.00    -0.287 OA
ATOM     22  C   UNL d   1      32.972  22.536 -20.429  0.00  0.00     0.045 C 
ENDBRANCH  17  20
ENDBRANCH   2  14
TORSDOF 4
ENDMDL
MODEL 3
REMARK VINA RESULT:      -2.6      1.185      5.275
REMARK  4 active torsions:
REMARK  status: ('A' for Active; 'I' for Inactive)
REMARK    1  A    between atoms: C_3  and  N_1 
REMARK       I    between atoms: C_2  and  N_5 
REMARK       I    between atoms: N_4  and  C_2 
REMARK    2  A    between atoms: C_17  and  N_4 
REMARK    3  A    between atoms: N_5  and  C_16 
REMARK    4  A    between atoms: C_8  and  C_9 
ROOT
ATOM      1  C   UNL d   1      32.849  19.502 -22.973  0.00  0.00     0.369 C 
ATOM      2  N   UNL d   1      33.241  20.246 -22.883  0.00  0.00    -0.191 NA
ATOM      3  N   UNL d   1      32.997  19.035 -23.611  0.00  0.00    -0.191 NA
ATOM      4  O   UNL d   1      32.320  19.285 -22.387  0.00  0.00    -0.242 OA
ENDROOT
BRANCH   3   5
ATOM      5  C   UNL d   1      32.584  18.296 -23.665  0.00  0.00     0.086 A 
ATOM      6  C   UNL d   1      31.898  18.234 -24.121  0.00  0.00     0.021 A 
ATOM      7  C   UNL d   1      31.485  17.522 -24.183  0.00  0.00     0.025 A 
ATOM      8  C   UNL d   1      31.789  16.882 -23.771  0.00  0.00     0.127 A 
ATOM      9  C   UNL d   1      32.487  16.907 -23.295  0.00  0.00     0.025 A 
ATOM     10  C   UNL d   1      32.865  17.640 -23.263  0.00  0.00     0.021 A 
BRANCH   8  11
ATOM     11  N   UNL d   1      31.348  16.125 -23.839  0.00  0.00    -0.114 N 
ATOM     12  O   UNL d   1      31.738  15.462 -24.135  0.00  0.00    -0.532 OA
ATOM     13  O   UNL d   1      30.554  16.083 -23.607  0.00  0.00    -0.532 OA
ENDBRANCH   8  11
ENDBRANCH   3   5
BRANCH   2  14
ATOM     14  C   UNL d   1      33.100  20.734 -22.236  0.00  0.00     0.086 A 
ATOM     15  C   UNL d   1      33.232  20.453 -21.471  0.00  0.00     0.019 A 
ATOM     16  C   UNL d   1      33.094  20.932 -20.834  0.00  0.00     0.005 A 
ATOM     17  C   UNL d   1      32.813  21.724 -20.928  0.00  0.00     0.039 A 
ATOM     18  C   UNL d   1      32.686  21.988 -21.693  0.00  0.00     0.005 A 
ATOM     19  C   UNL d   1      32.829  21.496 -22.344  0.00  0.00     0.019 A 
BRANCH  17  20
ATOM     20  C   UNL d   1      32.668  22.217 -20.313  0.00  0.00     0.196 C 
ATOM     21  O   UNL d   1      33.146  22.212 -19.666  0.00  0.00    -0.287 OA
ATOM     22  C   UNL d   1      32.034  22.734 -20.330  0.00  0.00     0.045 C 
ENDBRANCH  17  20
ENDBRANCH   2  14
TORSDOF 4
ENDMDL
MODEL 4
REMARK VINA RESULT:      -2.5      1.124      1.544
REMARK  4 active torsions:
REMARK  status: ('A' for Active; 'I' for Inactive)
REMARK    1  A    between atoms: C_3  and  N_1 
REMARK       I    between atoms: C_2  and  N_5 
REMARK       I    between atoms: N_4  and  C_2 
REMARK    2  A    between atoms: C_17  and  N_4 
REMARK    3  A    between atoms: N_5  and  C_16 
REMARK    4  A    between atoms: C_8  and  C_9 
ROOT
ATOM      1  C   UNL d   1      32.653  18.812 -23.315  0.00  0.00     0.369 C 
ATOM      2  N   UNL d   1      32.653  18.208 -23.906  0.00  0.00    -0.191 NA
ATOM      3  N   UNL d   1      33.240  19.362 -23.291  0.00  0.00    -0.191 NA
ATOM      4  O   UNL d   1      32.036  18.811 -22.778  0.00  0.00    -0.242 OA
ENDROOT
BRANCH   3   5
ATOM      5  C   UNL d   1      33.205  19.952 -22.683  0.00  0.00     0.086 A 
ATOM      6  C   UNL d   1      33.137  19.730 -21.889  0.00  0.00     0.021 A 
ATOM      7  C   UNL d   1      33.102  20.294 -21.287  0.00  0.00     0.025 A 
ATOM      8  C   UNL d   1      33.137  21.080 -21.514  0.00  0.00     0.127 A 
ATOM      9  C   UNL d   1      33.207  21.344 -22.313  0.00  0.00     0.025 A 
ATOM     10  C   UNL d   1      33.238  20.746 -22.881  0.00  0.00     0.021 A 
BRANCH   8  11
ATOM     11  N   UNL d   1      33.099  21.678 -20.871  0.00  0.00    -0.114 N 
ATOM     12  O   UNL d   1      32.979  22.469 -21.068  0.00  0.00    -0.532 OA
ATOM     13  O   UNL d   1      33.184  21.445 -20.080  0.00  0.00    -0.532 OA
ENDBRANCH   8  11
ENDBRANCH   3   5
BRANCH   2  14
ATOM     14  C   UNL d   1      32.059  17.640 -23.943  0.00  0.00     0.086 A 
ATOM     15  C   UNL d   1      31.390  17.774 -24.407  0.00  0.00     0.019 A 
ATOM     16  C   UNL d   1      30.805  17.216 -24.445  0.00  0.00     0.005 A 
ATOM     17  C   UNL d   1      30.858  16.488 -24.017  0.00  0.00     0.039 A 
ATOM     18  C   UNL d   1      31.529  16.370 -23.561  0.00  0.00     0.005 A 
ATOM     19  C   UNL d   1      32.126  16.943 -23.524  0.00  0.00     0.019 A 
BRANCH  17  20
ATOM     20  C   UNL d   1      30.293  15.921 -24.038  0.00  0.00     0.196 C 
ATOM     21  O   UNL d   1      30.207  15.455 -24.688  0.00  0.00    -0.287 OA
ATOM     22  C   UNL d   1      29.792  15.803 -23.401  0.00  0.00     0.045 C 
ENDBRANCH  17  20
ENDBRANCH   2  14
TORSDOF 4
ENDMDL
MODEL 5
REMARK VINA RESULT:      -2.4      0.994      1.316
REMARK  4 active torsions:
REMARK  status: ('A' for Active; 'I' for Inactive)
REMARK    1  A    between atoms: C_3  and  N_1 
REMARK       I    between atoms: C_2  and  N_5 
REMARK       I    between atoms: N_4  and  C_2 
REMARK    2  A    between atoms: C_17  and  N_4 
REMARK    3  A    between atoms: N_5  and  C_16 
REMARK    4  A    between atoms: C_8  and  C_9 
ROOT
ATOM      1  C   UNL d   1      32.938  19.982 -22.758  0.00  0.00     0.369 C 
ATOM      2  N   UNL d   1      33.123  19.463 -23.399  0.00  0.00    -0.191 NA
ATOM      3  N   UNL d   1      33.241  20.726 -22.732  0.00  0.00    -0.191 NA
ATOM      4  O   UNL d   1      32.442  19.693 -22.174  0.00  0.00    -0.242 OA
ENDROOT
BRANCH   3   5
ATOM      5  C   UNL d   1      33.032  21.216 -22.072  0.00  0.00     0.086 A 
ATOM      6  C   UNL d   1      33.132  20.940 -21.299  0.00  0.00     0.021 A 
ATOM      7  C   UNL d   1      32.933  21.406 -20.647  0.00  0.00     0.025 A 
ATOM      8  C   UNL d   1      32.632  22.152 -20.803  0.00  0.00     0.127 A 
ATOM      9  C   UNL d   1      32.515  22.467 -21.579  0.00  0.00     0.025 A 
ATOM     10  C   UNL d   1      32.728  21.966 -22.199  0.00  0.00     0.021 A 
BRANCH   8  11
ATOM     11  N   UNL d   1      32.420  22.645 -20.108  0.00  0.00    -0.114 N 
ATOM     12  O   UNL d   1      31.932  23.300 -20.218  0.00  0.00    -0.532 OA
ATOM     13  O   UNL d   1      32.710  22.451 -19.356  0.00  0.00    -0.532 OA
ENDBRANCH   8  11
ENDBRANCH   3   5
BRANCH   2  14
ATOM     14  C   UNL d   1      32.820  18.699 -23.439  0.00  0.00     0.086 A 
ATOM     15  C   UNL d   1      32.180  18.535 -23.933  0.00  0.00     0.019 A 
ATOM     16  C   UNL d   1      31.881  17.784 -23.973  0.00  0.00     0.005 A 
ATOM     17  C   UNL d   1      32.210  17.151 -23.517  0.00  0.00     0.039 A 
ATOM     18  C   UNL d   1      32.845  17.330 -23.032  0.00  0.00     0.005 A 
ATOM     19  C   UNL d   1      33.149  18.100 -22.992  0.00  0.00     0.019 A 
BRANCH  17  20
ATOM     20  C   UNL d   1      31.931  16.401 -23.540  0.00  0.00     0.196 C 
ATOM     21  O   UNL d   1      31.262  16.202 -23.141  0.00  0.00    -0.287 OA
ATOM     22  C   UNL d   1      32.321  15.822 -23.968  0.00  0.00     0.045 C 
ENDBRANCH  17  20
ENDBRANCH   2  14
TORSDOF 4
ENDMDL
MODEL 6
REMARK VINA RESULT:      -0.9      0.879      1.053
REMARK  4 active torsions:
REMARK  status: ('A' for Active; 'I' for Inactive)
REMARK    1  A    between atoms: C_3  and  N_1 
REMARK       I    between atoms: C_2  and  N_5 
REMARK       I    between atoms: N_4  and  C_2 
REMARK    2  A    between atoms: C_17  and  N_4 
REMARK    3  A    between atoms: N_5  and  C_16 
REMARK    4  A    between atoms: C_8  and  C_9 
ROOT
ATOM      1  C   UNL d   1      32.906  19.991 -23.211  0.00  0.00     0.369 C 
ATOM      2  N   UNL d   1      33.135  19.498 -23.858  0.00  0.00    -0.191 NA
ATOM      3  N   UNL d   1      33.233  20.720 -23.115  0.00  0.00    -0.191 NA
ATOM      4  O   UNL d   1      32.344  19.695 -22.695  0.00  0.00    -0.242 OA
ENDROOT
BRANCH   3   5
ATOM      5  C   UNL d   1      32.978  21.185 -22.454  0.00  0.00     0.086 A 
ATOM      6  C   UNL d   1      32.875  22.002 -22.532  0.00  0.00     0.021 A 
ATOM      7  C   UNL d   1      32.627  22.467 -21.897  0.00  0.00     0.025 A 
ATOM      8  C   UNL d   1      32.488  22.081 -21.188  0.00  0.00     0.127 A 
ATOM      9  C   UNL d   1      32.581  21.249 -21.070  0.00  0.00     0.025 A 
ATOM     10  C   UNL d   1      32.831  20.825 -21.733  0.00  0.00     0.021 A 
BRANCH   8  11
ATOM     11  N   UNL d   1      32.224  22.578 -20.513  0.00  0.00    -0.114 N 
ATOM     12  O   UNL d   1      32.549  23.330 -20.421  0.00  0.00    -0.532 OA
ATOM     13  O   UNL d   1      31.656  22.292 -19.982  0.00  0.00    -0.532 OA
ENDBRANCH   8  11
ENDBRANCH   3   5
BRANCH   2  14
ATOM     14  C   UNL d   1      32.809  18.750 -23.968  0.00  0.00     0.086 A 
ATOM     15  C   UNL d   1      33.241  18.078 -23.760  0.00  0.00     0.019 A 
ATOM     16  C   UNL d   1      32.921  17.343 -23.868  0.00  0.00     0.005 A 
ATOM     17  C   UNL d   1      32.147  17.239 -24.192  0.00  0.00     0.039 A 
ATOM     18  C   UNL d   1      31.731  17.915 -24.393  0.00  0.00     0.005 A 
ATOM     19  C   UNL d   1      32.060  18.668 -24.282  0.00  0.00     0.019 A 
BRANCH  17  20
ATOM     20  C   UNL d   1      31.810  16.522 -24.309  0.00  0.00     0.196 C 
ATOM     21  O   UNL d   1      32.131  15.862 -23.980  0.00  0.00    -0.287 OA
ATOM     22  C   UNL d   1      31.133  16.444 -24.763  0.00  0.00     0.045 C 
ENDBRANCH  17  20
ENDBRANCH   2  14
TORSDOF 4
ENDMDL
MODEL 7
REMARK VINA RESULT:      -0.1      2.503      6.343
REMARK  4 active torsions:
REMARK  status: ('A' for Active; 'I' for Inactive)
REMARK    1  A    between atoms: C_3  and  N_1 
REMARK       I    between atoms: C_2  and  N_5 
REMARK       I    between atoms: N_4  and  C_2 
REMARK    2  A    between atoms: C_17  and  N_4 
REMARK    3  A    between atoms: N_5  and  C_16 
REMARK    4  A    between atoms: C_8  and  C_9 
ROOT
ATOM      1  C   UNL d   1      32.623  22.463 -20.319  0.00  0.00     0.369 C 
ATOM      2  N   UNL d   1      32.529  23.185 -19.889  0.00  0.00    -0.191 NA
ATOM      3  N   UNL d   1      32.588  22.456 -21.122  0.00  0.00    -0.191 NA
ATOM      4  O   UNL d   1      32.749  21.782 -19.883  0.00  0.00    -0.242 OA
ENDROOT
BRANCH   3   5
ATOM      5  C   UNL d   1      32.686  21.712 -21.517  0.00  0.00     0.086 A 
ATOM      6  C   UNL d   1      32.948  21.687 -22.301  0.00  0.00     0.021 A 
ATOM      7  C   UNL d   1      33.049  20.970 -22.697  0.00  0.00     0.025 A 
ATOM      8  C   UNL d   1      32.878  20.287 -22.277  0.00  0.00     0.127 A 
ATOM      9  C   UNL d   1      32.609  20.274 -21.476  0.00  0.00     0.025 A 
ATOM     10  C   UNL d   1      32.523  21.014 -21.121  0.00  0.00     0.021 A 
BRANCH   8  11
ATOM     11  N   UNL d   1      32.986  19.526 -22.701  0.00  0.00    -0.114 N 
ATOM     12  O   UNL d   1      32.900  19.511 -23.521  0.00  0.00    -0.532 OA
ATOM     13  O   UNL d   1      33.171  18.836 -22.280  0.00  0.00    -0.532 OA
ENDBRANCH   8  11
ENDBRANCH   3   5
BRANCH   2  14
ATOM     14  C   UNL d   1      32.563  23.207 -19.068  0.00  0.00     0.086 A 
ATOM     15  C   UNL d   1      33.128  22.758 -18.667  0.00  0.00     0.019 A 
ATOM     16  C   UNL d   1      33.162  22.779 -17.859  0.00  0.00     0.005 A 
ATOM     17  C   UNL d   1      32.629  23.254 -17.404  0.00  0.00     0.039 A 
ATOM     18  C   UNL d   1      32.074  23.693 -17.817  0.00  0.00     0.005 A 
ATOM     19  C   UNL d   1      32.041  23.670 -18.644  0.00  0.00     0.019 A 
BRANCH  17  20
ATOM     20  C   UNL d   1      32.643  23.290 -16.604  0.00  0.00     0.196 C 
ATOM     21  O   UNL d   1      32.070  23.688 -16.204  0.00  0.00    -0.287 OA
ATOM     22  C   UNL d   1      33.240  22.926 -16.178  0.00  0.00     0.045 C 
ENDBRANCH  17  20
ENDBRANCH   2  14
TORSDOF 4
ENDMDL
