MODEL 1
REMARK VINA RESULT:      16.1      0.000      0.000
REMARK  7 active torsions:
REMARK  status: ('A' for Active; 'I' for Inactive)
REMARK    1  A    between atoms: C_4  and  S_1 
REMARK    2  A    between atoms: N_6  and  S_1 
REMARK    3  A    between atoms: N_3  and  C_2 
REMARK    4  A    between atoms: C_15  and  N_6 
REMARK    5  A    between atoms: C_16  and  N_6 
REMARK    6  A    between atoms: C_18  and  C_15 
REMARK    7  A    between atoms: C_17  and  C_16 
ROOT
ATOM      1  C   UNL d   1      46.190 -18.198  43.382  0.00  0.00     0.138 A 
ATOM      2  C   UNL d   1      46.017 -17.164  44.353  0.00  0.00     0.106 A 
ATOM      3  C   UNL d   1      45.987 -17.421  43.571  0.00  0.00     0.037 A 
ATOM      4  C   UNL d   1      46.424 -18.718  43.976  0.00  0.00     0.080 A 
ATOM      5  C   UNL d   1      46.252 -17.686  44.950  0.00  0.00     0.014 A 
ATOM      6  C   UNL d   1      46.455 -18.463  44.761  0.00  0.00     0.014 A 
ATOM      7 CL   UNL d   1      46.627 -19.495  43.788  0.00  0.00    -0.081 Cl
ENDROOT
BRANCH   2   8
ATOM      8  S   UNL d   1      45.814 -16.387  44.542  0.00  0.00     0.271 S 
ATOM      9  O   UNL d   1      45.109 -16.652  44.877  0.00  0.00    -0.200 OA
ATOM     10  O   UNL d   1      46.520 -16.121  44.206  0.00  0.00    -0.200 OA
BRANCH   8  11
ATOM     11  N   UNL d   1      45.611 -15.610  44.730  0.00  0.00    -0.229 N 
BRANCH  11  12
ATOM     12  C   UNL d   1      44.837 -15.429  44.955  0.00  0.00     0.092 C 
BRANCH  12  13
ATOM     13  C   UNL d   1      44.515 -14.692  44.767  0.00  0.00     0.020 C 
ATOM     14  C   UNL d   1      43.707 -14.555  44.864  0.00  0.00     0.002 C 
ENDBRANCH  12  13
ENDBRANCH  11  12
BRANCH  11  15
ATOM     15  C   UNL d   1      46.180 -15.015  44.694  0.00  0.00     0.092 C 
BRANCH  15  16
ATOM     16  C   UNL d   1      45.967 -14.230  44.838  0.00  0.00     0.020 C 
ATOM     17  C   UNL d   1      46.285 -13.620  44.369  0.00  0.00     0.002 C 
ENDBRANCH  15  16
ENDBRANCH  11  15
ENDBRANCH   8  11
ENDBRANCH   2   8
BRANCH   1  18
ATOM     18  N   UNL d   1      46.157 -18.452  42.593  0.00  0.00    -0.113 N 
ATOM     19  O   UNL d   1      46.616 -18.082  42.019  0.00  0.00    -0.532 OA
ATOM     20  O   UNL d   1      45.662 -19.079  42.385  0.00  0.00    -0.532 OA
ENDBRANCH   1  18
TORSDOF 7
ENDMDL
MODEL 2
REMARK VINA RESULT:      17.1      0.903      1.514
REMARK  7 active torsions:
REMARK  status: ('A' for Active; 'I' for Inactive)
REMARK    1  A    between atoms: C_4  and  S_1 
REMARK    2  A    between atoms: N_6  and  S_1 
REMARK    3  A    between atoms: N_3  and  C_2 
REMARK    4  A    between atoms: C_15  and  N_6 
REMARK    5  A    between atoms: C_16  and  N_6 
REMARK    6  A    between atoms: C_18  and  C_15 
REMARK    7  A    between atoms: C_17  and  C_16 
ROOT
ATOM      1  C   UNL d   1      46.015 -17.519  43.497  0.00  0.00     0.138 A 
ATOM      2  C   UNL d   1      45.879 -16.324  44.268  0.00  0.00     0.106 A 
ATOM      3  C   UNL d   1      45.859 -16.710  43.540  0.00  0.00     0.037 A 
ATOM      4  C   UNL d   1      46.192 -17.942  44.181  0.00  0.00     0.080 A 
ATOM      5  C   UNL d   1      46.056 -16.748  44.955  0.00  0.00     0.014 A 
ATOM      6  C   UNL d   1      46.212 -17.557  44.912  0.00  0.00     0.014 A 
ATOM      7 CL   UNL d   1      46.348 -18.751  44.138  0.00  0.00    -0.081 Cl
ENDROOT
BRANCH   2   8
ATOM      8  S   UNL d   1      45.723 -15.515  44.311  0.00  0.00     0.271 S 
ATOM      9  O   UNL d   1      46.511 -15.353  44.129  0.00  0.00    -0.200 OA
ATOM     10  O   UNL d   1      44.935 -15.677  44.493  0.00  0.00    -0.200 OA
BRANCH   8  11
ATOM     11  N   UNL d   1      45.567 -14.706  44.354  0.00  0.00    -0.229 N 
BRANCH  11  12
ATOM     12  C   UNL d   1      46.174 -14.179  44.542  0.00  0.00     0.092 C 
BRANCH  12  13
ATOM     13  C   UNL d   1      45.994 -13.445  44.876  0.00  0.00     0.020 C 
ATOM     14  C   UNL d   1      46.580 -12.868  44.954  0.00  0.00     0.002 C 
ENDBRANCH  12  13
ENDBRANCH  11  12
BRANCH  11  15
ATOM     15  C   UNL d   1      44.807 -14.425  44.209  0.00  0.00     0.092 C 
BRANCH  15  16
ATOM     16  C   UNL d   1      44.677 -13.615  44.112  0.00  0.00     0.020 C 
ATOM     17  C   UNL d   1      44.299 -13.334  43.425  0.00  0.00     0.002 C 
ENDBRANCH  15  16
ENDBRANCH  11  15
ENDBRANCH   8  11
ENDBRANCH   2   8
BRANCH   1  18
ATOM     18  N   UNL d   1      45.994 -17.904  42.761  0.00  0.00    -0.113 N 
ATOM     19  O   UNL d   1      45.326 -17.850  42.285  0.00  0.00    -0.532 OA
ATOM     20  O   UNL d   1      46.647 -18.342  42.509  0.00  0.00    -0.532 OA
ENDBRANCH   1  18
TORSDOF 7
ENDMDL
MODEL 3
REMARK VINA RESULT:      17.4      1.796      3.886
REMARK  7 active torsions:
REMARK  status: ('A' for Active; 'I' for Inactive)
REMARK    1  A    between atoms: C_4  and  S_1 
REMARK    2  A    between atoms: N_6  and  S_1 
REMARK    3  A    between atoms: N_3  and  C_2 
REMARK    4  A    between atoms: C_15  and  N_6 
REMARK    5  A    between atoms: C_16  and  N_6 
REMARK    6  A    between atoms: C_18  and  C_15 
REMARK    7  A    between atoms: C_17  and  C_16 
ROOT
ATOM      1  C   UNL d   1      45.129 -14.927  44.517  0.00  0.00     0.138 A 
ATOM      2  C   UNL d   1      45.958 -16.090  44.486  0.00  0.00     0.106 A 
ATOM      3  C   UNL d   1      45.227 -15.731  44.360  0.00  0.00     0.037 A 
ATOM      4  C   UNL d   1      45.762 -14.482  44.799  0.00  0.00     0.080 A 
ATOM      5  C   UNL d   1      46.594 -15.644  44.770  0.00  0.00     0.014 A 
ATOM      6  C   UNL d   1      46.495 -14.840  44.926  0.00  0.00     0.014 A 
ATOM      7 CL   UNL d   1      45.663 -13.678  44.955  0.00  0.00    -0.081 Cl
ENDROOT
BRANCH   2   8
ATOM      8  S   UNL d   1      46.057 -16.894  44.330  0.00  0.00     0.271 S 
ATOM      9  O   UNL d   1      45.472 -17.073  44.884  0.00  0.00    -0.200 OA
ATOM     10  O   UNL d   1      46.642 -16.715  43.777  0.00  0.00    -0.200 OA
BRANCH   8  11
ATOM     11  N   UNL d   1      46.155 -17.698  44.174  0.00  0.00    -0.229 N 
BRANCH  11  12
ATOM     12  C   UNL d   1      46.123 -18.245  44.792  0.00  0.00     0.092 C 
BRANCH  12  13
ATOM     13  C   UNL d   1      46.483 -18.984  44.708  0.00  0.00     0.020 C 
ATOM     14  C   UNL d   1      46.091 -19.668  44.955  0.00  0.00     0.002 C 
ENDBRANCH  12  13
ENDBRANCH  11  12
BRANCH  11  15
ATOM     15  C   UNL d   1      46.285 -17.955  43.402  0.00  0.00     0.092 C 
BRANCH  15  16
ATOM     16  C   UNL d   1      46.266 -18.762  43.227  0.00  0.00     0.020 C 
ATOM     17  C   UNL d   1      46.383 -19.021  42.444  0.00  0.00     0.002 C 
ENDBRANCH  15  16
ENDBRANCH  11  15
ENDBRANCH   8  11
ENDBRANCH   2   8
BRANCH   1  18
ATOM     18  N   UNL d   1      44.391 -14.570  44.388  0.00  0.00    -0.113 N 
ATOM     19  O   UNL d   1      44.319 -13.947  43.855  0.00  0.00    -0.532 OA
ATOM     20  O   UNL d   1      43.728 -14.842  44.797  0.00  0.00    -0.532 OA
ENDBRANCH   1  18
TORSDOF 7
ENDMDL
