MODEL 1
REMARK VINA RESULT:      46.0      0.000      0.000
REMARK  6 active torsions:
REMARK  status: ('A' for Active; 'I' for Inactive)
REMARK    1  A    between atoms: C_5  and  N_1 
REMARK    2  A    between atoms: C_8  and  C_2 
REMARK    3  A    between atoms: C_3  and  O_4 
REMARK    4  A    between atoms: O_4  and  C_9 
REMARK    5  A    between atoms: C_7  and  C_5 
REMARK    6  A    between atoms: C_9  and  C_7 
ROOT
ATOM      1  O   UNL d   1     -49.708  26.806  33.923  0.00  0.00    -0.302 OA
ENDROOT
BRANCH   1   2
ATOM      2  C   UNL d   1     -50.485  26.613  33.745  0.00  0.00     0.100 A 
ATOM      3  C   UNL d   1     -50.672  25.853  33.484  0.00  0.00     0.023 A 
ATOM      4  C   UNL d   1     -51.450  25.659  33.306  0.00  0.00     0.002 A 
ATOM      5  C   UNL d   1     -52.047  26.226  33.387  0.00  0.00     0.000 A 
ATOM      6  C   UNL d   1     -51.863  26.983  33.646  0.00  0.00     0.002 A 
ATOM      7  C   UNL d   1     -51.082  27.179  33.826  0.00  0.00     0.025 A 
BRANCH   3   8
ATOM      8  C   UNL d   1     -50.078  25.289  33.403  0.00  0.00     0.002 C 
ATOM      9  C   UNL d   1     -50.267  24.486  33.420  0.00  0.00     0.000 C 
ATOM     10  C   UNL d   1     -49.297  25.525  33.306  0.00  0.00     0.000 C 
ENDBRANCH   3   8
ENDBRANCH   1   2
BRANCH   1  11
ATOM     11  C   UNL d   1     -49.543  27.512  34.314  0.00  0.00     0.166 C 
BRANCH  11  12
ATOM     12  C   UNL d   1     -48.762  27.700  34.515  0.00  0.00     0.238 C 
ATOM     13  O   UNL d   1     -48.279  27.127  34.855  0.00  0.00    -0.283 OA
BRANCH  12  14
ATOM     14  C   UNL d   1     -48.471  28.455  34.378  0.00  0.00     0.125 C 
BRANCH  14  15
ATOM     15  N   UNL d   1     -48.141  28.890  34.996  0.00  0.00    -0.296 N 
ATOM     16  C   UNL d   1     -48.336  28.702  35.778  0.00  0.00     0.107 A 
ATOM     17  C   UNL d   1     -48.010  29.134  36.396  0.00  0.00     0.142 A 
ATOM     18  O   UNL d   1     -47.488  29.753  36.235  0.00  0.00    -0.300 OA
ATOM     19  C   UNL d   1     -47.297  29.938  35.457  0.00  0.00     0.142 A 
ATOM     20  C   UNL d   1     -47.625  29.504  34.834  0.00  0.00     0.107 A 
ENDBRANCH  14  15
ENDBRANCH  12  14
ENDBRANCH  11  12
ENDBRANCH   1  11
TORSDOF 6
ENDMDL
