MODEL 1
REMARK VINA RESULT:      -6.3      0.000      0.000
REMARK  9 active torsions:
REMARK  status: ('A' for Active; 'I' for Inactive)
REMARK    1  A    between atoms: C_9  and  C_1 
REMARK    2  A    between atoms: N_8  and  C_2 
REMARK    3  A    between atoms: C_10  and  C_4 
REMARK    4  A    between atoms: C_6  and  N_7 
REMARK    5  A    between atoms: N_7  and  N_8 
REMARK    6  A    between atoms: O_18  and  C_9 
REMARK    7  A    between atoms: O_19  and  C_10 
REMARK    8  A    between atoms: C_23  and  O_18 
REMARK    9  A    between atoms: C_24  and  O_19 
ROOT
ATOM      1  C   UNL d   1      53.170  33.260  53.352  0.00  0.00     0.090 A 
ATOM      2  C   UNL d   1      52.732  32.593  53.268  0.00  0.00     0.138 A 
ATOM      3  C   UNL d   1      52.728  33.873  53.090  0.00  0.00     0.018 A 
ATOM      4  C   UNL d   1      52.029  33.643  52.840  0.00  0.00     0.095 A 
ATOM      5  S   UNL d   1      51.989  32.830  52.937  0.00  0.00    -0.061 SA
ATOM      6  C   UNL d   1      52.972  34.713  53.072  0.00  0.00     0.001 C 
ENDROOT
BRANCH   2   7
ATOM      7  N   UNL d   1      53.026  31.855  53.488  0.00  0.00    -0.141 NA
BRANCH   7   8
ATOM      8  N   UNL d   1      52.546  31.161  53.493  0.00  0.00    -0.141 NA
BRANCH   8   9
ATOM      9  C   UNL d   1      52.898  30.397  53.651  0.00  0.00     0.180 A 
ATOM     10  C   UNL d   1      53.037  29.892  52.982  0.00  0.00     0.218 A 
ATOM     11  O   UNL d   1      52.829  30.164  52.233  0.00  0.00    -0.285 OA
ATOM     12  C   UNL d   1      53.375  29.149  53.104  0.00  0.00     0.044 A 
ATOM     13  C   UNL d   1      53.583  28.877  53.854  0.00  0.00     0.007 A 
ATOM     14  C   UNL d   1      53.452  29.366  54.529  0.00  0.00     0.044 A 
ATOM     15  C   UNL d   1      53.105  30.134  54.424  0.00  0.00     0.218 A 
ATOM     16  O   UNL d   1      52.982  30.594  55.072  0.00  0.00    -0.285 OA
ENDBRANCH   8   9
ENDBRANCH   7   8
ENDBRANCH   2   7
BRANCH   1  17
ATOM     17  C   UNL d   1      53.951  33.291  53.662  0.00  0.00     0.302 C 
ATOM     18  O   UNL d   1      54.611  33.121  53.178  0.00  0.00    -0.259 OA
BRANCH  17  19
ATOM     19  O   UNL d   1      54.066  33.500  54.480  0.00  0.00    -0.271 OA
BRANCH  19  20
ATOM     20  C   UNL d   1      54.825  33.511  54.803  0.00  0.00     0.126 C 
ATOM     21  C   UNL d   1      54.909  33.636  55.613  0.00  0.00     0.029 C 
ENDBRANCH  19  20
ENDBRANCH  17  19
ENDBRANCH   1  17
BRANCH   4  22
ATOM     22  C   UNL d   1      51.432  34.150  52.530  0.00  0.00     0.306 C 
ATOM     23  O   UNL d   1      51.505  34.471  51.798  0.00  0.00    -0.258 OA
BRANCH  22  24
ATOM     24  O   UNL d   1      50.785  34.290  53.016  0.00  0.00    -0.271 OA
BRANCH  24  25
ATOM     25  C   UNL d   1      50.065  34.563  52.659  0.00  0.00     0.126 C 
ATOM     26  C   UNL d   1      49.510  34.920  53.120  0.00  0.00     0.029 C 
ENDBRANCH  24  25
ENDBRANCH  22  24
ENDBRANCH   4  22
TORSDOF 9
ENDMDL
MODEL 2
REMARK VINA RESULT:      -5.5      1.158      4.195
REMARK  9 active torsions:
REMARK  status: ('A' for Active; 'I' for Inactive)
REMARK    1  A    between atoms: C_9  and  C_1 
REMARK    2  A    between atoms: N_8  and  C_2 
REMARK    3  A    between atoms: C_10  and  C_4 
REMARK    4  A    between atoms: C_6  and  N_7 
REMARK    5  A    between atoms: N_7  and  N_8 
REMARK    6  A    between atoms: O_18  and  C_9 
REMARK    7  A    between atoms: O_19  and  C_10 
REMARK    8  A    between atoms: C_23  and  O_18 
REMARK    9  A    between atoms: C_24  and  O_19 
ROOT
ATOM      1  C   UNL d   1      53.376  32.802  53.587  0.00  0.00     0.090 A 
ATOM      2  C   UNL d   1      52.683  32.627  53.223  0.00  0.00     0.138 A 
ATOM      3  C   UNL d   1      53.762  32.113  53.714  0.00  0.00     0.018 A 
ATOM      4  C   UNL d   1      53.361  31.501  53.453  0.00  0.00     0.095 A 
ATOM      5  S   UNL d   1      52.663  31.785  53.130  0.00  0.00    -0.061 SA
ATOM      6  C   UNL d   1      54.543  32.024  54.097  0.00  0.00     0.001 C 
ENDROOT
BRANCH   2   7
ATOM      7  N   UNL d   1      52.148  33.217  53.011  0.00  0.00    -0.141 NA
BRANCH   7   8
ATOM      8  N   UNL d   1      51.378  33.042  52.713  0.00  0.00    -0.141 NA
BRANCH   8   9
ATOM      9  C   UNL d   1      50.832  33.676  52.535  0.00  0.00     0.180 A 
ATOM     10  C   UNL d   1      50.247  33.856  53.124  0.00  0.00     0.218 A 
ATOM     11  O   UNL d   1      50.240  33.415  53.821  0.00  0.00    -0.285 OA
ATOM     12  C   UNL d   1      49.706  34.463  52.981  0.00  0.00     0.044 A 
ATOM     13  C   UNL d   1      49.713  34.904  52.285  0.00  0.00     0.007 A 
ATOM     14  C   UNL d   1      50.287  34.738  51.689  0.00  0.00     0.044 A 
ATOM     15  C   UNL d   1      50.851  34.117  51.818  0.00  0.00     0.218 A 
ATOM     16  O   UNL d   1      51.396  33.966  51.246  0.00  0.00    -0.285 OA
ENDBRANCH   8   9
ENDBRANCH   7   8
ENDBRANCH   2   7
BRANCH   1  17
ATOM     17  C   UNL d   1      53.634  33.576  53.792  0.00  0.00     0.302 C 
ATOM     18  O   UNL d   1      54.112  34.020  53.270  0.00  0.00    -0.259 OA
BRANCH  17  19
ATOM     19  O   UNL d   1      53.403  33.906  54.543  0.00  0.00    -0.271 OA
BRANCH  19  20
ATOM     20  C   UNL d   1      53.640  34.669  54.751  0.00  0.00     0.126 C 
ATOM     21  C   UNL d   1      53.224  35.064  55.341  0.00  0.00     0.029 C 
ENDBRANCH  19  20
ENDBRANCH  17  19
ENDBRANCH   1  17
BRANCH   4  22
ATOM     22  C   UNL d   1      53.611  30.699  53.501  0.00  0.00     0.306 C 
ATOM     23  O   UNL d   1      54.152  30.406  52.985  0.00  0.00    -0.258 OA
BRANCH  22  24
ATOM     24  O   UNL d   1      53.273  30.246  54.097  0.00  0.00    -0.271 OA
BRANCH  24  25
ATOM     25  C   UNL d   1      53.354  29.402  54.056  0.00  0.00     0.126 C 
ATOM     26  C   UNL d   1      53.212  28.963  54.716  0.00  0.00     0.029 C 
ENDBRANCH  24  25
ENDBRANCH  22  24
ENDBRANCH   4  22
TORSDOF 9
ENDMDL
MODEL 3
REMARK VINA RESULT:      -5.2      1.299      4.328
REMARK  9 active torsions:
REMARK  status: ('A' for Active; 'I' for Inactive)
REMARK    1  A    between atoms: C_9  and  C_1 
REMARK    2  A    between atoms: N_8  and  C_2 
REMARK    3  A    between atoms: C_10  and  C_4 
REMARK    4  A    between atoms: C_6  and  N_7 
REMARK    5  A    between atoms: N_7  and  N_8 
REMARK    6  A    between atoms: O_18  and  C_9 
REMARK    7  A    between atoms: O_19  and  C_10 
REMARK    8  A    between atoms: C_23  and  O_18 
REMARK    9  A    between atoms: C_24  and  O_19 
ROOT
ATOM      1  C   UNL d   1      53.092  32.165  53.215  0.00  0.00     0.090 A 
ATOM      2  C   UNL d   1      52.830  32.922  53.190  0.00  0.00     0.138 A 
ATOM      3  C   UNL d   1      53.814  32.171  53.561  0.00  0.00     0.018 A 
ATOM      4  C   UNL d   1      54.036  32.888  53.762  0.00  0.00     0.095 A 
ATOM      5  S   UNL d   1      53.435  33.401  53.542  0.00  0.00    -0.061 SA
ATOM      6  C   UNL d   1      54.319  31.473  53.710  0.00  0.00     0.001 C 
ENDROOT
BRANCH   2   7
ATOM      7  N   UNL d   1      52.097  33.113  52.865  0.00  0.00    -0.141 NA
BRANCH   7   8
ATOM      8  N   UNL d   1      51.841  33.911  52.765  0.00  0.00    -0.141 NA
BRANCH   8   9
ATOM      9  C   UNL d   1      51.045  34.077  52.501  0.00  0.00     0.180 A 
ATOM     10  C   UNL d   1      50.941  34.243  51.674  0.00  0.00     0.218 A 
ATOM     11  O   UNL d   1      51.603  34.235  51.184  0.00  0.00    -0.285 OA
ATOM     12  C   UNL d   1      50.184  34.406  51.389  0.00  0.00     0.044 A 
ATOM     13  C   UNL d   1      49.521  34.414  51.880  0.00  0.00     0.007 A 
ATOM     14  C   UNL d   1      49.606  34.251  52.704  0.00  0.00     0.044 A 
ATOM     15  C   UNL d   1      50.378  34.081  53.015  0.00  0.00     0.218 A 
ATOM     16  O   UNL d   1      50.451  33.927  53.800  0.00  0.00    -0.285 OA
ENDBRANCH   8   9
ENDBRANCH   7   8
ENDBRANCH   2   7
BRANCH   1  17
ATOM     17  C   UNL d   1      52.672  31.496  52.926  0.00  0.00     0.302 C 
ATOM     18  O   UNL d   1      52.737  31.262  52.126  0.00  0.00    -0.259 OA
BRANCH  17  19
ATOM     19  O   UNL d   1      52.175  31.055  53.460  0.00  0.00    -0.271 OA
BRANCH  19  20
ATOM     20  C   UNL d   1      51.946  30.285  53.271  0.00  0.00     0.126 C 
ATOM     21  C   UNL d   1      51.356  29.927  53.721  0.00  0.00     0.029 C 
ENDBRANCH  19  20
ENDBRANCH  17  19
ENDBRANCH   1  17
BRANCH   4  22
ATOM     22  C   UNL d   1      54.763  33.085  54.135  0.00  0.00     0.306 C 
ATOM     23  O   UNL d   1      55.450  33.093  53.720  0.00  0.00    -0.258 OA
BRANCH  22  24
ATOM     24  O   UNL d   1      54.725  33.266  54.936  0.00  0.00    -0.271 OA
BRANCH  24  25
ATOM     25  C   UNL d   1      55.329  33.762  55.266  0.00  0.00     0.126 C 
ATOM     26  C   UNL d   1      55.241  34.040  56.017  0.00  0.00     0.029 C 
ENDBRANCH  24  25
ENDBRANCH  22  24
ENDBRANCH   4  22
TORSDOF 9
ENDMDL
MODEL 4
REMARK VINA RESULT:      -4.8      1.400      4.343
REMARK  9 active torsions:
REMARK  status: ('A' for Active; 'I' for Inactive)
REMARK    1  A    between atoms: C_9  and  C_1 
REMARK    2  A    between atoms: N_8  and  C_2 
REMARK    3  A    between atoms: C_10  and  C_4 
REMARK    4  A    between atoms: C_6  and  N_7 
REMARK    5  A    between atoms: N_7  and  N_8 
REMARK    6  A    between atoms: O_18  and  C_9 
REMARK    7  A    between atoms: O_19  and  C_10 
REMARK    8  A    between atoms: C_23  and  O_18 
REMARK    9  A    between atoms: C_24  and  O_19 
ROOT
ATOM      1  C   UNL d   1      52.771  31.513  53.242  0.00  0.00     0.090 A 
ATOM      2  C   UNL d   1      53.458  31.543  53.654  0.00  0.00     0.138 A 
ATOM      3  C   UNL d   1      52.530  30.750  53.229  0.00  0.00     0.018 A 
ATOM      4  C   UNL d   1      53.021  30.282  53.608  0.00  0.00     0.095 A 
ATOM      5  S   UNL d   1      53.630  30.749  53.897  0.00  0.00    -0.061 SA
ATOM      6  C   UNL d   1      51.807  30.445  52.843  0.00  0.00     0.001 C 
ENDROOT
BRANCH   2   7
ATOM      7  N   UNL d   1      53.858  32.253  53.773  0.00  0.00    -0.141 NA
BRANCH   7   8
ATOM      8  N   UNL d   1      54.594  32.294  54.184  0.00  0.00    -0.141 NA
BRANCH   8   9
ATOM      9  C   UNL d   1      54.854  33.033  54.527  0.00  0.00     0.180 A 
ATOM     10  C   UNL d   1      55.365  33.519  54.051  0.00  0.00     0.218 A 
ATOM     11  O   UNL d   1      55.575  33.252  53.300  0.00  0.00    -0.285 OA
ATOM     12  C   UNL d   1      55.632  34.238  54.354  0.00  0.00     0.044 A 
ATOM     13  C   UNL d   1      55.421  34.505  55.106  0.00  0.00     0.007 A 
ATOM     14  C   UNL d   1      54.915  34.035  55.591  0.00  0.00     0.044 A 
ATOM     15  C   UNL d   1      54.630  33.292  55.296  0.00  0.00     0.218 A 
ATOM     16  O   UNL d   1      54.149  32.850  55.764  0.00  0.00    -0.285 OA
ENDBRANCH   8   9
ENDBRANCH   7   8
ENDBRANCH   2   7
BRANCH   1  17
ATOM     17  C   UNL d   1      52.386  32.175  52.893  0.00  0.00     0.302 C 
ATOM     18  O   UNL d   1      52.582  32.426  52.120  0.00  0.00    -0.259 OA
BRANCH  17  19
ATOM     19  O   UNL d   1      51.789  32.590  53.337  0.00  0.00    -0.271 OA
BRANCH  19  20
ATOM     20  C   UNL d   1      51.422  33.256  53.016  0.00  0.00     0.126 C 
ATOM     21  C   UNL d   1      50.886  33.674  53.481  0.00  0.00     0.029 C 
ENDBRANCH  19  20
ENDBRANCH  17  19
ENDBRANCH   1  17
BRANCH   4  22
ATOM     22  C   UNL d   1      52.929  29.451  53.698  0.00  0.00     0.306 C 
ATOM     23  O   UNL d   1      52.786  28.982  53.062  0.00  0.00    -0.258 OA
BRANCH  22  24
ATOM     24  O   UNL d   1      52.995  29.157  54.462  0.00  0.00    -0.271 OA
BRANCH  24  25
ATOM     25  C   UNL d   1      53.377  28.407  54.573  0.00  0.00     0.126 C 
ATOM     26  C   UNL d   1      53.498  28.137  55.322  0.00  0.00     0.029 C 
ENDBRANCH  24  25
ENDBRANCH  22  24
ENDBRANCH   4  22
TORSDOF 9
ENDMDL
MODEL 5
REMARK VINA RESULT:      -4.2      1.326      3.319
REMARK  9 active torsions:
REMARK  status: ('A' for Active; 'I' for Inactive)
REMARK    1  A    between atoms: C_9  and  C_1 
REMARK    2  A    between atoms: N_8  and  C_2 
REMARK    3  A    between atoms: C_10  and  C_4 
REMARK    4  A    between atoms: C_6  and  N_7 
REMARK    5  A    between atoms: N_7  and  N_8 
REMARK    6  A    between atoms: O_18  and  C_9 
REMARK    7  A    between atoms: O_19  and  C_10 
REMARK    8  A    between atoms: C_23  and  O_18 
REMARK    9  A    between atoms: C_24  and  O_19 
ROOT
ATOM      1  C   UNL d   1      51.693  32.853  53.170  0.00  0.00     0.090 A 
ATOM      2  C   UNL d   1      52.161  33.485  53.322  0.00  0.00     0.138 A 
ATOM      3  C   UNL d   1      51.013  33.126  52.850  0.00  0.00     0.018 A 
ATOM      4  C   UNL d   1      51.011  33.901  52.786  0.00  0.00     0.095 A 
ATOM      5  S   UNL d   1      51.728  34.172  53.076  0.00  0.00    -0.061 SA
ATOM      6  C   UNL d   1      50.332  32.641  52.594  0.00  0.00     0.001 C 
ENDROOT
BRANCH   2   7
ATOM      7  N   UNL d   1      52.909  33.397  53.656  0.00  0.00    -0.141 NA
BRANCH   7   8
ATOM      8  N   UNL d   1      53.394  34.058  53.858  0.00  0.00    -0.141 NA
BRANCH   8   9
ATOM      9  C   UNL d   1      54.095  33.945  54.337  0.00  0.00     0.180 A 
ATOM     10  C   UNL d   1      54.059  34.221  55.140  0.00  0.00     0.218 A 
ATOM     11  O   UNL d   1      53.364  34.575  55.405  0.00  0.00    -0.285 OA
ATOM     12  C   UNL d   1      54.719  34.126  55.626  0.00  0.00     0.044 A 
ATOM     13  C   UNL d   1      55.415  33.772  55.360  0.00  0.00     0.007 A 
ATOM     14  C   UNL d   1      55.467  33.493  54.566  0.00  0.00     0.044 A 
ATOM     15  C   UNL d   1      54.798  33.581  54.051  0.00  0.00     0.218 A 
ATOM     16  O   UNL d   1      54.855  33.313  53.295  0.00  0.00    -0.285 OA
ENDBRANCH   8   9
ENDBRANCH   7   8
ENDBRANCH   2   7
BRANCH   1  17
ATOM     17  C   UNL d   1      51.896  32.051  53.325  0.00  0.00     0.302 C 
ATOM     18  O   UNL d   1      51.657  31.677  54.033  0.00  0.00    -0.259 OA
BRANCH  17  19
ATOM     19  O   UNL d   1      52.351  31.619  52.748  0.00  0.00    -0.271 OA
BRANCH  19  20
ATOM     20  C   UNL d   1      52.523  30.820  52.869  0.00  0.00     0.126 C 
ATOM     21  C   UNL d   1      53.145  30.482  52.450  0.00  0.00     0.029 C 
ENDBRANCH  19  20
ENDBRANCH  17  19
ENDBRANCH   1  17
BRANCH   4  22
ATOM     22  C   UNL d   1      50.381  34.362  52.473  0.00  0.00     0.306 C 
ATOM     23  O   UNL d   1      50.286  34.444  51.680  0.00  0.00    -0.258 OA
BRANCH  22  24
ATOM     24  O   UNL d   1      49.880  34.714  53.020  0.00  0.00    -0.271 OA
BRANCH  24  25
ATOM     25  C   UNL d   1      49.253  35.208  52.733  0.00  0.00     0.126 C 
ATOM     26  C   UNL d   1      48.781  35.590  53.262  0.00  0.00     0.029 C 
ENDBRANCH  24  25
ENDBRANCH  22  24
ENDBRANCH   4  22
TORSDOF 9
ENDMDL
MODEL 6
REMARK VINA RESULT:      -4.0      1.058      2.949
REMARK  9 active torsions:
REMARK  status: ('A' for Active; 'I' for Inactive)
REMARK    1  A    between atoms: C_9  and  C_1 
REMARK    2  A    between atoms: N_8  and  C_2 
REMARK    3  A    between atoms: C_10  and  C_4 
REMARK    4  A    between atoms: C_6  and  N_7 
REMARK    5  A    between atoms: N_7  and  N_8 
REMARK    6  A    between atoms: O_18  and  C_9 
REMARK    7  A    between atoms: O_19  and  C_10 
REMARK    8  A    between atoms: C_23  and  O_18 
REMARK    9  A    between atoms: C_24  and  O_19 
ROOT
ATOM      1  C   UNL d   1      52.324  33.553  53.642  0.00  0.00     0.090 A 
ATOM      2  C   UNL d   1      52.861  32.962  53.707  0.00  0.00     0.138 A 
ATOM      3  C   UNL d   1      52.642  34.206  53.977  0.00  0.00     0.018 A 
ATOM      4  C   UNL d   1      53.355  34.073  54.256  0.00  0.00     0.095 A 
ATOM      5  S   UNL d   1      53.535  33.288  54.104  0.00  0.00    -0.061 SA
ATOM      6  C   UNL d   1      52.260  34.991  54.039  0.00  0.00     0.001 C 
ENDROOT
BRANCH   2   7
ATOM      7  N   UNL d   1      52.707  32.206  53.415  0.00  0.00    -0.141 NA
BRANCH   7   8
ATOM      8  N   UNL d   1      53.316  31.631  53.309  0.00  0.00    -0.141 NA
BRANCH   8   9
ATOM      9  C   UNL d   1      53.136  30.798  53.386  0.00  0.00     0.180 A 
ATOM     10  C   UNL d   1      52.852  30.400  52.691  0.00  0.00     0.218 A 
ATOM     11  O   UNL d   1      52.767  30.834  51.995  0.00  0.00    -0.285 OA
ATOM     12  C   UNL d   1      52.670  29.596  52.734  0.00  0.00     0.044 A 
ATOM     13  C   UNL d   1      52.755  29.162  53.431  0.00  0.00     0.007 A 
ATOM     14  C   UNL d   1      53.037  29.542  54.130  0.00  0.00     0.044 A 
ATOM     15  C   UNL d   1      53.229  30.368  54.104  0.00  0.00     0.218 A 
ATOM     16  O   UNL d   1      53.496  30.723  54.774  0.00  0.00    -0.285 OA
ENDBRANCH   8   9
ENDBRANCH   7   8
ENDBRANCH   2   7
BRANCH   1  17
ATOM     17  C   UNL d   1      51.566  33.482  53.283  0.00  0.00     0.302 C 
ATOM     18  O   UNL d   1      50.930  33.125  53.691  0.00  0.00    -0.259 OA
BRANCH  17  19
ATOM     19  O   UNL d   1      51.451  33.781  52.493  0.00  0.00    -0.271 OA
BRANCH  19  20
ATOM     20  C   UNL d   1      50.690  33.843  52.181  0.00  0.00     0.126 C 
ATOM     21  C   UNL d   1      50.596  34.167  51.429  0.00  0.00     0.029 C 
ENDBRANCH  19  20
ENDBRANCH  17  19
ENDBRANCH   1  17
BRANCH   4  22
ATOM     22  C   UNL d   1      53.840  34.643  54.641  0.00  0.00     0.306 C 
ATOM     23  O   UNL d   1      53.800  35.419  54.441  0.00  0.00    -0.258 OA
BRANCH  22  24
ATOM     24  O   UNL d   1      54.346  34.357  55.221  0.00  0.00    -0.271 OA
BRANCH  24  25
ATOM     25  C   UNL d   1      55.165  34.580  55.187  0.00  0.00     0.126 C 
ATOM     26  C   UNL d   1      55.711  34.125  55.566  0.00  0.00     0.029 C 
ENDBRANCH  24  25
ENDBRANCH  22  24
ENDBRANCH   4  22
TORSDOF 9
ENDMDL
