MODEL 1
REMARK VINA RESULT:     143.7      0.000      0.000
REMARK  5 active torsions:
REMARK  status: ('A' for Active; 'I' for Inactive)
REMARK    1  A    between atoms: N_6  and  S_1 
REMARK    2  A    between atoms: C_11  and  S_1 
REMARK    3  A    between atoms: C_2  and  N_8 
REMARK    4  A    between atoms: C_10  and  C_3 
REMARK       I    between atoms: N_8  and  C_9 
REMARK    5  A    between atoms: C_9  and  C_17 
REMARK       I    between atoms: N_26  and  C_10 
ROOT
ATOM      1  N   UNL d   1      62.186  43.776  50.443  0.00  0.00    -0.201 NA
ATOM      2  C   UNL d   1      61.880  44.266  49.840  0.00  0.00     0.280 C 
ATOM      3  O   UNL d   1      61.773  43.956  49.076  0.00  0.00    -0.265 OA
ENDROOT
BRANCH   2   4
ATOM      4  C   UNL d   1      61.687  45.052  50.012  0.00  0.00     0.058 A 
ATOM      5  C   UNL d   1      61.015  45.198  50.469  0.00  0.00     0.005 A 
ATOM      6  C   UNL d   1      60.812  45.983  50.648  0.00  0.00     0.013 A 
ATOM      7  C   UNL d   1      61.280  46.606  50.369  0.00  0.00     0.104 A 
ATOM      8  C   UNL d   1      61.952  46.439  49.911  0.00  0.00     0.013 A 
ATOM      9  C   UNL d   1      62.149  45.654  49.736  0.00  0.00     0.005 A 
BRANCH   7  10
ATOM     10  S   UNL d   1      61.080  47.383  50.545  0.00  0.00     0.271 S 
ATOM     11  O   UNL d   1      61.723  47.669  50.128  0.00  0.00    -0.200 OA
ATOM     12  O   UNL d   1      60.428  47.083  50.968  0.00  0.00    -0.200 OA
BRANCH  10  13
ATOM     13  N   UNL d   1      60.881  48.150  50.721  0.00  0.00    -0.231 N 
ATOM     14  C   UNL d   1      61.015  48.460  51.467  0.00  0.00     0.075 A 
ATOM     15  C   UNL d   1      61.359  47.987  52.053  0.00  0.00     0.020 C 
ATOM     16  C   UNL d   1      60.811  49.235  51.638  0.00  0.00     0.018 A 
ATOM     17  C   UNL d   1      60.467  49.708  51.052  0.00  0.00     0.003 A 
ATOM     18  C   UNL d   1      60.332  49.402  50.308  0.00  0.00     0.020 A 
ATOM     19  C   UNL d   1      60.539  48.630  50.152  0.00  0.00     0.092 A 
ENDBRANCH  10  13
ENDBRANCH   7  10
ENDBRANCH   2   4
BRANCH   1  20
ATOM     20  C   UNL d   1      62.377  42.989  50.266  0.00  0.00     0.119 A 
ATOM     21  C   UNL d   1      62.508  42.399  50.830  0.00  0.00     0.082 A 
ATOM     22  C   UNL d   1      62.683  41.699  50.437  0.00  0.00     0.016 A 
ATOM     23  C   UNL d   1      62.858  40.946  50.711  0.00  0.00     0.020 A 
ATOM     24  C   UNL d   1      62.661  41.851  49.628  0.00  0.00     0.049 A 
ATOM     25  C   UNL d   1      63.013  40.338  50.172  0.00  0.00     0.080 A 
ATOM     26  N   UNL d   1      62.994  40.483  49.358  0.00  0.00    -0.301 N 
ATOM     27  C   UNL d   1      62.816  41.244  49.094  0.00  0.00     0.087 A 
ATOM     28  C   UNL d   1      63.147  39.883  48.828  0.00  0.00     0.100 C 
ATOM     29  S   UNL d   1      62.471  42.654  49.525  0.00  0.00    -0.066 SA
BRANCH  21  30
ATOM     30  C   UNL d   1      62.472  42.488  51.646  0.00  0.00     0.281 C 
ATOM     31  O   UNL d   1      63.155  42.595  52.060  0.00  0.00    -0.265 OA
ATOM     32  N   UNL d   1      61.744  42.466  52.032  0.00  0.00    -0.205 NA
ATOM     33  C   UNL d   1      61.693  42.553  52.847  0.00  0.00     0.123 C 
ENDBRANCH  21  30
ENDBRANCH   1  20
TORSDOF 5
ENDMDL
