MODEL 1
REMARK VINA RESULT:      71.4      0.000      0.000
REMARK  4 active torsions:
REMARK  status: ('A' for Active; 'I' for Inactive)
REMARK    1  A    between atoms: C_4  and  N_1 
REMARK    2  A    between atoms: S_8  and  C_5 
REMARK    3  A    between atoms: C_10  and  C_7 
REMARK    4  A    between atoms: C_9  and  S_8 
ROOT
ATOM      1  N   UNL d   1     -55.989-100.226 -43.654  0.00  0.00    -0.241 N 
ATOM      2  C   UNL d   1     -55.570 -99.544 -43.838  0.00  0.00     0.268 A 
ATOM      3  C   UNL d   1     -56.779-100.017 -43.517  0.00  0.00     0.273 A 
ATOM      4  C   UNL d   1     -56.843 -99.205 -43.618  0.00  0.00     0.091 A 
ATOM      5  C   UNL d   1     -56.098 -98.909 -43.817  0.00  0.00     0.072 A 
ATOM      6  O   UNL d   1     -54.765 -99.500 -44.014  0.00  0.00    -0.267 OA
ATOM      7  O   UNL d   1     -57.389-100.533 -43.315  0.00  0.00    -0.266 OA
ENDROOT
BRANCH   1   8
ATOM      8  C   UNL d   1     -55.677-100.984 -43.613  0.00  0.00     0.070 A 
ATOM      9  C   UNL d   1     -55.354-101.342 -44.287  0.00  0.00     0.016 A 
ATOM     10  C   UNL d   1     -55.040-102.106 -44.240  0.00  0.00     0.001 A 
ATOM     11  C   UNL d   1     -55.349-100.932 -44.998  0.00  0.00     0.001 A 
ATOM     12  C   UNL d   1     -54.722-102.459 -44.906  0.00  0.00     0.000 A 
ATOM     13  C   UNL d   1     -55.047-102.512 -43.528  0.00  0.00     0.000 A 
ATOM     14  C   UNL d   1     -54.712-102.054 -45.627  0.00  0.00     0.000 A 
ATOM     15  C   UNL d   1     -55.027-101.288 -45.670  0.00  0.00     0.000 A 
ATOM     16  C   UNL d   1     -55.369-102.159 -42.850  0.00  0.00     0.002 A 
ATOM     17  C   UNL d   1     -55.682-101.397 -42.895  0.00  0.00     0.018 A 
ENDBRANCH   1   8
BRANCH   4  18
ATOM     18  S   UNL d   1     -57.535 -98.755 -43.535  0.00  0.00    -0.082 SA
BRANCH  18  19
ATOM     19  C   UNL d   1     -58.055 -98.820 -44.167  0.00  0.00     0.035 A 
ATOM     20  C   UNL d   1     -58.864 -98.880 -44.024  0.00  0.00     0.070 A 
ATOM     21  C   UNL d   1     -59.383 -98.945 -44.661  0.00  0.00     0.007 A 
ATOM     22  C   UNL d   1     -59.097 -98.951 -45.432  0.00  0.00     0.000 A 
ATOM     23  C   UNL d   1     -58.289 -98.892 -45.568  0.00  0.00     0.001 A 
ATOM     24  C   UNL d   1     -57.769 -98.827 -44.947  0.00  0.00     0.007 A 
BRANCH  20  25
ATOM     25  C   UNL d   1     -59.148 -98.873 -43.252  0.00  0.00     0.211 C 
ATOM     26  O   UNL d   1     -59.961 -98.916 -43.114  0.00  0.00    -0.644 OA
ATOM     27  O   UNL d   1     -58.620 -98.824 -42.620  0.00  0.00    -0.644 OA
ENDBRANCH  20  25
ENDBRANCH  18  19
ENDBRANCH   4  18
TORSDOF 4
ENDMDL
