MODEL 1
REMARK VINA RESULT:      69.1      0.000      0.000
REMARK  7 active torsions:
REMARK  status: ('A' for Active; 'I' for Inactive)
REMARK    1  A    between atoms: C_3  and  C_1 
REMARK    2  A    between atoms: C_4  and  C_1 
REMARK    3  A    between atoms: N_2  and  C_6 
REMARK    4  A    between atoms: C_6  and  C_13 
REMARK    5  A    between atoms: O_12  and  C_14 
REMARK    6  A    between atoms: C_16  and  O_12 
REMARK    7  A    between atoms: C_13  and  C_16 
ROOT
ATOM      1  C   UNL d   1      61.762  47.244  49.937  0.00  0.00     0.039 A 
ATOM      2  C   UNL d   1      61.691  47.942  49.494  0.00  0.00     0.005 A 
ATOM      3  C   UNL d   1      61.431  47.200  50.685  0.00  0.00     0.005 A 
ATOM      4  C   UNL d   1      60.962  48.534  50.556  0.00  0.00     0.100 A 
ATOM      5  C   UNL d   1      61.293  48.578  49.807  0.00  0.00     0.025 A 
ATOM      6  C   UNL d   1      61.026  47.854  50.996  0.00  0.00     0.025 A 
ENDROOT
BRANCH   4   7
ATOM      7  O   UNL d   1      60.554  49.197  50.865  0.00  0.00    -0.302 OA
BRANCH   7   8
ATOM      8  C   UNL d   1      59.748  49.141  51.102  0.00  0.00     0.166 C 
BRANCH   8   9
ATOM      9  C   UNL d   1      59.153  49.497  50.640  0.00  0.00     0.238 C 
ATOM     10  O   UNL d   1      59.305  49.705  49.856  0.00  0.00    -0.283 OA
BRANCH   9  11
ATOM     11  C   UNL d   1      58.407  49.642  50.971  0.00  0.00     0.125 C 
BRANCH  11  12
ATOM     12  N   UNL d   1      57.720  49.518  50.521  0.00  0.00    -0.296 N 
ATOM     13  C   UNL d   1      57.781  49.260  49.741  0.00  0.00     0.107 A 
ATOM     14  C   UNL d   1      57.090  49.140  49.301  0.00  0.00     0.142 A 
ATOM     15  O   UNL d   1      56.342  49.277  49.641  0.00  0.00    -0.300 OA
ATOM     16  C   UNL d   1      56.295  49.536  50.424  0.00  0.00     0.142 A 
ATOM     17  C   UNL d   1      56.976  49.658  50.869  0.00  0.00     0.107 A 
ENDBRANCH  11  12
ENDBRANCH   9  11
ENDBRANCH   8   9
ENDBRANCH   7   8
ENDBRANCH   4   7
BRANCH   1  18
ATOM     18  C   UNL d   1      62.164  46.597  49.625  0.00  0.00     0.196 C 
ATOM     19  O   UNL d   1      62.978  46.637  49.498  0.00  0.00    -0.287 OA
BRANCH  18  20
ATOM     20  C   UNL d   1      61.751  45.909  49.439  0.00  0.00     0.039 A 
ATOM     21  C   UNL d   1      60.961  45.828  49.669  0.00  0.00     0.004 A 
ATOM     22  C   UNL d   1      60.546  45.144  49.487  0.00  0.00     0.011 A 
ATOM     23  C   UNL d   1      60.920  44.533  49.070  0.00  0.00     0.058 A 
ATOM     24  C   UNL d   1      61.710  44.615  48.840  0.00  0.00     0.011 A 
ATOM     25 CL   UNL d   1      60.507  43.847  48.885  0.00  0.00    -0.082 Cl
ATOM     26  C   UNL d   1      62.122  45.305  49.027  0.00  0.00     0.004 A 
ENDBRANCH  18  20
ENDBRANCH   1  18
TORSDOF 7
ENDMDL
MODEL 2
REMARK VINA RESULT:      71.8      2.324      5.456
REMARK  7 active torsions:
REMARK  status: ('A' for Active; 'I' for Inactive)
REMARK    1  A    between atoms: C_3  and  C_1 
REMARK    2  A    between atoms: C_4  and  C_1 
REMARK    3  A    between atoms: N_2  and  C_6 
REMARK    4  A    between atoms: C_6  and  C_13 
REMARK    5  A    between atoms: O_12  and  C_14 
REMARK    6  A    between atoms: C_16  and  O_12 
REMARK    7  A    between atoms: C_13  and  C_16 
ROOT
ATOM      1  C   UNL d   1      60.700  48.567  50.763  0.00  0.00     0.039 A 
ATOM      2  C   UNL d   1      60.807  47.840  51.149  0.00  0.00     0.005 A 
ATOM      3  C   UNL d   1      61.010  48.680  50.013  0.00  0.00     0.005 A 
ATOM      4  C   UNL d   1      61.530  47.359  50.029  0.00  0.00     0.100 A 
ATOM      5  C   UNL d   1      61.219  47.246  50.779  0.00  0.00     0.025 A 
ATOM      6  C   UNL d   1      61.430  48.067  49.644  0.00  0.00     0.025 A 
ENDROOT
BRANCH   4   7
ATOM      7  O   UNL d   1      61.953  46.737  49.660  0.00  0.00    -0.302 OA
BRANCH   7   8
ATOM      8  C   UNL d   1      61.630  45.962  49.607  0.00  0.00     0.166 C 
BRANCH   8   9
ATOM      9  C   UNL d   1      62.108  45.327  49.358  0.00  0.00     0.238 C 
ATOM     10  O   UNL d   1      62.898  45.456  49.158  0.00  0.00    -0.283 OA
BRANCH   9  11
ATOM     11  C   UNL d   1      61.787  44.564  49.312  0.00  0.00     0.125 C 
BRANCH  11  12
ATOM     12  N   UNL d   1      62.013  43.984  49.862  0.00  0.00    -0.296 N 
ATOM     13  C   UNL d   1      62.527  43.380  49.635  0.00  0.00     0.107 A 
ATOM     14  C   UNL d   1      62.745  42.807  50.192  0.00  0.00     0.142 A 
ATOM     15  O   UNL d   1      62.450  42.838  50.971  0.00  0.00    -0.300 OA
ATOM     16  C   UNL d   1      61.936  43.448  51.184  0.00  0.00     0.142 A 
ATOM     17  C   UNL d   1      61.714  44.022  50.639  0.00  0.00     0.107 A 
ENDBRANCH  11  12
ENDBRANCH   9  11
ENDBRANCH   8   9
ENDBRANCH   7   8
ENDBRANCH   4   7
BRANCH   1  18
ATOM     18  C   UNL d   1      60.283  49.173  51.133  0.00  0.00     0.196 C 
ATOM     19  O   UNL d   1      60.656  49.653  51.689  0.00  0.00    -0.287 OA
BRANCH  18  20
ATOM     20  C   UNL d   1      59.491  49.297  50.946  0.00  0.00     0.039 A 
ATOM     21  C   UNL d   1      59.281  49.562  50.191  0.00  0.00     0.004 A 
ATOM     22  C   UNL d   1      58.493  49.687  50.000  0.00  0.00     0.011 A 
ATOM     23  C   UNL d   1      57.905  49.547  50.567  0.00  0.00     0.058 A 
ATOM     24  C   UNL d   1      58.114  49.283  51.322  0.00  0.00     0.011 A 
ATOM     25 CL   UNL d   1      57.114  49.672  50.380  0.00  0.00    -0.082 Cl
ATOM     26  C   UNL d   1      58.909  49.159  51.507  0.00  0.00     0.004 A 
ENDBRANCH  18  20
ENDBRANCH   1  18
TORSDOF 7
ENDMDL
