MODEL 1
REMARK VINA RESULT:      19.1      0.000      0.000
REMARK  2 active torsions:
REMARK  status: ('A' for Active; 'I' for Inactive)
REMARK    1  A    between atoms: O_3  and  C_1 
REMARK    2  A    between atoms: C_2  and  O_3 
REMARK       I    between atoms: N_7  and  C_2 
ROOT
ATOM      1  C   UNL d   1      46.406 -18.146  43.362  0.00  0.00     0.129 A 
ATOM      2  C   UNL d   1      46.445 -18.881  43.736  0.00  0.00     0.105 A 
ATOM      3  C   UNL d   1      46.504 -19.572  43.304  0.00  0.00     0.026 A 
ATOM      4  C   UNL d   1      46.428 -18.127  42.528  0.00  0.00     0.059 A 
ATOM      5  C   UNL d   1      46.525 -19.544  42.487  0.00  0.00     0.037 A 
ATOM      6  C   UNL d   1      46.486 -18.808  42.102  0.00  0.00     0.015 A 
ATOM      7  N   UNL d   1      46.424 -18.905  44.566  0.00  0.00    -0.242 NA
ATOM      8 BR   UNL d   1      46.392 -17.417  42.118  0.00  0.00    -0.047 Br
ATOM      9 BR   UNL d   1      46.586 -20.255  42.043  0.00  0.00    -0.049 Br
ATOM     10  C   UNL d   1      46.542 -20.293  43.688  0.00  0.00     0.004 A 
ATOM     11  C   UNL d   1      46.462 -19.632  44.955  0.00  0.00     0.099 A 
ATOM     12  C   UNL d   1      46.522 -20.330  44.519  0.00  0.00     0.021 A 
ENDROOT
BRANCH   1  13
ATOM     13  O   UNL d   1      46.346 -17.447  43.799  0.00  0.00    -0.257 OA
BRANCH  13  14
ATOM     14  C   UNL d   1      45.658 -17.053  43.802  0.00  0.00     0.378 C 
ATOM     15  N   UNL d   1      45.617 -16.287  44.194  0.00  0.00    -0.252 N 
ATOM     16  C   UNL d   1      46.268 -15.974  44.553  0.00  0.00     0.085 A 
ATOM     17  C   UNL d   1      44.893 -15.867  44.199  0.00  0.00     0.085 A 
ATOM     18  C   UNL d   1      46.228 -15.234  44.932  0.00  0.00     0.019 A 
ATOM     19  C   UNL d   1      45.538 -14.809  44.951  0.00  0.00     0.003 A 
ATOM     20  C   UNL d   1      44.854 -15.143  44.570  0.00  0.00     0.019 A 
ATOM     21  O   UNL d   1      45.004 -17.361  43.444  0.00  0.00    -0.237 OA
ENDBRANCH  13  14
ENDBRANCH   1  13
TORSDOF 2
ENDMDL
