MODEL 1
REMARK VINA RESULT:      -2.8      0.000      0.000
REMARK  3 active torsions:
REMARK  status: ('A' for Active; 'I' for Inactive)
REMARK    1  A    between atoms: C_15  and  N_1 
REMARK       I    between atoms: C_6  and  N_7 
REMARK    2  A    between atoms: C_11  and  C_6 
REMARK    3  A    between atoms: N_7  and  C_8 
ROOT
ATOM      1  N   UNL d   1      33.171  22.024 -20.700  0.00  0.00    -0.273 N 
ATOM      2  C   UNL d   1      33.158  22.858 -21.369  0.00  0.00     0.265 A 
ATOM      3  C   UNL d   1      33.190  21.380 -21.211  0.00  0.00     0.067 A 
ATOM      4  C   UNL d   1      33.190  21.682 -21.978  0.00  0.00     0.022 A 
ATOM      5  C   UNL d   1      33.173  22.480 -22.094  0.00  0.00     0.058 A 
ATOM      6  C   UNL d   1      33.224  20.356 -22.488  0.00  0.00     0.084 A 
ATOM      7  C   UNL d   1      33.207  21.170 -22.617  0.00  0.00     0.019 A 
ATOM      8  C   UNL d   1      33.208  20.565 -21.081  0.00  0.00     0.019 A 
ATOM      9  O   UNL d   1      33.139  23.681 -21.325  0.00  0.00    -0.267 OA
ATOM     10  C   UNL d   1      33.224  20.052 -21.720  0.00  0.00     0.021 A 
ATOM     11  C   UNL d   1      33.172  22.783 -22.861  0.00  0.00     0.005 A 
ATOM     12  C   UNL d   1      33.207  21.456 -23.371  0.00  0.00     0.002 A 
ATOM     13  C   UNL d   1      33.189  22.270 -23.500  0.00  0.00     0.000 A 
ENDROOT
BRANCH   6  14
ATOM     14  N   UNL d   1      33.241  19.844 -23.126  0.00  0.00    -0.212 NA
ATOM     15  C   UNL d   1      33.019  19.056 -23.025  0.00  0.00     0.255 C 
ATOM     16  O   UNL d   1      32.787  18.796 -22.297  0.00  0.00    -0.270 OA
BRANCH  15  17
ATOM     17  C   UNL d   1      33.036  18.544 -23.663  0.00  0.00     0.073 C 
ATOM     18  C   UNL d   1      32.891  18.831 -24.423  0.00  0.00     0.009 C 
ATOM     19  C   UNL d   1      33.199  17.744 -23.543  0.00  0.00     0.009 C 
ATOM     20  C   UNL d   1      33.058  17.950 -24.390  0.00  0.00     0.009 C 
ENDBRANCH  15  17
ENDBRANCH   6  14
BRANCH   1  21
ATOM     21  C   UNL d   1      33.168  21.876 -19.876  0.00  0.00     0.083 C 
ATOM     22  C   UNL d   1      33.163  22.494 -19.366  0.00  0.00     0.021 C 
ENDBRANCH   1  21
TORSDOF 3
ENDMDL
MODEL 2
REMARK VINA RESULT:      -2.5      1.973      4.838
REMARK  3 active torsions:
REMARK  status: ('A' for Active; 'I' for Inactive)
REMARK    1  A    between atoms: C_15  and  N_1 
REMARK       I    between atoms: C_6  and  N_7 
REMARK    2  A    between atoms: C_11  and  C_6 
REMARK    3  A    between atoms: N_7  and  C_8 
ROOT
ATOM      1  N   UNL d   1      33.181  22.433 -22.248  0.00  0.00    -0.273 N 
ATOM      2  C   UNL d   1      33.119  21.370 -22.144  0.00  0.00     0.265 A 
ATOM      3  C   UNL d   1      33.186  22.693 -21.468  0.00  0.00     0.067 A 
ATOM      4  C   UNL d   1      33.142  22.022 -20.991  0.00  0.00     0.022 A 
ATOM      5  C   UNL d   1      33.105  21.291 -21.330  0.00  0.00     0.058 A 
ATOM      6  C   UNL d   1      33.175  22.854 -19.839  0.00  0.00     0.084 A 
ATOM      7  C   UNL d   1      33.137  22.103 -20.176  0.00  0.00     0.019 A 
ATOM      8  C   UNL d   1      33.225  23.446 -21.131  0.00  0.00     0.019 A 
ATOM      9  O   UNL d   1      33.087  20.706 -22.631  0.00  0.00    -0.267 OA
ATOM     10  C   UNL d   1      33.219  23.526 -20.316  0.00  0.00     0.021 A 
ATOM     11  C   UNL d   1      33.060  20.620 -20.853  0.00  0.00     0.005 A 
ATOM     12  C   UNL d   1      33.094  21.452 -19.701  0.00  0.00     0.002 A 
ATOM     13  C   UNL d   1      33.055  20.701 -20.038  0.00  0.00     0.000 A 
ENDROOT
BRANCH   6  14
ATOM     14  N   UNL d   1      33.170  22.934 -19.025  0.00  0.00    -0.212 NA
ATOM     15  C   UNL d   1      32.567  23.362 -18.659  0.00  0.00     0.255 C 
ATOM     16  O   UNL d   1      31.986  23.698 -19.108  0.00  0.00    -0.270 OA
BRANCH  15  17
ATOM     17  C   UNL d   1      32.561  23.443 -17.845  0.00  0.00     0.073 C 
ATOM     18  C   UNL d   1      31.876  23.268 -17.421  0.00  0.00     0.009 C 
ATOM     19  C   UNL d   1      33.241  23.698 -17.454  0.00  0.00     0.009 C 
ATOM     20  C   UNL d   1      32.563  23.538 -16.911  0.00  0.00     0.009 C 
ENDBRANCH  15  17
ENDBRANCH   6  14
BRANCH   1  21
ATOM     21  C   UNL d   1      33.221  23.006 -22.857  0.00  0.00     0.083 C 
ATOM     22  C   UNL d   1      33.174  22.770 -23.622  0.00  0.00     0.021 C 
ENDBRANCH   1  21
TORSDOF 3
ENDMDL
MODEL 3
REMARK VINA RESULT:      -2.4      4.087      6.013
REMARK  3 active torsions:
REMARK  status: ('A' for Active; 'I' for Inactive)
REMARK    1  A    between atoms: C_15  and  N_1 
REMARK       I    between atoms: C_6  and  N_7 
REMARK    2  A    between atoms: C_11  and  C_6 
REMARK    3  A    between atoms: N_7  and  C_8 
ROOT
ATOM      1  N   UNL d   1      31.782  17.951 -24.569  0.00  0.00    -0.273 N 
ATOM      2  C   UNL d   1      32.437  17.278 -24.056  0.00  0.00     0.265 A 
ATOM      3  C   UNL d   1      31.047  17.594 -24.480  0.00  0.00     0.067 A 
ATOM      4  C   UNL d   1      31.167  16.903 -24.047  0.00  0.00     0.022 A 
ATOM      5  C   UNL d   1      31.910  16.707 -23.804  0.00  0.00     0.058 A 
ATOM      6  C   UNL d   1      29.774  16.630 -24.119  0.00  0.00     0.084 A 
ATOM      7  C   UNL d   1      30.530  16.421 -23.866  0.00  0.00     0.019 A 
ATOM      8  C   UNL d   1      30.290  17.804 -24.734  0.00  0.00     0.019 A 
ATOM      9  O   UNL d   1      33.241  17.216 -23.883  0.00  0.00    -0.267 OA
ATOM     10  C   UNL d   1      29.653  17.322 -24.553  0.00  0.00     0.021 A 
ATOM     11  C   UNL d   1      32.031  16.016 -23.370  0.00  0.00     0.005 A 
ATOM     12  C   UNL d   1      30.637  15.743 -23.443  0.00  0.00     0.002 A 
ATOM     13  C   UNL d   1      31.394  15.534 -23.190  0.00  0.00     0.000 A 
ENDROOT
BRANCH   6  14
ATOM     14  N   UNL d   1      29.138  16.149 -23.939  0.00  0.00    -0.212 NA
ATOM     15  C   UNL d   1      28.397  16.484 -23.797  0.00  0.00     0.255 C 
ATOM     16  O   UNL d   1      28.307  17.284 -23.837  0.00  0.00    -0.270 OA
BRANCH  15  17
ATOM     17  C   UNL d   1      27.761  16.002 -23.616  0.00  0.00     0.073 C 
ATOM     18  C   UNL d   1      27.472  15.475 -24.182  0.00  0.00     0.009 C 
ATOM     19  C   UNL d   1      27.412  16.046 -22.870  0.00  0.00     0.009 C 
ATOM     20  C   UNL d   1      27.030  15.453 -23.401  0.00  0.00     0.009 C 
ENDBRANCH  15  17
ENDBRANCH   6  14
BRANCH   1  21
ATOM     21  C   UNL d   1      31.824  18.672 -24.993  0.00  0.00     0.083 C 
ATOM     22  C   UNL d   1      32.535  19.030 -25.090  0.00  0.00     0.021 C 
ENDBRANCH   1  21
TORSDOF 3
ENDMDL
MODEL 4
REMARK VINA RESULT:      -2.4      1.132      2.181
REMARK  3 active torsions:
REMARK  status: ('A' for Active; 'I' for Inactive)
REMARK    1  A    between atoms: C_15  and  N_1 
REMARK       I    between atoms: C_6  and  N_7 
REMARK    2  A    between atoms: C_11  and  C_6 
REMARK    3  A    between atoms: N_7  and  C_8 
ROOT
ATOM      1  N   UNL d   1      33.218  21.822 -22.732  0.00  0.00    -0.273 N 
ATOM      2  C   UNL d   1      33.219  21.679 -21.672  0.00  0.00     0.265 A 
ATOM      3  C   UNL d   1      33.223  21.052 -23.021  0.00  0.00     0.067 A 
ATOM      4  C   UNL d   1      33.227  20.551 -22.366  0.00  0.00     0.022 A 
ATOM      5  C   UNL d   1      33.225  20.863 -21.622  0.00  0.00     0.058 A 
ATOM      6  C   UNL d   1      33.235  19.430 -23.240  0.00  0.00     0.084 A 
ATOM      7  C   UNL d   1      33.233  19.739 -22.476  0.00  0.00     0.019 A 
ATOM      8  C   UNL d   1      33.225  20.743 -23.786  0.00  0.00     0.019 A 
ATOM      9  O   UNL d   1      33.216  22.142 -20.989  0.00  0.00    -0.267 OA
ATOM     10  C   UNL d   1      33.231  19.931 -23.896  0.00  0.00     0.021 A 
ATOM     11  C   UNL d   1      33.229  20.362 -20.968  0.00  0.00     0.005 A 
ATOM     12  C   UNL d   1      33.237  19.241 -21.842  0.00  0.00     0.002 A 
ATOM     13  C   UNL d   1      33.235  19.550 -21.077  0.00  0.00     0.000 A 
ENDROOT
BRANCH   6  14
ATOM     14  N   UNL d   1      33.241  18.619 -23.349  0.00  0.00    -0.212 NA
ATOM     15  C   UNL d   1      32.747  18.278 -23.916  0.00  0.00     0.255 C 
ATOM     16  O   UNL d   1      32.262  18.748 -24.357  0.00  0.00    -0.270 OA
BRANCH  15  17
ATOM     17  C   UNL d   1      32.753  17.468 -24.025  0.00  0.00     0.073 C 
ATOM     18  C   UNL d   1      32.401  16.976 -23.464  0.00  0.00     0.009 C 
ATOM     19  C   UNL d   1      33.110  17.147 -24.696  0.00  0.00     0.009 C 
ATOM     20  C   UNL d   1      32.764  16.538 -24.159  0.00  0.00     0.009 C 
ENDBRANCH  15  17
ENDBRANCH   6  14
BRANCH   1  21
ATOM     21  C   UNL d   1      33.213  22.452 -23.284  0.00  0.00     0.083 C 
ATOM     22  C   UNL d   1      33.003  23.186 -23.040  0.00  0.00     0.021 C 
ENDBRANCH   1  21
TORSDOF 3
ENDMDL
MODEL 5
REMARK VINA RESULT:      -2.3      1.336      2.255
REMARK  3 active torsions:
REMARK  status: ('A' for Active; 'I' for Inactive)
REMARK    1  A    between atoms: C_15  and  N_1 
REMARK       I    between atoms: C_6  and  N_7 
REMARK    2  A    between atoms: C_11  and  C_6 
REMARK    3  A    between atoms: N_7  and  C_8 
ROOT
ATOM      1  N   UNL d   1      33.138  20.677 -22.325  0.00  0.00    -0.273 N 
ATOM      2  C   UNL d   1      33.192  21.284 -23.205  0.00  0.00     0.265 A 
ATOM      3  C   UNL d   1      33.130  19.913 -22.630  0.00  0.00     0.067 A 
ATOM      4  C   UNL d   1      33.167  19.983 -23.451  0.00  0.00     0.022 A 
ATOM      5  C   UNL d   1      33.201  20.713 -23.790  0.00  0.00     0.058 A 
ATOM      6  C   UNL d   1      33.133  18.566 -23.559  0.00  0.00     0.084 A 
ATOM      7  C   UNL d   1      33.168  19.308 -23.916  0.00  0.00     0.019 A 
ATOM      8  C   UNL d   1      33.095  19.170 -22.273  0.00  0.00     0.019 A 
ATOM      9  O   UNL d   1      33.222  22.085 -23.397  0.00  0.00    -0.267 OA
ATOM     10  C   UNL d   1      33.097  18.496 -22.737  0.00  0.00     0.021 A 
ATOM     11  C   UNL d   1      33.238  20.783 -24.611  0.00  0.00     0.005 A 
ATOM     12  C   UNL d   1      33.204  19.366 -24.719  0.00  0.00     0.002 A 
ATOM     13  C   UNL d   1      33.239  20.108 -25.076  0.00  0.00     0.000 A 
ENDROOT
BRANCH   6  14
ATOM     14  N   UNL d   1      33.134  17.892 -24.023  0.00  0.00    -0.212 NA
ATOM     15  C   UNL d   1      32.556  17.315 -23.910  0.00  0.00     0.255 C 
ATOM     16  O   UNL d   1      31.993  17.420 -23.341  0.00  0.00    -0.270 OA
BRANCH  15  17
ATOM     17  C   UNL d   1      32.557  16.642 -24.374  0.00  0.00     0.073 C 
ATOM     18  C   UNL d   1      33.033  16.001 -24.166  0.00  0.00     0.009 C 
ATOM     19  C   UNL d   1      32.083  16.607 -25.048  0.00  0.00     0.009 C 
ATOM     20  C   UNL d   1      32.553  15.872 -24.913  0.00  0.00     0.009 C 
ENDBRANCH  15  17
ENDBRANCH   6  14
BRANCH   1  21
ATOM     21  C   UNL d   1      33.106  20.772 -21.494  0.00  0.00     0.083 C 
ATOM     22  C   UNL d   1      32.858  21.470 -21.188  0.00  0.00     0.021 C 
ENDBRANCH   1  21
TORSDOF 3
ENDMDL
MODEL 6
REMARK VINA RESULT:      -0.9      0.954      4.284
REMARK  3 active torsions:
REMARK  status: ('A' for Active; 'I' for Inactive)
REMARK    1  A    between atoms: C_15  and  N_1 
REMARK       I    between atoms: C_6  and  N_7 
REMARK    2  A    between atoms: C_11  and  C_6 
REMARK    3  A    between atoms: N_7  and  C_8 
ROOT
ATOM      1  N   UNL d   1      32.856  19.352 -23.857  0.00  0.00    -0.273 N 
ATOM      2  C   UNL d   1      32.931  18.612 -23.087  0.00  0.00     0.265 A 
ATOM      3  C   UNL d   1      32.941  20.057 -23.442  0.00  0.00     0.067 A 
ATOM      4  C   UNL d   1      33.041  19.858 -22.648  0.00  0.00     0.022 A 
ATOM      5  C   UNL d   1      33.040  19.082 -22.427  0.00  0.00     0.058 A 
ATOM      6  C   UNL d   1      33.140  21.239 -22.327  0.00  0.00     0.084 A 
ATOM      7  C   UNL d   1      33.141  20.449 -22.090  0.00  0.00     0.019 A 
ATOM      8  C   UNL d   1      32.941  20.848 -23.680  0.00  0.00     0.019 A 
ATOM      9  O   UNL d   1      32.908  17.791 -23.020  0.00  0.00    -0.267 OA
ATOM     10  C   UNL d   1      33.040  21.439 -23.122  0.00  0.00     0.021 A 
ATOM     11  C   UNL d   1      33.140  18.883 -21.633  0.00  0.00     0.005 A 
ATOM     12  C   UNL d   1      33.239  20.264 -21.312  0.00  0.00     0.002 A 
ATOM     13  C   UNL d   1      33.240  19.474 -21.075  0.00  0.00     0.000 A 
ENDROOT
BRANCH   6  14
ATOM     14  N   UNL d   1      33.240  21.829 -21.770  0.00  0.00    -0.212 NA
ATOM     15  C   UNL d   1      32.677  22.429 -21.703  0.00  0.00     0.255 C 
ATOM     16  O   UNL d   1      32.032  22.427 -22.188  0.00  0.00    -0.270 OA
BRANCH  15  17
ATOM     17  C   UNL d   1      32.776  23.019 -21.145  0.00  0.00     0.073 C 
ATOM     18  C   UNL d   1      32.440  22.937 -20.396  0.00  0.00     0.009 C 
ATOM     19  C   UNL d   1      33.212  23.694 -21.336  0.00  0.00     0.009 C 
ATOM     20  C   UNL d   1      32.895  23.702 -20.512  0.00  0.00     0.009 C 
ENDBRANCH  15  17
ENDBRANCH   6  14
BRANCH   1  21
ATOM     21  C   UNL d   1      32.745  19.390 -24.686  0.00  0.00     0.083 C 
ATOM     22  C   UNL d   1      32.361  18.794 -25.058  0.00  0.00     0.021 C 
ENDBRANCH   1  21
TORSDOF 3
ENDMDL
