MODEL 1
REMARK VINA RESULT:      30.3      0.000      0.000
REMARK  1 active torsions:
REMARK  status: ('A' for Active; 'I' for Inactive)
REMARK    1  A    between atoms: C_15  and  C_6 
ROOT
ATOM      1  C   UNL d   1      58.973  49.663  50.555  0.00  0.00     0.087 A 
ATOM      2  C   UNL d   1      57.548  49.662  50.704  0.00  0.00     0.111 A 
ATOM      3  C   UNL d   1      59.057  49.690  51.377  0.00  0.00     0.109 A 
ATOM      4  C   UNL d   1      59.636  49.651  50.065  0.00  0.00     0.302 A 
ATOM      5  C   UNL d   1      57.640  49.688  51.530  0.00  0.00     0.213 A 
ATOM      6  C   UNL d   1      58.224  49.649  50.209  0.00  0.00     0.020 A 
ATOM      7  O   UNL d   1      58.392  49.702  51.858  0.00  0.00    -0.287 OA
ATOM      8  C   UNL d   1      59.805  49.704  51.714  0.00  0.00     0.050 A 
ATOM      9  O   UNL d   1      60.398  49.665  50.409  0.00  0.00    -0.273 OA
ATOM     10  C   UNL d   1      56.798  49.648  50.364  0.00  0.00     0.105 C 
ATOM     11  C   UNL d   1      60.482  49.691  51.227  0.00  0.00     0.105 A 
ATOM     12  N   UNL d   1      56.038  49.634  50.031  0.00  0.00    -0.191 NA
ATOM     13  O   UNL d   1      59.553  49.624  49.244  0.00  0.00    -0.259 OA
ATOM     14  N   UNL d   1      56.966  49.700  52.011  0.00  0.00    -0.120 N 
ATOM     15  C   UNL d   1      61.239  49.705  51.563  0.00  0.00     0.027 C 
ENDROOT
BRANCH   6  16
ATOM     16  C   UNL d   1      58.141  49.623  49.400  0.00  0.00     0.001 C 
ATOM     17  C   UNL d   1      58.802  49.533  48.913  0.00  0.00     0.000 C 
ATOM     18  C   UNL d   1      57.397  49.686  49.060  0.00  0.00     0.000 C 
ENDBRANCH   6  16
TORSDOF 1
ENDMDL
MODEL 2
REMARK VINA RESULT:      31.4      1.299      2.738
REMARK  1 active torsions:
REMARK  status: ('A' for Active; 'I' for Inactive)
REMARK    1  A    between atoms: C_15  and  C_6 
ROOT
ATOM      1  C   UNL d   1      58.419  49.649  50.253  0.00  0.00     0.087 A 
ATOM      2  C   UNL d   1      59.405  49.674  51.292  0.00  0.00     0.111 A 
ATOM      3  C   UNL d   1      57.821  49.653  50.823  0.00  0.00     0.109 A 
ATOM      4  C   UNL d   1      58.233  49.635  49.449  0.00  0.00     0.302 A 
ATOM      5  C   UNL d   1      58.798  49.678  51.860  0.00  0.00     0.213 A 
ATOM      6  C   UNL d   1      59.213  49.659  50.477  0.00  0.00     0.020 A 
ATOM      7  O   UNL d   1      58.013  49.667  51.621  0.00  0.00    -0.287 OA
ATOM      8  C   UNL d   1      57.033  49.643  50.593  0.00  0.00     0.050 A 
ATOM      9  O   UNL d   1      57.430  49.624  49.216  0.00  0.00    -0.273 OA
ATOM     10  C   UNL d   1      60.196  49.684  51.520  0.00  0.00     0.105 C 
ATOM     11  C   UNL d   1      56.836  49.628  49.783  0.00  0.00     0.105 A 
ATOM     12  N   UNL d   1      60.990  49.694  51.761  0.00  0.00    -0.191 NA
ATOM     13  O   UNL d   1      58.831  49.631  48.879  0.00  0.00    -0.259 OA
ATOM     14  N   UNL d   1      58.997  49.692  52.664  0.00  0.00    -0.120 N 
ATOM     15  C   UNL d   1      56.041  49.618  49.547  0.00  0.00     0.027 C 
ENDROOT
BRANCH   6  16
ATOM     16  C   UNL d   1      59.802  49.655  49.915  0.00  0.00     0.001 C 
ATOM     17  C   UNL d   1      60.596  49.603  50.138  0.00  0.00     0.000 C 
ATOM     18  C   UNL d   1      59.611  49.703  49.118  0.00  0.00     0.000 C 
ENDBRANCH   6  16
TORSDOF 1
ENDMDL
