MODEL 1
REMARK VINA RESULT:       9.3      0.000      0.000
REMARK  6 active torsions:
REMARK  status: ('A' for Active; 'I' for Inactive)
REMARK       I    between atoms: C_6  and  N_1 
REMARK    1  A    between atoms: C_10  and  C_2 
REMARK    2  A    between atoms: O_16  and  C_8 
REMARK    3  A    between atoms: O_14  and  C_10 
REMARK    4  A    between atoms: O_17  and  C_11 
REMARK    5  A    between atoms: C_15  and  O_14 
REMARK    6  A    between atoms: C_24  and  C_18 
ROOT
ATOM      1  N   UNL d   1     -41.139-120.055 -51.515  0.00  0.00    -0.271 N 
ATOM      2  C   UNL d   1     -41.156-120.852 -51.729  0.00  0.00     0.092 A 
ATOM      3  C   UNL d   1     -41.156-121.428 -51.149  0.00  0.00     0.020 A 
ATOM      4  C   UNL d   1     -41.139-121.216 -50.352  0.00  0.00     0.005 A 
ATOM      5  C   UNL d   1     -41.172-122.220 -51.365  0.00  0.00     0.028 A 
ATOM      6  C   UNL d   1     -41.139-119.463 -52.105  0.00  0.00     0.265 C 
ATOM      7  C   UNL d   1     -41.123-119.843 -50.718  0.00  0.00     0.083 A 
ATOM      8  C   UNL d   1     -41.172-122.805 -50.783  0.00  0.00     0.116 A 
ATOM      9  C   UNL d   1     -41.139-121.795 -49.771  0.00  0.00     0.026 A 
ATOM     10  C   UNL d   1     -41.156-122.592 -49.985  0.00  0.00     0.116 A 
ATOM     11  C   UNL d   1     -41.123-120.427 -50.135  0.00  0.00     0.019 A 
ATOM     12  O   UNL d   1     -41.156-119.675 -52.902  0.00  0.00    -0.267 OA
ATOM     13  C   UNL d   1     -41.123-118.674 -51.887  0.00  0.00     0.066 C 
ENDROOT
BRANCH   2  14
ATOM     14  C   UNL d   1     -41.172-121.064 -52.526  0.00  0.00     0.140 C 
BRANCH  14  15
ATOM     15  O   UNL d   1     -41.813-121.489 -52.827  0.00  0.00    -0.304 OA
BRANCH  15  16
ATOM     16  C   UNL d   1     -41.872-121.627 -53.639  0.00  0.00     0.100 A 
ATOM     17  C   UNL d   1     -42.542-121.379 -54.051  0.00  0.00     0.025 A 
ATOM     18  C   UNL d   1     -42.602-121.517 -54.862  0.00  0.00     0.002 A 
ATOM     19  C   UNL d   1     -41.990-121.903 -55.261  0.00  0.00     0.000 A 
ATOM     20  C   UNL d   1     -41.320-122.151 -54.848  0.00  0.00     0.002 A 
ATOM     21  C   UNL d   1     -41.260-122.013 -54.037  0.00  0.00     0.025 A 
BRANCH  19  22
ATOM     22  C   UNL d   1     -42.050-122.041 -56.072  0.00  0.00     0.000 C 
ATOM     23  C   UNL d   1     -42.782-122.011 -56.443  0.00  0.00     0.000 C 
ENDBRANCH  19  22
ENDBRANCH  15  16
ENDBRANCH  14  15
ENDBRANCH   2  14
BRANCH   8  24
ATOM     24  O   UNL d   1     -41.189-123.608 -51.000  0.00  0.00    -0.326 OA
ATOM     25  C   UNL d   1     -41.237-123.817 -51.797  0.00  0.00     0.181 C 
ENDBRANCH   8  24
BRANCH  10  26
ATOM     26  O   UNL d   1     -41.156-123.180 -49.392  0.00  0.00    -0.326 OA
ATOM     27  C   UNL d   1     -41.603-123.068 -48.708  0.00  0.00     0.181 C 
ENDBRANCH  10  26
TORSDOF 6
ENDMDL
