MODEL 1
REMARK VINA RESULT:      12.3      0.000      0.000
REMARK  5 active torsions:
REMARK  status: ('A' for Active; 'I' for Inactive)
REMARK    1  A    between atoms: C_2  and  C_1 
REMARK    2  A    between atoms: C_7  and  C_2 
REMARK    3  A    between atoms: O_17  and  C_6 
REMARK    4  A    between atoms: C_10  and  C_7 
REMARK    5  A    between atoms: O_18  and  C_8 
ROOT
ATOM      1  C   UNL d   1      46.077 -16.621  43.890  0.00  0.00     0.042 C 
ENDROOT
BRANCH   1   2
ATOM      2  C   UNL d   1      45.634 -16.225  44.454  0.00  0.00     0.199 C 
ATOM      3  O   UNL d   1      45.122 -16.658  44.954  0.00  0.00    -0.286 OA
BRANCH   2   4
ATOM      4  C   UNL d   1      45.682 -15.402  44.542  0.00  0.00     0.078 A 
ATOM      5  C   UNL d   1      44.996 -14.976  44.764  0.00  0.00     0.202 A 
ATOM      6  C   UNL d   1      45.032 -14.157  44.854  0.00  0.00     0.084 A 
ATOM      7  O   UNL d   1      44.278 -15.381  44.892  0.00  0.00    -0.286 OA
ATOM      8  C   UNL d   1      45.737 -13.766  44.727  0.00  0.00     0.199 A 
ATOM      9  C   UNL d   1      46.423 -14.192  44.506  0.00  0.00     0.042 A 
ATOM     10  O   UNL d   1      45.777 -12.941  44.818  0.00  0.00    -0.286 OA
ATOM     11  C   UNL d   1      46.385 -14.999  44.417  0.00  0.00     0.010 A 
ENDBRANCH   2   4
ENDBRANCH   1   2
BRANCH   1  12
ATOM     12  C   UNL d   1      46.208 -17.433  43.941  0.00  0.00     0.005 A 
ATOM     13  C   UNL d   1      46.267 -17.878  43.262  0.00  0.00     0.026 A 
ATOM     14  C   UNL d   1      46.401 -18.698  43.324  0.00  0.00     0.116 A 
ATOM     15  C   UNL d   1      46.473 -19.059  44.053  0.00  0.00     0.116 A 
ATOM     16  C   UNL d   1      46.411 -18.595  44.748  0.00  0.00     0.026 A 
ATOM     17  C   UNL d   1      46.277 -17.773  44.695  0.00  0.00     0.002 A 
BRANCH  14  18
ATOM     18  O   UNL d   1      46.462 -19.157  42.634  0.00  0.00    -0.326 OA
ATOM     19  C   UNL d   1      46.646 -18.797  41.913  0.00  0.00     0.181 C 
ENDBRANCH  14  18
BRANCH  15  20
ATOM     20  O   UNL d   1      46.605 -19.869  44.129  0.00  0.00    -0.326 OA
ATOM     21  C   UNL d   1      46.542 -20.239  44.857  0.00  0.00     0.181 C 
ENDBRANCH  15  20
ENDBRANCH   1  12
TORSDOF 5
ENDMDL
MODEL 2
REMARK VINA RESULT:      13.9      0.812      4.581
REMARK  5 active torsions:
REMARK  status: ('A' for Active; 'I' for Inactive)
REMARK    1  A    between atoms: C_2  and  C_1 
REMARK    2  A    between atoms: C_7  and  C_2 
REMARK    3  A    between atoms: O_17  and  C_6 
REMARK    4  A    between atoms: C_10  and  C_7 
REMARK    5  A    between atoms: O_18  and  C_8 
ROOT
ATOM      1  C   UNL d   1      45.755 -16.667  44.788  0.00  0.00     0.042 C 
ENDROOT
BRANCH   1   2
ATOM      2  C   UNL d   1      46.073 -17.054  44.138  0.00  0.00     0.199 C 
ATOM      3  O   UNL d   1      46.257 -16.616  43.449  0.00  0.00    -0.286 OA
BRANCH   2   4
ATOM      4  C   UNL d   1      46.216 -17.870  44.148  0.00  0.00     0.078 A 
ATOM      5  C   UNL d   1      46.304 -18.276  43.421  0.00  0.00     0.202 A 
ATOM      6  C   UNL d   1      46.447 -19.088  43.418  0.00  0.00     0.084 A 
ATOM      7  O   UNL d   1      46.246 -17.858  42.701  0.00  0.00    -0.286 OA
ATOM      8  C   UNL d   1      46.502 -19.492  44.126  0.00  0.00     0.199 A 
ATOM      9  C   UNL d   1      46.415 -19.085  44.852  0.00  0.00     0.042 A 
ATOM     10  O   UNL d   1      46.646 -20.311  44.127  0.00  0.00    -0.286 OA
ATOM     11  C   UNL d   1      46.274 -18.285  44.852  0.00  0.00     0.010 A 
ENDBRANCH   2   4
ENDBRANCH   1   2
BRANCH   1  12
ATOM     12  C   UNL d   1      45.722 -15.844  44.822  0.00  0.00     0.005 A 
ATOM     13  C   UNL d   1      45.004 -15.464  44.761  0.00  0.00     0.026 A 
ATOM     14  C   UNL d   1      44.981 -14.632  44.797  0.00  0.00     0.116 A 
ATOM     15  C   UNL d   1      45.664 -14.196  44.893  0.00  0.00     0.116 A 
ATOM     16  C   UNL d   1      46.399 -14.593  44.955  0.00  0.00     0.026 A 
ATOM     17  C   UNL d   1      46.432 -15.426  44.920  0.00  0.00     0.002 A 
BRANCH  14  18
ATOM     18  O   UNL d   1      44.251 -14.240  44.736  0.00  0.00    -0.326 OA
ATOM     19  C   UNL d   1      43.548 -14.648  44.890  0.00  0.00     0.181 C 
ENDBRANCH  14  18
BRANCH  15  20
ATOM     20  O   UNL d   1      45.655 -13.373  44.930  0.00  0.00    -0.326 OA
ATOM     21  C   UNL d   1      46.350 -12.941  44.887  0.00  0.00     0.181 C 
ENDBRANCH  15  20
ENDBRANCH   1  12
TORSDOF 5
ENDMDL
