MODEL 1
REMARK VINA RESULT:      -7.0      0.000      0.000
REMARK  6 active torsions:
REMARK  status: ('A' for Active; 'I' for Inactive)
REMARK    1  A    between atoms: C_3  and  N_1 
REMARK    2  A    between atoms: C_2  and  N_5 
REMARK    3  A    between atoms: N_6  and  C_2 
REMARK    4  A    between atoms: N_5  and  N_9 
REMARK    5  A    between atoms: C_13  and  N_6 
REMARK    6  A    between atoms: N_9  and  C_12 
ROOT
ATOM      1  N   UNL d   1     -48.138  13.945  22.823  0.00  0.00    -0.276 N 
ATOM      2  H   UNL d   1     -48.271  13.174  22.560  0.00  0.00     0.189 HD
ENDROOT
BRANCH   1   3
ATOM      3  C   UNL d   1     -48.790  14.462  22.904  0.00  0.00     0.191 C 
ATOM      4  S   UNL d   1     -48.736  15.228  22.588  0.00  0.00    -0.039 SA
BRANCH   3   5
ATOM      5  N   UNL d   1     -49.482  14.231  23.289  0.00  0.00    -0.331 N 
ATOM      6  H   UNL d   1     -49.638  14.550  24.034  0.00  0.00     0.168 HD
BRANCH   5   7
ATOM      7  C   UNL d   1     -50.008  13.697  22.943  0.00  0.00     0.058 A 
ATOM      8  C   UNL d   1     -50.223  13.012  23.360  0.00  0.00     0.017 A 
ATOM      9  C   UNL d   1     -50.742  12.481  23.023  0.00  0.00     0.002 A 
ATOM     10  C   UNL d   1     -51.059  12.614  22.272  0.00  0.00     0.000 A 
ATOM     11  C   UNL d   1     -50.844  13.299  21.856  0.00  0.00     0.002 A 
ATOM     12  C   UNL d   1     -50.318  13.833  22.202  0.00  0.00     0.017 A 
ENDBRANCH   5   7
ENDBRANCH   3   5
ENDBRANCH   1   3
BRANCH   1  13
ATOM     13  N   UNL d   1     -47.379  14.187  22.999  0.00  0.00    -0.297 N 
ATOM     14  H   UNL d   1     -47.245  14.969  23.280  0.00  0.00     0.187 HD
BRANCH  13  15
ATOM     15  C   UNL d   1     -46.721  13.672  22.907  0.00  0.00     0.072 A 
ATOM     16  C   UNL d   1     -46.716  12.957  23.319  0.00  0.00     0.020 A 
ATOM     17  C   UNL d   1     -46.089  12.436  23.249  0.00  0.00     0.025 A 
ATOM     18  C   UNL d   1     -45.456  12.641  22.754  0.00  0.00     0.127 A 
ATOM     19  C   UNL d   1     -45.462  13.356  22.342  0.00  0.00     0.025 A 
ATOM     20  C   UNL d   1     -46.099  13.866  22.425  0.00  0.00     0.020 A 
BRANCH  18  21
ATOM     21  N   UNL d   1     -44.793  12.095  22.677  0.00  0.00    -0.114 N 
ATOM     22  O   UNL d   1     -44.223  12.231  22.095  0.00  0.00    -0.532 OA
ATOM     23  O   UNL d   1     -44.751  11.457  23.188  0.00  0.00    -0.532 OA
ENDBRANCH  18  21
ENDBRANCH  13  15
ENDBRANCH   1  13
TORSDOF 6
ENDMDL
MODEL 2
REMARK VINA RESULT:      -6.5      1.173      1.598
REMARK  6 active torsions:
REMARK  status: ('A' for Active; 'I' for Inactive)
REMARK    1  A    between atoms: C_3  and  N_1 
REMARK    2  A    between atoms: C_2  and  N_5 
REMARK    3  A    between atoms: N_6  and  C_2 
REMARK    4  A    between atoms: N_5  and  N_9 
REMARK    5  A    between atoms: C_13  and  N_6 
REMARK    6  A    between atoms: N_9  and  C_12 
ROOT
ATOM      1  N   UNL d   1     -48.466  12.734  23.206  0.00  0.00    -0.276 N 
ATOM      2  H   UNL d   1     -48.381  13.084  22.463  0.00  0.00     0.189 HD
ENDROOT
BRANCH   1   3
ATOM      3  C   UNL d   1     -49.235  12.596  23.502  0.00  0.00     0.191 C 
ATOM      4  S   UNL d   1     -49.456  11.820  23.698  0.00  0.00    -0.039 SA
BRANCH   3   5
ATOM      5  N   UNL d   1     -49.778  13.209  23.604  0.00  0.00    -0.331 N 
ATOM      6  H   UNL d   1     -49.880  13.515  24.363  0.00  0.00     0.168 HD
BRANCH   5   7
ATOM      7  C   UNL d   1     -50.209  13.511  22.968  0.00  0.00     0.058 A 
ATOM      8  C   UNL d   1     -50.224  14.331  22.841  0.00  0.00     0.017 A 
ATOM      9  C   UNL d   1     -50.648  14.635  22.215  0.00  0.00     0.002 A 
ATOM     10  C   UNL d   1     -51.064  14.140  21.703  0.00  0.00     0.000 A 
ATOM     11  C   UNL d   1     -51.050  13.320  21.830  0.00  0.00     0.002 A 
ATOM     12  C   UNL d   1     -50.619  13.017  22.466  0.00  0.00     0.017 A 
ENDBRANCH   5   7
ENDBRANCH   3   5
ENDBRANCH   1   3
BRANCH   1  13
ATOM     13  N   UNL d   1     -47.803  12.531  23.635  0.00  0.00    -0.297 N 
ATOM     14  H   UNL d   1     -47.884  12.275  24.433  0.00  0.00     0.187 HD
BRANCH  13  15
ATOM     15  C   UNL d   1     -47.033  12.569  23.299  0.00  0.00     0.072 A 
ATOM     16  C   UNL d   1     -46.789  13.274  22.948  0.00  0.00     0.020 A 
ATOM     17  C   UNL d   1     -46.045  13.342  22.613  0.00  0.00     0.025 A 
ATOM     18  C   UNL d   1     -45.540  12.685  22.634  0.00  0.00     0.127 A 
ATOM     19  C   UNL d   1     -45.784  11.980  22.986  0.00  0.00     0.025 A 
ATOM     20  C   UNL d   1     -46.534  11.932  23.316  0.00  0.00     0.020 A 
BRANCH  18  21
ATOM     21  N   UNL d   1     -44.754  12.751  22.283  0.00  0.00    -0.114 N 
ATOM     22  O   UNL d   1     -44.201  12.153  22.414  0.00  0.00    -0.532 OA
ATOM     23  O   UNL d   1     -44.585  13.410  21.828  0.00  0.00    -0.532 OA
ENDBRANCH  18  21
ENDBRANCH  13  15
ENDBRANCH   1  13
TORSDOF 6
ENDMDL
MODEL 3
REMARK VINA RESULT:      -5.7      2.735      4.851
REMARK  6 active torsions:
REMARK  status: ('A' for Active; 'I' for Inactive)
REMARK    1  A    between atoms: C_3  and  N_1 
REMARK    2  A    between atoms: C_2  and  N_5 
REMARK    3  A    between atoms: N_6  and  C_2 
REMARK    4  A    between atoms: N_5  and  N_9 
REMARK    5  A    between atoms: C_13  and  N_6 
REMARK    6  A    between atoms: N_9  and  C_12 
ROOT
ATOM      1  N   UNL d   1     -47.890  12.703  23.047  0.00  0.00    -0.276 N 
ATOM      2  H   UNL d   1     -47.678  13.181  22.408  0.00  0.00     0.189 HD
ENDROOT
BRANCH   1   3
ATOM      3  C   UNL d   1     -47.309  12.212  23.394  0.00  0.00     0.191 C 
ATOM      4  S   UNL d   1     -47.475  11.406  23.497  0.00  0.00    -0.039 SA
BRANCH   3   5
ATOM      5  N   UNL d   1     -46.578  12.508  23.636  0.00  0.00    -0.331 N 
ATOM      6  H   UNL d   1     -46.477  12.691  24.434  0.00  0.00     0.168 HD
BRANCH   5   7
ATOM      7  C   UNL d   1     -45.961  12.621  23.099  0.00  0.00     0.058 A 
ATOM      8  C   UNL d   1     -45.886  13.353  22.715  0.00  0.00     0.017 A 
ATOM      9  C   UNL d   1     -45.279  13.470  22.184  0.00  0.00     0.002 A 
ATOM     10  C   UNL d   1     -44.735  12.870  22.021  0.00  0.00     0.000 A 
ATOM     11  C   UNL d   1     -44.810  12.138  22.406  0.00  0.00     0.002 A 
ATOM     12  C   UNL d   1     -45.427  12.026  22.943  0.00  0.00     0.017 A 
ENDBRANCH   5   7
ENDBRANCH   3   5
ENDBRANCH   1   3
BRANCH   1  13
ATOM     13  N   UNL d   1     -48.656  12.718  23.326  0.00  0.00    -0.297 N 
ATOM     14  H   UNL d   1     -48.911  12.133  23.874  0.00  0.00     0.187 HD
BRANCH  13  15
ATOM     15  C   UNL d   1     -49.202  13.307  23.079  0.00  0.00     0.072 A 
ATOM     16  C   UNL d   1     -49.261  14.002  23.519  0.00  0.00     0.020 A 
ATOM     17  C   UNL d   1     -49.785  14.594  23.303  0.00  0.00     0.025 A 
ATOM     18  C   UNL d   1     -50.256  14.479  22.631  0.00  0.00     0.127 A 
ATOM     19  C   UNL d   1     -50.197  13.784  22.191  0.00  0.00     0.025 A 
ATOM     20  C   UNL d   1     -49.667  13.203  22.424  0.00  0.00     0.020 A 
BRANCH  18  21
ATOM     21  N   UNL d   1     -50.810  15.100  22.399  0.00  0.00    -0.114 N 
ATOM     22  O   UNL d   1     -51.064  15.645  22.963  0.00  0.00    -0.532 OA
ATOM     23  O   UNL d   1     -51.064  15.125  21.622  0.00  0.00    -0.532 OA
ENDBRANCH  18  21
ENDBRANCH  13  15
ENDBRANCH   1  13
TORSDOF 6
ENDMDL
MODEL 4
REMARK VINA RESULT:      -5.1      8.602      9.725
REMARK  6 active torsions:
REMARK  status: ('A' for Active; 'I' for Inactive)
REMARK    1  A    between atoms: C_3  and  N_1 
REMARK    2  A    between atoms: C_2  and  N_5 
REMARK    3  A    between atoms: N_6  and  C_2 
REMARK    4  A    between atoms: N_5  and  N_9 
REMARK    5  A    between atoms: C_13  and  N_6 
REMARK    6  A    between atoms: N_9  and  C_12 
ROOT
ATOM      1  N   UNL d   1     -40.048  14.955  19.206  0.00  0.00    -0.276 N 
ATOM      2  H   UNL d   1     -39.245  14.891  19.380  0.00  0.00     0.189 HD
ENDROOT
BRANCH   1   3
ATOM      3  C   UNL d   1     -40.568  15.237  19.797  0.00  0.00     0.191 C 
ATOM      4  S   UNL d   1     -41.015  15.920  19.646  0.00  0.00    -0.039 SA
BRANCH   3   5
ATOM      5  N   UNL d   1     -40.648  14.855  20.524  0.00  0.00    -0.331 N 
ATOM      6  H   UNL d   1     -41.255  14.302  20.609  0.00  0.00     0.168 HD
BRANCH   5   7
ATOM      7  C   UNL d   1     -40.138  15.017  21.153  0.00  0.00     0.058 A 
ATOM      8  C   UNL d   1     -39.643  14.415  21.439  0.00  0.00     0.017 A 
ATOM      9  C   UNL d   1     -39.137  14.570  22.060  0.00  0.00     0.002 A 
ATOM     10  C   UNL d   1     -39.109  15.317  22.410  0.00  0.00     0.000 A 
ATOM     11  C   UNL d   1     -39.604  15.918  22.123  0.00  0.00     0.002 A 
ATOM     12  C   UNL d   1     -40.114  15.757  21.494  0.00  0.00     0.017 A 
ENDBRANCH   5   7
ENDBRANCH   3   5
ENDBRANCH   1   3
BRANCH   1  13
ATOM     13  N   UNL d   1     -40.320  14.744  18.467  0.00  0.00    -0.297 N 
ATOM     14  H   UNL d   1     -41.145  14.776  18.301  0.00  0.00     0.187 HD
BRANCH  13  15
ATOM     15  C   UNL d   1     -39.795  14.492  17.861  0.00  0.00     0.072 A 
ATOM     16  C   UNL d   1     -39.689  14.976  17.202  0.00  0.00     0.020 A 
ATOM     17  C   UNL d   1     -39.184  14.758  16.596  0.00  0.00     0.025 A 
ATOM     18  C   UNL d   1     -38.780  14.037  16.658  0.00  0.00     0.127 A 
ATOM     19  C   UNL d   1     -38.887  13.552  17.317  0.00  0.00     0.025 A 
ATOM     20  C   UNL d   1     -39.397  13.789  17.914  0.00  0.00     0.020 A 
BRANCH  18  21
ATOM     21  N   UNL d   1     -38.247  13.801  16.021  0.00  0.00    -0.114 N 
ATOM     22  O   UNL d   1     -37.991  14.368  15.478  0.00  0.00    -0.532 OA
ATOM     23  O   UNL d   1     -38.013  13.018  15.978  0.00  0.00    -0.532 OA
ENDBRANCH  18  21
ENDBRANCH  13  15
ENDBRANCH   1  13
TORSDOF 6
ENDMDL
MODEL 5
REMARK VINA RESULT:      -5.0      8.876      9.798
REMARK  6 active torsions:
REMARK  status: ('A' for Active; 'I' for Inactive)
REMARK    1  A    between atoms: C_3  and  N_1 
REMARK    2  A    between atoms: C_2  and  N_5 
REMARK    3  A    between atoms: N_6  and  C_2 
REMARK    4  A    between atoms: N_5  and  N_9 
REMARK    5  A    between atoms: C_13  and  N_6 
REMARK    6  A    between atoms: N_9  and  C_12 
ROOT
ATOM      1  N   UNL d   1     -39.444  15.263  20.583  0.00  0.00    -0.276 N 
ATOM      2  H   UNL d   1     -39.444  14.476  20.337  0.00  0.00     0.189 HD
ENDROOT
BRANCH   1   3
ATOM      3  C   UNL d   1     -39.167  15.447  21.350  0.00  0.00     0.191 C 
ATOM      4  S   UNL d   1     -39.637  15.922  21.843  0.00  0.00    -0.039 SA
BRANCH   3   5
ATOM      5  N   UNL d   1     -38.442  15.170  21.628  0.00  0.00    -0.331 N 
ATOM      6  H   UNL d   1     -37.773  15.637  21.502  0.00  0.00     0.168 HD
BRANCH   5   7
ATOM      7  C   UNL d   1     -38.380  14.447  22.022  0.00  0.00     0.058 A 
ATOM      8  C   UNL d   1     -38.010  13.809  21.642  0.00  0.00     0.017 A 
ATOM      9  C   UNL d   1     -37.946  13.093  22.027  0.00  0.00     0.002 A 
ATOM     10  C   UNL d   1     -38.245  12.991  22.789  0.00  0.00     0.000 A 
ATOM     11  C   UNL d   1     -38.615  13.630  23.169  0.00  0.00     0.002 A 
ATOM     12  C   UNL d   1     -38.677  14.353  22.775  0.00  0.00     0.017 A 
ENDBRANCH   5   7
ENDBRANCH   3   5
ENDBRANCH   1   3
BRANCH   1  13
ATOM     13  N   UNL d   1     -39.712  15.844  20.077  0.00  0.00    -0.297 N 
ATOM     14  H   UNL d   1     -39.808  16.631  20.359  0.00  0.00     0.187 HD
BRANCH  13  15
ATOM     15  C   UNL d   1     -39.896  15.677  19.274  0.00  0.00     0.072 A 
ATOM     16  C   UNL d   1     -40.611  15.305  19.101  0.00  0.00     0.020 A 
ATOM     17  C   UNL d   1     -40.818  15.130  18.328  0.00  0.00     0.025 A 
ATOM     18  C   UNL d   1     -40.293  15.335  17.721  0.00  0.00     0.127 A 
ATOM     19  C   UNL d   1     -39.578  15.708  17.895  0.00  0.00     0.025 A 
ATOM     20  C   UNL d   1     -39.388  15.875  18.675  0.00  0.00     0.020 A 
BRANCH  18  21
ATOM     21  N   UNL d   1     -40.506  15.153  16.905  0.00  0.00    -0.114 N 
ATOM     22  O   UNL d   1     -41.300  15.174  16.681  0.00  0.00    -0.532 OA
ATOM     23  O   UNL d   1     -39.909  14.964  16.378  0.00  0.00    -0.532 OA
ENDBRANCH  18  21
ENDBRANCH  13  15
ENDBRANCH   1  13
TORSDOF 6
ENDMDL
MODEL 6
REMARK VINA RESULT:      -5.0      9.156      9.751
REMARK  6 active torsions:
REMARK  status: ('A' for Active; 'I' for Inactive)
REMARK    1  A    between atoms: C_3  and  N_1 
REMARK    2  A    between atoms: C_2  and  N_5 
REMARK    3  A    between atoms: N_6  and  C_2 
REMARK    4  A    between atoms: N_5  and  N_9 
REMARK    5  A    between atoms: C_13  and  N_6 
REMARK    6  A    between atoms: N_9  and  C_12 
ROOT
ATOM      1  N   UNL d   1     -38.771  13.873  19.418  0.00  0.00    -0.276 N 
ATOM      2  H   UNL d   1     -39.474  14.187  19.714  0.00  0.00     0.189 HD
ENDROOT
BRANCH   1   3
ATOM      3  C   UNL d   1     -38.687  13.782  18.591  0.00  0.00     0.191 C 
ATOM      4  S   UNL d   1     -37.940  13.898  18.249  0.00  0.00    -0.039 SA
BRANCH   3   5
ATOM      5  N   UNL d   1     -39.325  13.580  18.109  0.00  0.00    -0.331 N 
ATOM      6  H   UNL d   1     -39.519  12.781  18.035  0.00  0.00     0.168 HD
BRANCH   5   7
ATOM      7  C   UNL d   1     -39.761  14.156  17.709  0.00  0.00     0.058 A 
ATOM      8  C   UNL d   1     -40.523  14.347  17.977  0.00  0.00     0.017 A 
ATOM      9  C   UNL d   1     -40.957  14.915  17.586  0.00  0.00     0.002 A 
ATOM     10  C   UNL d   1     -40.652  15.304  16.925  0.00  0.00     0.000 A 
ATOM     11  C   UNL d   1     -39.890  15.113  16.657  0.00  0.00     0.002 A 
ATOM     12  C   UNL d   1     -39.454  14.537  17.057  0.00  0.00     0.017 A 
ENDBRANCH   5   7
ENDBRANCH   3   5
ENDBRANCH   1   3
BRANCH   1  13
ATOM     13  N   UNL d   1     -38.176  13.659  19.932  0.00  0.00    -0.297 N 
ATOM     14  H   UNL d   1     -37.417  13.455  19.629  0.00  0.00     0.187 HD
BRANCH  13  15
ATOM     15  C   UNL d   1     -38.299  13.637  20.763  0.00  0.00     0.072 A 
ATOM     16  C   UNL d   1     -37.940  13.037  21.201  0.00  0.00     0.020 A 
ATOM     17  C   UNL d   1     -38.041  12.990  22.012  0.00  0.00     0.025 A 
ATOM     18  C   UNL d   1     -38.514  13.558  22.385  0.00  0.00     0.127 A 
ATOM     19  C   UNL d   1     -38.874  14.158  21.947  0.00  0.00     0.025 A 
ATOM     20  C   UNL d   1     -38.760  14.189  21.135  0.00  0.00     0.020 A 
BRANCH  18  21
ATOM     21  N   UNL d   1     -38.625  13.513  23.240  0.00  0.00    -0.114 N 
ATOM     22  O   UNL d   1     -38.634  12.774  23.607  0.00  0.00    -0.532 OA
ATOM     23  O   UNL d   1     -38.717  14.210  23.659  0.00  0.00    -0.532 OA
ENDBRANCH  18  21
ENDBRANCH  13  15
ENDBRANCH   1  13
TORSDOF 6
ENDMDL
MODEL 7
REMARK VINA RESULT:      -4.4      8.155     10.522
REMARK  6 active torsions:
REMARK  status: ('A' for Active; 'I' for Inactive)
REMARK    1  A    between atoms: C_3  and  N_1 
REMARK    2  A    between atoms: C_2  and  N_5 
REMARK    3  A    between atoms: N_6  and  C_2 
REMARK    4  A    between atoms: N_5  and  N_9 
REMARK    5  A    between atoms: C_13  and  N_6 
REMARK    6  A    between atoms: N_9  and  C_12 
ROOT
ATOM      1  N   UNL d   1     -39.408  15.075  17.588  0.00  0.00    -0.276 N 
ATOM      2  H   UNL d   1     -39.400  14.265  17.744  0.00  0.00     0.189 HD
ENDROOT
BRANCH   1   3
ATOM      3  C   UNL d   1     -39.016  15.360  16.906  0.00  0.00     0.191 C 
ATOM      4  S   UNL d   1     -39.397  15.922  16.429  0.00  0.00    -0.039 SA
BRANCH   3   5
ATOM      5  N   UNL d   1     -38.263  15.097  16.697  0.00  0.00    -0.331 N 
ATOM      6  H   UNL d   1     -37.613  15.432  17.081  0.00  0.00     0.168 HD
BRANCH   5   7
ATOM      7  C   UNL d   1     -38.155  14.515  16.121  0.00  0.00     0.058 A 
ATOM      8  C   UNL d   1     -38.105  13.719  16.352  0.00  0.00     0.017 A 
ATOM      9  C   UNL d   1     -37.999  13.141  15.788  0.00  0.00     0.002 A 
ATOM     10  C   UNL d   1     -37.940  13.334  14.987  0.00  0.00     0.000 A 
ATOM     11  C   UNL d   1     -37.989  14.130  14.756  0.00  0.00     0.002 A 
ATOM     12  C   UNL d   1     -38.097  14.711  15.332  0.00  0.00     0.017 A 
ENDBRANCH   5   7
ENDBRANCH   3   5
ENDBRANCH   1   3
BRANCH   1  13
ATOM     13  N   UNL d   1     -39.796  15.580  18.096  0.00  0.00    -0.297 N 
ATOM     14  H   UNL d   1     -39.948  16.375  17.861  0.00  0.00     0.187 HD
BRANCH  13  15
ATOM     15  C   UNL d   1     -40.052  15.329  18.856  0.00  0.00     0.072 A 
ATOM     16  C   UNL d   1     -40.450  14.609  18.922  0.00  0.00     0.020 A 
ATOM     17  C   UNL d   1     -40.711  14.337  19.649  0.00  0.00     0.025 A 
ATOM     18  C   UNL d   1     -40.567  14.802  20.320  0.00  0.00     0.127 A 
ATOM     19  C   UNL d   1     -40.170  15.522  20.254  0.00  0.00     0.025 A 
ATOM     20  C   UNL d   1     -39.916  15.777  19.517  0.00  0.00     0.020 A 
BRANCH  18  21
ATOM     21  N   UNL d   1     -40.841  14.521  21.089  0.00  0.00    -0.114 N 
ATOM     22  O   UNL d   1     -40.381  13.978  21.507  0.00  0.00    -0.532 OA
ATOM     23  O   UNL d   1     -41.552  14.804  21.378  0.00  0.00    -0.532 OA
ENDBRANCH  18  21
ENDBRANCH  13  15
ENDBRANCH   1  13
TORSDOF 6
ENDMDL
