MODEL 1
REMARK VINA RESULT:      11.5      0.000      0.000
REMARK  4 active torsions:
REMARK  status: ('A' for Active; 'I' for Inactive)
REMARK    1  A    between atoms: C_9  and  C_3 
REMARK    2  A    between atoms: C_6  and  C_10 
REMARK    3  A    between atoms: S_7  and  C_9 
REMARK    4  A    between atoms: C_10  and  S_7 
ROOT
ATOM      1  N   UNL d   1     -54.924-102.864 -37.351  0.00  0.00    -0.218 NA
ATOM      2  N   UNL d   1     -54.712-101.614 -37.720  0.00  0.00    -0.218 NA
ATOM      3  C   UNL d   1     -54.797-102.384 -38.006  0.00  0.00     0.206 A 
ATOM      4  C   UNL d   1     -54.918-102.409 -36.684  0.00  0.00     0.101 A 
ATOM      5  C   UNL d   1     -54.786-101.628 -36.914  0.00  0.00     0.101 A 
ATOM      6  C   UNL d   1     -55.010-102.565 -35.894  0.00  0.00     0.021 A 
ATOM      7  C   UNL d   1     -54.751-101.031 -36.347  0.00  0.00     0.021 A 
ATOM      8  C   UNL d   1     -54.980-101.995 -35.318  0.00  0.00     0.002 A 
ATOM      9  C   UNL d   1     -54.848-101.214 -35.548  0.00  0.00     0.002 A 
ENDROOT
BRANCH   3  10
ATOM     10  C   UNL d   1     -54.762-102.623 -38.795  0.00  0.00    -0.027 C 
BRANCH  10  11
ATOM     11  S   UNL d   1     -54.726-102.861 -39.584  0.00  0.00    -0.041 SA
BRANCH  11  12
ATOM     12  C   UNL d   1     -54.778-102.301 -40.188  0.00  0.00     0.043 C 
BRANCH  12  13
ATOM     13  C   UNL d   1     -55.146-102.495 -40.900  0.00  0.00     0.007 C 
ATOM     14  C   UNL d   1     -55.920-102.793 -40.897  0.00  0.00     0.001 C 
ATOM     15  C   UNL d   1     -54.744-102.391 -41.613  0.00  0.00     0.001 C 
ENDBRANCH  12  13
ENDBRANCH  11  12
ENDBRANCH  10  11
ENDBRANCH   3  10
TORSDOF 4
ENDMDL
MODEL 2
REMARK VINA RESULT:      13.9      6.460      7.841
REMARK  4 active torsions:
REMARK  status: ('A' for Active; 'I' for Inactive)
REMARK    1  A    between atoms: C_9  and  C_3 
REMARK    2  A    between atoms: C_6  and  C_10 
REMARK    3  A    between atoms: S_7  and  C_9 
REMARK    4  A    between atoms: C_10  and  S_7 
ROOT
ATOM      1  N   UNL d   1     -57.458 -98.757 -43.741  0.00  0.00    -0.218 NA
ATOM      2  N   UNL d   1     -57.613 -98.756 -45.053  0.00  0.00    -0.218 NA
ATOM      3  C   UNL d   1     -57.046 -98.757 -44.452  0.00  0.00     0.206 A 
ATOM      4  C   UNL d   1     -58.251 -98.756 -43.896  0.00  0.00     0.101 A 
ATOM      5  C   UNL d   1     -58.347 -98.756 -44.715  0.00  0.00     0.101 A 
ATOM      6  C   UNL d   1     -58.915 -98.756 -43.432  0.00  0.00     0.021 A 
ATOM      7  C   UNL d   1     -59.104 -98.755 -45.041  0.00  0.00     0.021 A 
ATOM      8  C   UNL d   1     -59.670 -98.756 -43.729  0.00  0.00     0.002 A 
ATOM      9  C   UNL d   1     -59.766 -98.755 -44.548  0.00  0.00     0.002 A 
ENDROOT
BRANCH   3  10
ATOM     10  C   UNL d   1     -56.226 -98.757 -44.549  0.00  0.00    -0.027 C 
BRANCH  10  11
ATOM     11  S   UNL d   1     -55.407 -98.757 -44.645  0.00  0.00    -0.041 SA
BRANCH  11  12
ATOM     12  C   UNL d   1     -54.931 -99.199 -44.134  0.00  0.00     0.043 C 
BRANCH  12  13
ATOM     13  C   UNL d   1     -54.797 -99.999 -44.283  0.00  0.00     0.007 C 
ATOM     14  C   UNL d   1     -54.747-100.270 -45.065  0.00  0.00     0.001 C 
ATOM     15  C   UNL d   1     -54.714-100.527 -43.654  0.00  0.00     0.001 C 
ENDBRANCH  12  13
ENDBRANCH  11  12
ENDBRANCH  10  11
ENDBRANCH   3  10
TORSDOF 4
ENDMDL
