MODEL 1
REMARK VINA RESULT:      -4.0      0.000      0.000
REMARK  6 active torsions:
REMARK  status: ('A' for Active; 'I' for Inactive)
REMARK    1  A    between atoms: C_6  and  N_2 
REMARK    2  A    between atoms: C_7  and  C_3 
REMARK    3  A    between atoms: C_10  and  C_6 
REMARK    4  A    between atoms: C_15  and  C_7 
REMARK    5  A    between atoms: O_8  and  C_10 
REMARK    6  A    between atoms: C_9  and  O_8 
ROOT
ATOM      1  N   UNL d   1      60.335  -1.611  28.735  0.00  0.00    -0.227 NA
ATOM      2  N   UNL d   1      59.260  -1.159  29.389  0.00  0.00    -0.287 N 
ATOM      3  C   UNL d   1      59.573  -1.832  29.001  0.00  0.00     0.148 A 
ATOM      4  C   UNL d   1      59.813  -0.554  29.359  0.00  0.00     0.083 A 
ATOM      5  C   UNL d   1      60.506  -0.845  28.937  0.00  0.00     0.099 A 
ATOM      6  C   UNL d   1      59.788   0.206  29.648  0.00  0.00     0.019 A 
ATOM      7  C   UNL d   1      61.131  -0.300  28.852  0.00  0.00     0.021 A 
ATOM      8  C   UNL d   1      60.434   0.679  29.527  0.00  0.00     0.002 A 
ATOM      9  C   UNL d   1      61.083   0.406  29.131  0.00  0.00     0.002 A 
ENDROOT
BRANCH   2  10
ATOM     10  C   UNL d   1      58.526  -1.268  29.684  0.00  0.00     0.108 C 
BRANCH  10  11
ATOM     11  C   UNL d   1      58.219  -0.803  30.283  0.00  0.00     0.142 C 
BRANCH  11  12
ATOM     12  O   UNL d   1      57.425  -0.784  30.472  0.00  0.00    -0.304 OA
BRANCH  12  13
ATOM     13  C   UNL d   1      57.137  -0.522  31.199  0.00  0.00     0.100 A 
ATOM     14  C   UNL d   1      57.161   0.265  31.443  0.00  0.00     0.025 A 
ATOM     15  C   UNL d   1      56.874   0.526  32.169  0.00  0.00     0.002 A 
ATOM     16  C   UNL d   1      56.540  -0.036  32.686  0.00  0.00     0.000 A 
ATOM     17  C   UNL d   1      56.504  -0.842  32.461  0.00  0.00     0.002 A 
ATOM     18  C   UNL d   1      56.804  -1.084  31.716  0.00  0.00     0.025 A 
ENDBRANCH  12  13
ENDBRANCH  11  12
ENDBRANCH  10  11
ENDBRANCH   2  10
BRANCH   3  19
ATOM     19  C   UNL d   1      58.931  -2.306  29.120  0.00  0.00     0.037 C 
BRANCH  19  20
ATOM     20  C   UNL d   1      59.011  -3.136  29.038  0.00  0.00     0.003 C 
ATOM     21  C   UNL d   1      58.575  -3.549  28.459  0.00  0.00     0.000 C 
ENDBRANCH  19  20
ENDBRANCH   3  19
TORSDOF 6
ENDMDL
MODEL 2
REMARK VINA RESULT:      -2.5      1.069      4.031
REMARK  6 active torsions:
REMARK  status: ('A' for Active; 'I' for Inactive)
REMARK    1  A    between atoms: C_6  and  N_2 
REMARK    2  A    between atoms: C_7  and  C_3 
REMARK    3  A    between atoms: C_10  and  C_6 
REMARK    4  A    between atoms: C_15  and  C_7 
REMARK    5  A    between atoms: O_8  and  C_10 
REMARK    6  A    between atoms: C_9  and  O_8 
ROOT
ATOM      1  N   UNL d   1      58.873   0.620  30.775  0.00  0.00    -0.227 NA
ATOM      2  N   UNL d   1      58.547  -0.370  29.938  0.00  0.00    -0.287 N 
ATOM      3  C   UNL d   1      59.089   0.259  30.052  0.00  0.00     0.148 A 
ATOM      4  C   UNL d   1      58.023  -0.386  30.568  0.00  0.00     0.083 A 
ATOM      5  C   UNL d   1      58.233   0.252  31.108  0.00  0.00     0.099 A 
ATOM      6  C   UNL d   1      57.396  -0.881  30.728  0.00  0.00     0.019 A 
ATOM      7  C   UNL d   1      57.756   0.320  31.788  0.00  0.00     0.021 A 
ATOM      8  C   UNL d   1      56.978  -0.754  31.409  0.00  0.00     0.002 A 
ATOM      9  C   UNL d   1      57.175  -0.155  31.915  0.00  0.00     0.002 A 
ENDROOT
BRANCH   2  10
ATOM     10  C   UNL d   1      58.669  -0.784  29.265  0.00  0.00     0.108 C 
BRANCH  10  11
ATOM     11  C   UNL d   1      58.729  -1.600  29.257  0.00  0.00     0.142 C 
BRANCH  11  12
ATOM     12  O   UNL d   1      58.724  -2.041  28.569  0.00  0.00    -0.304 OA
BRANCH  12  13
ATOM     13  C   UNL d   1      58.970  -2.827  28.532  0.00  0.00     0.100 A 
ATOM     14  C   UNL d   1      58.452  -3.467  28.492  0.00  0.00     0.025 A 
ATOM     15  C   UNL d   1      58.699  -4.251  28.455  0.00  0.00     0.002 A 
ATOM     16  C   UNL d   1      59.517  -4.407  28.459  0.00  0.00     0.000 A 
ATOM     17  C   UNL d   1      60.064  -3.774  28.499  0.00  0.00     0.002 A 
ATOM     18  C   UNL d   1      59.788  -2.983  28.536  0.00  0.00     0.025 A 
ENDBRANCH  12  13
ENDBRANCH  11  12
ENDBRANCH  10  11
ENDBRANCH   2  10
BRANCH   3  19
ATOM     19  C   UNL d   1      59.509   0.135  29.374  0.00  0.00     0.037 C 
BRANCH  19  20
ATOM     20  C   UNL d   1      60.108   0.678  29.155  0.00  0.00     0.003 C 
ATOM     21  C   UNL d   1      60.801   0.414  28.773  0.00  0.00     0.000 C 
ENDBRANCH  19  20
ENDBRANCH   3  19
TORSDOF 6
ENDMDL
