MODEL 1
REMARK VINA RESULT:      -5.9      0.000      0.000
REMARK  5 active torsions:
REMARK  status: ('A' for Active; 'I' for Inactive)
REMARK    1  A    between atoms: C_3  and  C_1 
REMARK       I    between atoms: N_5  and  C_1 
REMARK    2  A    between atoms: C_2  and  C_4 
REMARK    3  A    between atoms: C_4  and  C_3 
REMARK    4  A    between atoms: C_7  and  N_5 
REMARK    5  A    between atoms: O_14  and  C_13 
ROOT
ATOM      1  C   UNL d   1     -47.809  14.245  22.877  0.00  0.00     0.279 C 
ATOM      2  N   UNL d   1     -48.218  14.823  22.458  0.00  0.00    -0.208 NA
ATOM      3  O   UNL d   1     -48.204  13.770  23.419  0.00  0.00    -0.265 OA
ENDROOT
BRANCH   1   4
ATOM      4  C   UNL d   1     -47.005  14.138  22.755  0.00  0.00     0.065 C 
BRANCH   4   5
ATOM      5  C   UNL d   1     -46.663  13.392  22.873  0.00  0.00     0.030 C 
BRANCH   5   6
ATOM      6  C   UNL d   1     -45.912  13.236  22.568  0.00  0.00     0.100 A 
ATOM      7  O   UNL d   1     -45.367  13.723  22.158  0.00  0.00    -0.305 OA
ATOM      8  C   UNL d   1     -44.699  13.256  21.989  0.00  0.00     0.123 A 
ATOM      9  C   UNL d   1     -44.829  12.496  22.287  0.00  0.00     0.029 A 
ATOM     10  C   UNL d   1     -45.582  12.482  22.647  0.00  0.00     0.027 A 
ENDBRANCH   5   6
ENDBRANCH   4   5
ENDBRANCH   1   4
BRANCH   2  11
ATOM     11  C   UNL d   1     -49.026  14.926  22.585  0.00  0.00     0.087 A 
ATOM     12  C   UNL d   1     -49.561  14.587  22.073  0.00  0.00     0.043 A 
ATOM     13  C   UNL d   1     -50.367  14.688  22.196  0.00  0.00     0.096 A 
ATOM     14  C   UNL d   1     -50.638  15.132  22.836  0.00  0.00     0.024 A 
ATOM     15  C   UNL d   1     -50.087  15.476  23.355  0.00  0.00     0.004 A 
ATOM     16  C   UNL d   1     -49.280  15.371  23.226  0.00  0.00     0.019 A 
BRANCH  13  17
ATOM     17  O   UNL d   1     -50.912  14.344  21.678  0.00  0.00    -0.328 OA
ATOM     18  C   UNL d   1     -51.064  13.537  21.711  0.00  0.00     0.181 C 
ENDBRANCH  13  17
ENDBRANCH   2  11
TORSDOF 5
ENDMDL
MODEL 2
REMARK VINA RESULT:      -5.1      8.747      9.267
REMARK  5 active torsions:
REMARK  status: ('A' for Active; 'I' for Inactive)
REMARK    1  A    between atoms: C_3  and  C_1 
REMARK       I    between atoms: N_5  and  C_1 
REMARK    2  A    between atoms: C_2  and  C_4 
REMARK    3  A    between atoms: C_4  and  C_3 
REMARK    4  A    between atoms: C_7  and  N_5 
REMARK    5  A    between atoms: O_14  and  C_13 
ROOT
ATOM      1  C   UNL d   1     -39.814  14.548  19.488  0.00  0.00     0.279 C 
ATOM      2  N   UNL d   1     -40.115  14.113  18.858  0.00  0.00    -0.208 NA
ATOM      3  O   UNL d   1     -39.590  15.332  19.379  0.00  0.00    -0.265 OA
ENDROOT
BRANCH   1   4
ATOM      4  C   UNL d   1     -39.737  14.204  20.229  0.00  0.00     0.065 C 
BRANCH   4   5
ATOM      5  C   UNL d   1     -39.078  14.379  20.701  0.00  0.00     0.030 C 
BRANCH   5   6
ATOM      6  C   UNL d   1     -38.969  13.976  21.413  0.00  0.00     0.100 A 
ATOM      7  O   UNL d   1     -39.499  13.802  22.039  0.00  0.00    -0.305 OA
ATOM      8  C   UNL d   1     -39.070  13.380  22.613  0.00  0.00     0.123 A 
ATOM      9  C   UNL d   1     -38.292  13.295  22.349  0.00  0.00     0.029 A 
ATOM     10  C   UNL d   1     -38.227  13.665  21.603  0.00  0.00     0.027 A 
ENDBRANCH   5   6
ENDBRANCH   4   5
ENDBRANCH   1   4
BRANCH   2  11
ATOM     11  C   UNL d   1     -40.191  14.464  18.116  0.00  0.00     0.087 A 
ATOM     12  C   UNL d   1     -40.896  14.813  17.905  0.00  0.00     0.043 A 
ATOM     13  C   UNL d   1     -40.975  15.163  17.166  0.00  0.00     0.096 A 
ATOM     14  C   UNL d   1     -40.342  15.164  16.637  0.00  0.00     0.024 A 
ATOM     15  C   UNL d   1     -39.626  14.807  16.859  0.00  0.00     0.004 A 
ATOM     16  C   UNL d   1     -39.554  14.457  17.600  0.00  0.00     0.019 A 
BRANCH  13  17
ATOM     17  O   UNL d   1     -41.689  15.518  16.949  0.00  0.00    -0.328 OA
ATOM     18  C   UNL d   1     -41.752  15.922  16.236  0.00  0.00     0.181 C 
ENDBRANCH  13  17
ENDBRANCH   2  11
TORSDOF 5
ENDMDL
MODEL 3
REMARK VINA RESULT:      -4.8      8.034      9.609
REMARK  5 active torsions:
REMARK  status: ('A' for Active; 'I' for Inactive)
REMARK    1  A    between atoms: C_3  and  C_1 
REMARK       I    between atoms: N_5  and  C_1 
REMARK    2  A    between atoms: C_2  and  C_4 
REMARK    3  A    between atoms: C_4  and  C_3 
REMARK    4  A    between atoms: C_7  and  N_5 
REMARK    5  A    between atoms: O_14  and  C_13 
ROOT
ATOM      1  C   UNL d   1     -39.975  14.742  18.689  0.00  0.00     0.279 C 
ATOM      2  N   UNL d   1     -39.734  15.395  19.127  0.00  0.00    -0.208 NA
ATOM      3  O   UNL d   1     -40.514  14.208  19.005  0.00  0.00    -0.265 OA
ENDROOT
BRANCH   1   4
ATOM      4  C   UNL d   1     -39.680  14.620  17.933  0.00  0.00     0.065 C 
BRANCH   4   5
ATOM      5  C   UNL d   1     -39.346  13.889  17.731  0.00  0.00     0.030 C 
BRANCH   5   6
ATOM      6  C   UNL d   1     -38.924  13.814  17.026  0.00  0.00     0.100 A 
ATOM      7  O   UNL d   1     -39.057  14.136  16.263  0.00  0.00    -0.305 OA
ATOM      8  C   UNL d   1     -38.442  13.865  15.772  0.00  0.00     0.123 A 
ATOM      9  C   UNL d   1     -37.940  13.386  16.221  0.00  0.00     0.029 A 
ATOM     10  C   UNL d   1     -38.238  13.354  17.000  0.00  0.00     0.027 A 
ENDBRANCH   5   6
ENDBRANCH   4   5
ENDBRANCH   1   4
BRANCH   2  11
ATOM     11  C   UNL d   1     -40.035  15.513  19.886  0.00  0.00     0.087 A 
ATOM     12  C   UNL d   1     -39.573  15.341  20.534  0.00  0.00     0.043 A 
ATOM     13  C   UNL d   1     -39.870  15.457  21.291  0.00  0.00     0.096 A 
ATOM     14  C   UNL d   1     -40.634  15.748  21.398  0.00  0.00     0.024 A 
ATOM     15  C   UNL d   1     -41.100  15.922  20.732  0.00  0.00     0.004 A 
ATOM     16  C   UNL d   1     -40.797  15.803  19.976  0.00  0.00     0.019 A 
BRANCH  13  17
ATOM     17  O   UNL d   1     -39.403  15.283  21.951  0.00  0.00    -0.328 OA
ATOM     18  C   UNL d   1     -39.086  15.889  22.406  0.00  0.00     0.181 C 
ENDBRANCH  13  17
ENDBRANCH   2  11
TORSDOF 5
ENDMDL
MODEL 4
REMARK VINA RESULT:      -4.8      8.508      9.320
REMARK  5 active torsions:
REMARK  status: ('A' for Active; 'I' for Inactive)
REMARK    1  A    between atoms: C_3  and  C_1 
REMARK       I    between atoms: N_5  and  C_1 
REMARK    2  A    between atoms: C_2  and  C_4 
REMARK    3  A    between atoms: C_4  and  C_3 
REMARK    4  A    between atoms: C_7  and  N_5 
REMARK    5  A    between atoms: O_14  and  C_13 
ROOT
ATOM      1  C   UNL d   1     -40.148  15.487  19.731  0.00  0.00     0.279 C 
ATOM      2  N   UNL d   1     -40.511  15.300  20.446  0.00  0.00    -0.208 NA
ATOM      3  O   UNL d   1     -39.332  15.575  19.693  0.00  0.00    -0.265 OA
ENDROOT
BRANCH   1   4
ATOM      4  C   UNL d   1     -40.599  15.587  19.053  0.00  0.00     0.065 C 
BRANCH   4   5
ATOM      5  C   UNL d   1     -40.274  15.417  18.310  0.00  0.00     0.030 C 
BRANCH   5   6
ATOM      6  C   UNL d   1     -40.714  15.569  17.628  0.00  0.00     0.100 A 
ATOM      7  O   UNL d   1     -41.471  15.913  17.521  0.00  0.00    -0.305 OA
ATOM      8  C   UNL d   1     -41.624  15.921  16.704  0.00  0.00     0.123 A 
ATOM      9  C   UNL d   1     -40.975  15.590  16.313  0.00  0.00     0.029 A 
ATOM     10  C   UNL d   1     -40.409  15.371  16.886  0.00  0.00     0.027 A 
ENDBRANCH   5   6
ENDBRANCH   4   5
ENDBRANCH   1   4
BRANCH   2  11
ATOM     11  C   UNL d   1     -40.053  15.201  21.124  0.00  0.00     0.087 A 
ATOM     12  C   UNL d   1     -39.841  14.452  21.362  0.00  0.00     0.043 A 
ATOM     13  C   UNL d   1     -39.385  14.350  22.038  0.00  0.00     0.096 A 
ATOM     14  C   UNL d   1     -39.140  15.004  22.477  0.00  0.00     0.024 A 
ATOM     15  C   UNL d   1     -39.360  15.766  22.228  0.00  0.00     0.004 A 
ATOM     16  C   UNL d   1     -39.817  15.861  21.550  0.00  0.00     0.019 A 
BRANCH  13  17
ATOM     17  O   UNL d   1     -39.168  13.590  22.282  0.00  0.00    -0.328 OA
ATOM     18  C   UNL d   1     -38.382  13.415  22.442  0.00  0.00     0.181 C 
ENDBRANCH  13  17
ENDBRANCH   2  11
TORSDOF 5
ENDMDL
