MODEL 1
REMARK VINA RESULT:      61.2      0.000      0.000
REMARK  2 active torsions:
REMARK  status: ('A' for Active; 'I' for Inactive)
REMARK    1  A    between atoms: S_5  and  C_3 
REMARK    2  A    between atoms: C_12  and  S_5 
ROOT
ATOM      1  C   UNL d   1      13.900  13.020  -2.797  0.00  0.00     0.155 A 
ATOM      2  C   UNL d   1      13.913  13.749  -3.163  0.00  0.00     0.092 A 
ATOM      3  C   UNL d   1      14.478  14.326  -2.003  0.00  0.00     0.124 A 
ATOM      4  N   UNL d   1      13.608  12.362  -3.198  0.00  0.00    -0.210 NA
ATOM      5  N   UNL d   1      14.173  12.940  -2.038  0.00  0.00    -0.272 N 
ATOM      6  C   UNL d   1      14.465  13.589  -1.632  0.00  0.00     0.181 A 
ATOM      7  C   UNL d   1      13.635  13.829  -3.933  0.00  0.00     0.269 A 
ATOM      8  N   UNL d   1      13.345  13.173  -4.330  0.00  0.00    -0.258 N 
ATOM      9  C   UNL d   1      14.201  14.403  -2.770  0.00  0.00     0.022 A 
ATOM     10  C   UNL d   1      13.334  12.438  -3.955  0.00  0.00     0.152 A 
ATOM     11  N   UNL d   1      14.744  13.503  -0.856  0.00  0.00    -0.128 N 
ATOM     12  C   UNL d   1      13.065  13.242  -5.101  0.00  0.00     0.084 A 
ATOM     13  O   UNL d   1      13.646  14.572  -4.311  0.00  0.00    -0.266 OA
ATOM     14  C   UNL d   1      13.043  11.780  -4.356  0.00  0.00     0.038 A 
ATOM     15  C   UNL d   1      12.780  12.590  -5.488  0.00  0.00     0.019 A 
ATOM     16  C   UNL d   1      12.769  11.856  -5.114  0.00  0.00     0.005 A 
ATOM     17  C   UNL d   1      14.161  12.191  -1.660  0.00  0.00     0.102 C 
ENDROOT
BRANCH   3  18
ATOM     18  S   UNL d   1      14.772  14.986  -1.598  0.00  0.00     0.213 S 
ATOM     19  O   UNL d   1      14.996  14.506  -0.954  0.00  0.00    -0.217 OA
ATOM     20  O   UNL d   1      14.554  15.473  -2.232  0.00  0.00    -0.217 OA
BRANCH  18  21
ATOM     21  C   UNL d   1      15.065  15.659  -1.199  0.00  0.00     0.088 A 
ATOM     22  C   UNL d   1      15.432  15.578  -0.462  0.00  0.00     0.014 A 
ATOM     23  C   UNL d   1      15.725  16.250  -0.062  0.00  0.00     0.030 A 
ATOM     24  C   UNL d   1      15.649  17.002  -0.404  0.00  0.00     0.140 A 
ATOM     25  C   UNL d   1      15.274  17.078  -1.152  0.00  0.00     0.030 A 
ATOM     26  F   UNL d   1      15.937  17.674  -0.014  0.00  0.00    -0.204 F 
ATOM     27  C   UNL d   1      14.983  16.408  -1.548  0.00  0.00     0.014 A 
ENDBRANCH  18  21
ENDBRANCH   3  18
TORSDOF 2
ENDMDL
