MODEL 1
REMARK VINA RESULT:       5.4      0.000      0.000
REMARK  1 active torsions:
REMARK  status: ('A' for Active; 'I' for Inactive)
REMARK    1  A    between atoms: C_4  and  N_1 
ROOT
ATOM      1  N   UNL d   1      23.848  12.535  -1.762  0.00  0.00    -0.240 N 
ATOM      2  C   UNL d   1      23.750  12.614  -2.581  0.00  0.00     0.267 A 
ATOM      3  C   UNL d   1      24.483  12.014  -1.637  0.00  0.00     0.267 A 
ATOM      4  C   UNL d   1      24.768  11.779  -2.372  0.00  0.00     0.066 A 
ATOM      5  C   UNL d   1      24.319  12.147  -2.958  0.00  0.00     0.066 A 
ATOM      6  O   UNL d   1      23.177  13.083  -2.956  0.00  0.00    -0.267 OA
ATOM      7  O   UNL d   1      24.768  11.782  -0.899  0.00  0.00    -0.267 OA
ENDROOT
BRANCH   1   8
ATOM      8  C   UNL d   1      23.397  12.904  -1.178  0.00  0.00     0.097 A 
ATOM      9  C   UNL d   1      23.690  13.576  -0.801  0.00  0.00     0.156 A 
ATOM     10  F   UNL d   1      24.432  13.877  -1.008  0.00  0.00    -0.203 F 
ATOM     11  C   UNL d   1      23.243  13.949  -0.216  0.00  0.00     0.031 A 
ATOM     12  C   UNL d   1      22.502  13.641  -0.015  0.00  0.00     0.002 A 
ATOM     13  C   UNL d   1      22.212  12.968  -0.396  0.00  0.00     0.002 A 
ATOM     14  C   UNL d   1      22.665  12.601  -0.979  0.00  0.00     0.020 A 
ENDBRANCH   1   8
TORSDOF 1
ENDMDL
