MODEL 1
REMARK VINA RESULT:      -3.8      0.000      0.000
REMARK  6 active torsions:
REMARK  status: ('A' for Active; 'I' for Inactive)
REMARK    1  A    between atoms: C_15  and  C_2 
REMARK    2  A    between atoms: C_19  and  C_3 
REMARK    3  A    between atoms: C_4  and  C_16 
REMARK       I    between atoms: N_7  and  C_4 
REMARK    4  A    between atoms: C_14  and  N_7 
REMARK    5  A    between atoms: C_8  and  C_9 
REMARK    6  A    between atoms: C_16  and  C_15 
ROOT
ATOM      1  C   UNL d   1      57.940   0.114  29.232  0.00  0.00     0.279 C 
ATOM      2  N   UNL d   1      58.333  -0.298  28.637  0.00  0.00    -0.208 NA
ATOM      3  O   UNL d   1      57.370   0.681  29.037  0.00  0.00    -0.265 OA
ENDROOT
BRANCH   1   4
ATOM      4  C   UNL d   1      58.115  -0.037  30.026  0.00  0.00     0.065 C 
BRANCH   4   5
ATOM      5  C   UNL d   1      57.853   0.484  30.615  0.00  0.00     0.030 C 
BRANCH   5   6
ATOM      6  C   UNL d   1      57.526   0.193  31.314  0.00  0.00     0.100 A 
ATOM      7  O   UNL d   1      56.926  -0.367  31.363  0.00  0.00    -0.307 OA
ATOM      8  C   UNL d   1      56.772  -0.495  32.161  0.00  0.00     0.100 A 
ATOM      9  C   UNL d   1      57.285  -0.005  32.606  0.00  0.00     0.027 A 
ATOM     10  C   UNL d   1      57.746   0.415  32.073  0.00  0.00     0.027 A 
BRANCH   8  11
ATOM     11  C   UNL d   1      56.215  -1.010  32.475  0.00  0.00     0.025 C 
ATOM     12  C   UNL d   1      55.621  -0.735  32.976  0.00  0.00     0.002 C 
ENDBRANCH   8  11
ENDBRANCH   5   6
ENDBRANCH   4   5
ENDBRANCH   1   4
BRANCH   2  13
ATOM     13  C   UNL d   1      58.906  -0.868  28.841  0.00  0.00     0.085 A 
ATOM     14  C   UNL d   1      59.669  -0.625  29.032  0.00  0.00     0.019 A 
ATOM     15  C   UNL d   1      60.236  -1.195  29.234  0.00  0.00     0.005 A 
ATOM     16  C   UNL d   1      60.040  -1.997  29.245  0.00  0.00     0.039 A 
ATOM     17  C   UNL d   1      59.259  -2.227  29.047  0.00  0.00     0.005 A 
ATOM     18  C   UNL d   1      58.700  -1.663  28.848  0.00  0.00     0.019 A 
BRANCH  16  19
ATOM     19  C   UNL d   1      60.602  -2.565  29.445  0.00  0.00     0.196 C 
ATOM     20  O   UNL d   1      61.009  -2.512  30.162  0.00  0.00    -0.287 OA
ATOM     21  C   UNL d   1      60.759  -3.189  28.927  0.00  0.00     0.045 C 
ENDBRANCH  16  19
ENDBRANCH   2  13
TORSDOF 6
ENDMDL
MODEL 2
REMARK VINA RESULT:      -3.5      1.322      4.163
REMARK  6 active torsions:
REMARK  status: ('A' for Active; 'I' for Inactive)
REMARK    1  A    between atoms: C_15  and  C_2 
REMARK    2  A    between atoms: C_19  and  C_3 
REMARK    3  A    between atoms: C_4  and  C_16 
REMARK       I    between atoms: N_7  and  C_4 
REMARK    4  A    between atoms: C_14  and  N_7 
REMARK    5  A    between atoms: C_8  and  C_9 
REMARK    6  A    between atoms: C_16  and  C_15 
ROOT
ATOM      1  C   UNL d   1      60.472   0.058  28.937  0.00  0.00     0.279 C 
ATOM      2  N   UNL d   1      60.023   0.682  29.230  0.00  0.00    -0.208 NA
ATOM      3  O   UNL d   1      61.128   0.209  28.455  0.00  0.00    -0.265 OA
ENDROOT
BRANCH   1   4
ATOM      4  C   UNL d   1      60.270  -0.722  29.122  0.00  0.00     0.065 C 
BRANCH   4   5
ATOM      5  C   UNL d   1      60.736  -1.349  28.843  0.00  0.00     0.030 C 
BRANCH   5   6
ATOM      6  C   UNL d   1      60.479  -2.129  28.929  0.00  0.00     0.100 A 
ATOM      7  O   UNL d   1      59.734  -2.412  28.728  0.00  0.00    -0.307 OA
ATOM      8  C   UNL d   1      59.718  -3.215  28.906  0.00  0.00     0.100 A 
ATOM      9  C   UNL d   1      60.465  -3.426  29.221  0.00  0.00     0.027 A 
ATOM     10  C   UNL d   1      60.927  -2.747  29.230  0.00  0.00     0.027 A 
BRANCH   8  11
ATOM     11  C   UNL d   1      59.085  -3.727  28.797  0.00  0.00     0.025 C 
ATOM     12  C   UNL d   1      59.198  -4.470  28.460  0.00  0.00     0.002 C 
ENDBRANCH   8  11
ENDBRANCH   5   6
ENDBRANCH   4   5
ENDBRANCH   1   4
BRANCH   2  13
ATOM     13  C   UNL d   1      59.364   0.522  29.715  0.00  0.00     0.085 A 
ATOM     14  C   UNL d   1      58.635   0.360  29.368  0.00  0.00     0.019 A 
ATOM     15  C   UNL d   1      57.982   0.201  29.853  0.00  0.00     0.005 A 
ATOM     16  C   UNL d   1      58.060   0.204  30.675  0.00  0.00     0.039 A 
ATOM     17  C   UNL d   1      58.809   0.371  31.012  0.00  0.00     0.005 A 
ATOM     18  C   UNL d   1      59.453   0.528  30.531  0.00  0.00     0.019 A 
BRANCH  16  19
ATOM     19  C   UNL d   1      57.412   0.046  31.159  0.00  0.00     0.196 C 
ATOM     20  O   UNL d   1      57.001   0.666  31.519  0.00  0.00    -0.287 OA
ATOM     21  C   UNL d   1      57.173  -0.735  31.286  0.00  0.00     0.045 C 
ENDBRANCH  16  19
ENDBRANCH   2  13
TORSDOF 6
ENDMDL
MODEL 3
REMARK VINA RESULT:      -3.4      0.965      4.163
REMARK  6 active torsions:
REMARK  status: ('A' for Active; 'I' for Inactive)
REMARK    1  A    between atoms: C_15  and  C_2 
REMARK    2  A    between atoms: C_19  and  C_3 
REMARK    3  A    between atoms: C_4  and  C_16 
REMARK       I    between atoms: N_7  and  C_4 
REMARK    4  A    between atoms: C_14  and  N_7 
REMARK    5  A    between atoms: C_8  and  C_9 
REMARK    6  A    between atoms: C_16  and  C_15 
ROOT
ATOM      1  C   UNL d   1      58.926   0.113  29.180  0.00  0.00     0.279 C 
ATOM      2  N   UNL d   1      58.617   0.682  29.689  0.00  0.00    -0.208 NA
ATOM      3  O   UNL d   1      59.338   0.344  28.500  0.00  0.00    -0.265 OA
ENDROOT
BRANCH   1   4
ATOM      4  C   UNL d   1      58.827  -0.691  29.346  0.00  0.00     0.065 C 
BRANCH   4   5
ATOM      5  C   UNL d   1      58.980  -1.258  28.761  0.00  0.00     0.030 C 
BRANCH   5   6
ATOM      6  C   UNL d   1      59.300  -1.991  28.965  0.00  0.00     0.100 A 
ATOM      7  O   UNL d   1      60.088  -2.133  29.150  0.00  0.00    -0.307 OA
ATOM      8  C   UNL d   1      60.162  -2.935  29.318  0.00  0.00     0.100 A 
ATOM      9  C   UNL d   1      59.407  -3.288  29.234  0.00  0.00     0.027 A 
ATOM     10  C   UNL d   1      58.882  -2.696  29.015  0.00  0.00     0.027 A 
BRANCH   8  11
ATOM     11  C   UNL d   1      60.850  -3.328  29.531  0.00  0.00     0.025 C 
ATOM     12  C   UNL d   1      60.924  -4.141  29.419  0.00  0.00     0.002 C 
ENDBRANCH   8  11
ENDBRANCH   5   6
ENDBRANCH   4   5
ENDBRANCH   1   4
BRANCH   2  13
ATOM     13  C   UNL d   1      58.204   0.441  30.371  0.00  0.00     0.085 A 
ATOM     14  C   UNL d   1      58.597   0.406  31.093  0.00  0.00     0.019 A 
ATOM     15  C   UNL d   1      58.183   0.166  31.770  0.00  0.00     0.005 A 
ATOM     16  C   UNL d   1      57.384  -0.036  31.722  0.00  0.00     0.039 A 
ATOM     17  C   UNL d   1      56.998   0.005  30.979  0.00  0.00     0.005 A 
ATOM     18  C   UNL d   1      57.409   0.242  30.312  0.00  0.00     0.019 A 
BRANCH  16  19
ATOM     19  C   UNL d   1      56.969  -0.274  32.393  0.00  0.00     0.196 C 
ATOM     20  O   UNL d   1      57.147   0.053  33.130  0.00  0.00    -0.287 OA
ATOM     21  C   UNL d   1      56.372  -0.843  32.327  0.00  0.00     0.045 C 
ENDBRANCH  16  19
ENDBRANCH   2  13
TORSDOF 6
ENDMDL
