MODEL 1
REMARK VINA RESULT:     -10.0      0.000      0.000
REMARK  2 active torsions:
REMARK  status: ('A' for Active; 'I' for Inactive)
REMARK    1  A    between atoms: C_3  and  C_1 
REMARK       I    between atoms: N_6  and  C_3 
REMARK    2  A    between atoms: C_9  and  N_7 
ROOT
ATOM      1  C   UNL d   1      53.221  33.160  53.331  0.00  0.00     0.270 C 
ATOM      2  N   UNL d   1      52.495  33.491  53.170  0.00  0.00    -0.269 N 
ATOM      3  N   UNL d   1      50.993  34.157  52.843  0.00  0.00    -0.286 N 
ATOM      4  O   UNL d   1      53.918  33.626  53.245  0.00  0.00    -0.266 OA
ATOM      5  C   UNL d   1      51.802  33.026  53.256  0.00  0.00     0.102 A 
ATOM      6  C   UNL d   1      52.417  34.284  52.920  0.00  0.00     0.102 A 
ATOM      7  C   UNL d   1      51.056  33.372  53.089  0.00  0.00     0.101 A 
ATOM      8  C   UNL d   1      51.686  34.621  52.757  0.00  0.00     0.101 A 
ENDROOT
BRANCH   1   9
ATOM      9  C   UNL d   1      53.286  32.359  53.582  0.00  0.00     0.120 A 
ATOM     10  C   UNL d   1      53.566  32.188  54.363  0.00  0.00     0.305 A 
ATOM     11  O   UNL d   1      53.629  31.408  54.604  0.00  0.00    -0.273 OA
ATOM     12  O   UNL d   1      53.777  32.819  54.882  0.00  0.00    -0.259 OA
ATOM     13  C   UNL d   1      53.426  30.787  54.106  0.00  0.00     0.103 A 
ATOM     14  C   UNL d   1      53.146  30.958  53.325  0.00  0.00     0.023 A 
ATOM     15  C   UNL d   1      53.488  30.000  54.346  0.00  0.00     0.025 A 
ATOM     16  C   UNL d   1      53.084  31.741  53.085  0.00  0.00     0.012 A 
ATOM     17  C   UNL d   1      52.943  30.334  52.827  0.00  0.00     0.002 A 
ATOM     18  C   UNL d   1      53.005  29.559  53.068  0.00  0.00     0.000 A 
ATOM     19  C   UNL d   1      53.285  29.387  53.849  0.00  0.00     0.002 A 
ENDBRANCH   1   9
BRANCH   3  20
ATOM     20  C   UNL d   1      50.258  34.487  52.682  0.00  0.00     0.148 A 
ATOM     21  N   UNL d   1      49.848  34.904  53.283  0.00  0.00    -0.227 NA
ATOM     22  C   UNL d   1      49.102  35.242  53.131  0.00  0.00     0.101 A 
ATOM     23  C   UNL d   1      48.774  35.159  52.373  0.00  0.00     0.021 A 
ATOM     24  C   UNL d   1      49.185  34.741  51.772  0.00  0.00     0.005 A 
ATOM     25  C   UNL d   1      49.920  34.411  51.933  0.00  0.00     0.037 A 
ENDBRANCH   3  20
TORSDOF 2
ENDMDL
MODEL 2
REMARK VINA RESULT:      -8.2      1.453      2.302
REMARK  2 active torsions:
REMARK  status: ('A' for Active; 'I' for Inactive)
REMARK    1  A    between atoms: C_3  and  C_1 
REMARK       I    between atoms: N_6  and  C_3 
REMARK    2  A    between atoms: C_9  and  N_7 
ROOT
ATOM      1  C   UNL d   1      52.080  33.443  52.487  0.00  0.00     0.270 C 
ATOM      2  N   UNL d   1      51.389  33.862  52.586  0.00  0.00    -0.269 N 
ATOM      3  N   UNL d   1      49.970  34.725  52.807  0.00  0.00    -0.286 N 
ATOM      4  O   UNL d   1      52.304  33.190  51.714  0.00  0.00    -0.266 OA
ATOM      5  C   UNL d   1      51.166  34.113  53.354  0.00  0.00     0.102 A 
ATOM      6  C   UNL d   1      50.891  34.051  51.943  0.00  0.00     0.102 A 
ATOM      7  C   UNL d   1      50.453  34.544  53.452  0.00  0.00     0.101 A 
ATOM      8  C   UNL d   1      50.193  34.474  52.039  0.00  0.00     0.101 A 
ENDROOT
BRANCH   1   9
ATOM      9  C   UNL d   1      52.573  33.258  53.143  0.00  0.00     0.120 A 
ATOM     10  C   UNL d   1      52.615  32.460  53.423  0.00  0.00     0.305 A 
ATOM     11  O   UNL d   1      53.095  32.283  54.062  0.00  0.00    -0.273 OA
ATOM     12  O   UNL d   1      52.163  31.857  53.042  0.00  0.00    -0.259 OA
ATOM     13  C   UNL d   1      53.538  32.864  54.438  0.00  0.00     0.103 A 
ATOM     14  C   UNL d   1      53.497  33.662  54.159  0.00  0.00     0.023 A 
ATOM     15  C   UNL d   1      54.024  32.689  55.082  0.00  0.00     0.025 A 
ATOM     16  C   UNL d   1      53.014  33.837  53.518  0.00  0.00     0.012 A 
ATOM     17  C   UNL d   1      53.942  34.243  54.538  0.00  0.00     0.002 A 
ATOM     18  C   UNL d   1      54.420  34.066  55.173  0.00  0.00     0.000 A 
ATOM     19  C   UNL d   1      54.462  33.267  55.453  0.00  0.00     0.002 A 
ENDBRANCH   1   9
BRANCH   3  20
ATOM     20  C   UNL d   1      49.274  35.148  52.912  0.00  0.00     0.148 A 
ATOM     21  N   UNL d   1      49.145  35.568  53.627  0.00  0.00    -0.227 NA
ATOM     22  C   UNL d   1      48.443  36.000  53.744  0.00  0.00     0.101 A 
ATOM     23  C   UNL d   1      47.874  36.006  53.140  0.00  0.00     0.021 A 
ATOM     24  C   UNL d   1      48.003  35.586  52.425  0.00  0.00     0.005 A 
ATOM     25  C   UNL d   1      48.699  35.163  52.320  0.00  0.00     0.037 A 
ENDBRANCH   3  20
TORSDOF 2
ENDMDL
MODEL 3
REMARK VINA RESULT:      -8.1      1.370      4.726
REMARK  2 active torsions:
REMARK  status: ('A' for Active; 'I' for Inactive)
REMARK    1  A    between atoms: C_3  and  C_1 
REMARK       I    between atoms: N_6  and  C_3 
REMARK    2  A    between atoms: C_9  and  N_7 
ROOT
ATOM      1  C   UNL d   1      52.092  34.200  52.763  0.00  0.00     0.270 C 
ATOM      2  N   UNL d   1      52.311  33.430  52.909  0.00  0.00    -0.269 N 
ATOM      3  N   UNL d   1      52.742  31.839  53.208  0.00  0.00    -0.286 N 
ATOM      4  O   UNL d   1      52.685  34.798  52.723  0.00  0.00    -0.266 OA
ATOM      5  C   UNL d   1      51.720  32.835  52.948  0.00  0.00     0.102 A 
ATOM      6  C   UNL d   1      53.108  33.210  53.021  0.00  0.00     0.102 A 
ATOM      7  C   UNL d   1      51.950  32.042  53.099  0.00  0.00     0.101 A 
ATOM      8  C   UNL d   1      53.332  32.434  53.169  0.00  0.00     0.101 A 
ENDROOT
BRANCH   1   9
ATOM      9  C   UNL d   1      51.285  34.409  52.651  0.00  0.00     0.120 A 
ATOM     10  C   UNL d   1      50.872  34.823  53.263  0.00  0.00     0.305 A 
ATOM     11  O   UNL d   1      50.086  35.024  53.152  0.00  0.00    -0.273 OA
ATOM     12  O   UNL d   1      51.272  35.023  53.979  0.00  0.00    -0.259 OA
ATOM     13  C   UNL d   1      49.689  34.833  52.458  0.00  0.00     0.103 A 
ATOM     14  C   UNL d   1      50.102  34.419  51.846  0.00  0.00     0.023 A 
ATOM     15  C   UNL d   1      48.897  35.035  52.343  0.00  0.00     0.025 A 
ATOM     16  C   UNL d   1      50.890  34.218  51.960  0.00  0.00     0.012 A 
ATOM     17  C   UNL d   1      49.701  34.229  51.151  0.00  0.00     0.002 A 
ATOM     18  C   UNL d   1      48.920  34.430  51.041  0.00  0.00     0.000 A 
ATOM     19  C   UNL d   1      48.507  34.844  51.654  0.00  0.00     0.002 A 
ENDBRANCH   1   9
BRANCH   3  20
ATOM     20  C   UNL d   1      52.957  31.060  53.355  0.00  0.00     0.148 A 
ATOM     21  N   UNL d   1      53.433  30.878  54.022  0.00  0.00    -0.227 NA
ATOM     22  C   UNL d   1      53.657  30.091  54.181  0.00  0.00     0.101 A 
ATOM     23  C   UNL d   1      53.401  29.493  53.667  0.00  0.00     0.021 A 
ATOM     24  C   UNL d   1      52.925  29.675  53.000  0.00  0.00     0.005 A 
ATOM     25  C   UNL d   1      52.709  30.454  52.853  0.00  0.00     0.037 A 
ENDBRANCH   3  20
TORSDOF 2
ENDMDL
