MODEL 1
REMARK VINA RESULT:      26.5      0.000      0.000
REMARK  6 active torsions:
REMARK  status: ('A' for Active; 'I' for Inactive)
REMARK    1  A    between atoms: C_3  and  N_1 
REMARK       I    between atoms: C_2  and  N_5 
REMARK       I    between atoms: N_10  and  C_2 
REMARK    2  A    between atoms: N_5  and  C_8 
REMARK    3  A    between atoms: C_17  and  N_10 
REMARK    4  A    between atoms: O_18  and  C_11 
REMARK    5  A    between atoms: C_12  and  C_22 
REMARK    6  A    between atoms: C_22  and  C_17 
ROOT
ATOM      1  C   UNL d   1      45.264 -17.125  38.968  0.00  0.00     0.369 C 
ATOM      2  N   UNL d   1      44.662 -16.615  38.717  0.00  0.00    -0.191 NA
ATOM      3  O   UNL d   1      45.882 -17.312  38.451  0.00  0.00    -0.242 OA
ATOM      4  N   UNL d   1      45.245 -17.438  39.718  0.00  0.00    -0.189 NA
ENDROOT
BRANCH   2   5
ATOM      5  C   UNL d   1      44.679 -16.296  37.957  0.00  0.00     0.088 A 
ATOM      6  C   UNL d   1      45.247 -15.741  37.755  0.00  0.00     0.043 A 
ATOM      7  C   UNL d   1      45.269 -15.422  37.005  0.00  0.00     0.128 A 
ATOM      8  C   UNL d   1      44.714 -15.659  36.439  0.00  0.00     0.024 A 
ATOM      9  C   UNL d   1      44.140 -16.218  36.638  0.00  0.00     0.003 A 
ATOM     10  C   UNL d   1      44.122 -16.537  37.399  0.00  0.00     0.019 A 
BRANCH   7  11
ATOM     11  N   UNL d   1      45.843 -14.862  36.802  0.00  0.00    -0.114 N 
ATOM     12  O   UNL d   1      45.775 -14.088  37.066  0.00  0.00    -0.532 OA
ATOM     13  O   UNL d   1      46.480 -15.083  36.337  0.00  0.00    -0.532 OA
ENDBRANCH   7  11
ENDBRANCH   2   5
BRANCH   4  14
ATOM     14  C   UNL d   1      45.847 -17.948  39.968  0.00  0.00     0.104 C 
BRANCH  14  15
ATOM     15  C   UNL d   1      46.251 -17.799  40.672  0.00  0.00     0.021 C 
BRANCH  15  16
ATOM     16  C   UNL d   1      46.292 -18.376  41.251  0.00  0.00     0.002 A 
ATOM     17  C   UNL d   1      46.019 -18.214  42.008  0.00  0.00     0.002 A 
ATOM     18  C   UNL d   1      46.059 -18.796  42.597  0.00  0.00     0.024 A 
ATOM     19  C   UNL d   1      46.372 -19.531  42.415  0.00  0.00     0.094 A 
ATOM     20  C   UNL d   1      46.643 -19.692  41.662  0.00  0.00     0.024 A 
ATOM     21  C   UNL d   1      46.604 -19.111  41.073  0.00  0.00     0.002 A 
BRANCH  19  22
ATOM     22  O   UNL d   1      46.412 -20.112  42.999  0.00  0.00    -0.328 OA
ATOM     23  C   UNL d   1      46.308 -19.907  43.791  0.00  0.00     0.181 C 
ENDBRANCH  19  22
ENDBRANCH  15  16
ENDBRANCH  14  15
ENDBRANCH   4  14
TORSDOF 6
ENDMDL
MODEL 2
REMARK VINA RESULT:      28.7      1.406      5.929
REMARK  6 active torsions:
REMARK  status: ('A' for Active; 'I' for Inactive)
REMARK    1  A    between atoms: C_3  and  N_1 
REMARK       I    between atoms: C_2  and  N_5 
REMARK       I    between atoms: N_10  and  C_2 
REMARK    2  A    between atoms: N_5  and  C_8 
REMARK    3  A    between atoms: C_17  and  N_10 
REMARK    4  A    between atoms: O_18  and  C_11 
REMARK    5  A    between atoms: C_12  and  C_22 
REMARK    6  A    between atoms: C_22  and  C_17 
ROOT
ATOM      1  C   UNL d   1      46.095 -17.912  40.348  0.00  0.00     0.369 C 
ATOM      2  N   UNL d   1      46.643 -18.021  40.959  0.00  0.00    -0.191 NA
ATOM      3  O   UNL d   1      45.492 -18.468  40.236  0.00  0.00    -0.242 OA
ATOM      4  N   UNL d   1      46.152 -17.263  39.862  0.00  0.00    -0.189 NA
ENDROOT
BRANCH   2   5
ATOM      5  C   UNL d   1      46.587 -18.679  41.453  0.00  0.00     0.088 A 
ATOM      6  C   UNL d   1      46.473 -18.582  42.259  0.00  0.00     0.043 A 
ATOM      7  C   UNL d   1      46.418 -19.229  42.751  0.00  0.00     0.128 A 
ATOM      8  C   UNL d   1      46.476 -19.993  42.439  0.00  0.00     0.024 A 
ATOM      9  C   UNL d   1      46.591 -20.095  41.628  0.00  0.00     0.003 A 
ATOM     10  C   UNL d   1      46.647 -19.437  41.134  0.00  0.00     0.019 A 
BRANCH   7  11
ATOM     11  N   UNL d   1      46.302 -19.130  43.565  0.00  0.00    -0.114 N 
ATOM     12  O   UNL d   1      46.369 -18.385  43.903  0.00  0.00    -0.532 OA
ATOM     13  O   UNL d   1      46.121 -19.779  44.031  0.00  0.00    -0.532 OA
ENDBRANCH   7  11
ENDBRANCH   2   5
BRANCH   4  14
ATOM     14  C   UNL d   1      45.604 -17.155  39.252  0.00  0.00     0.104 C 
BRANCH  14  15
ATOM     15  C   UNL d   1      45.846 -16.839  38.528  0.00  0.00     0.021 C 
BRANCH  15  16
ATOM     16  C   UNL d   1      45.301 -16.475  38.037  0.00  0.00     0.002 A 
ATOM     17  C   UNL d   1      44.499 -16.616  38.142  0.00  0.00     0.002 A 
ATOM     18  C   UNL d   1      43.945 -16.249  37.647  0.00  0.00     0.024 A 
ATOM     19  C   UNL d   1      44.206 -15.746  37.055  0.00  0.00     0.094 A 
ATOM     20  C   UNL d   1      45.004 -15.606  36.951  0.00  0.00     0.024 A 
ATOM     21  C   UNL d   1      45.558 -15.973  37.445  0.00  0.00     0.002 A 
BRANCH  19  22
ATOM     22  O   UNL d   1      43.657 -15.380  36.561  0.00  0.00    -0.328 OA
ATOM     23  C   UNL d   1      42.911 -15.715  36.455  0.00  0.00     0.181 C 
ENDBRANCH  19  22
ENDBRANCH  15  16
ENDBRANCH  14  15
ENDBRANCH   4  14
TORSDOF 6
ENDMDL
