MODEL 1
REMARK VINA RESULT:      51.9      0.000      0.000
REMARK  5 active torsions:
REMARK  status: ('A' for Active; 'I' for Inactive)
REMARK    1  A    between atoms: C_2  and  C_1 
REMARK    2  A    between atoms: C_5  and  C_2 
REMARK    3  A    between atoms: C_9  and  C_5 
REMARK    4  A    between atoms: O_18  and  C_12 
REMARK    5  A    between atoms: O_19  and  C_14 
ROOT
ATOM      1  C   UNL d   1     -50.748  25.932  33.414  0.00  0.00     0.141 C 
ATOM      2  C   UNL d   1     -49.953  25.705  33.360  0.00  0.00     0.107 C 
ATOM      3  N   UNL d   1     -49.146  25.467  33.306  0.00  0.00    -0.191 NA
ENDROOT
BRANCH   1   4
ATOM      4  C   UNL d   1     -51.339  25.369  33.392  0.00  0.00     0.161 A 
ATOM      5  N   UNL d   1     -51.209  24.537  33.357  0.00  0.00    -0.287 N 
ATOM      6  C   UNL d   1     -51.961  24.171  33.344  0.00  0.00     0.083 A 
ATOM      7  C   UNL d   1     -50.480  24.165  33.339  0.00  0.00     0.101 C 
ATOM      8  C   UNL d   1     -52.203  23.393  33.312  0.00  0.00     0.019 A 
ATOM      9  C   UNL d   1     -52.538  24.776  33.371  0.00  0.00     0.099 A 
ATOM     10  C   UNL d   1     -52.994  23.188  33.306  0.00  0.00     0.002 A 
ATOM     11  C   UNL d   1     -53.571  23.794  33.333  0.00  0.00     0.002 A 
ATOM     12  C   UNL d   1     -53.342  24.589  33.366  0.00  0.00     0.021 A 
ATOM     13  N   UNL d   1     -52.132  25.506  33.400  0.00  0.00    -0.226 NA
ENDBRANCH   1   4
BRANCH   1  14
ATOM     14  C   UNL d   1     -50.935  26.732  33.488  0.00  0.00     0.208 C 
ATOM     15  O   UNL d   1     -51.696  26.981  33.308  0.00  0.00    -0.286 OA
BRANCH  14  16
ATOM     16  C   UNL d   1     -50.368  27.269  33.740  0.00  0.00     0.042 A 
ATOM     17  C   UNL d   1     -49.890  27.102  34.387  0.00  0.00     0.029 A 
ATOM     18  C   UNL d   1     -49.327  27.636  34.637  0.00  0.00     0.116 A 
ATOM     19  C   UNL d   1     -49.226  28.351  34.246  0.00  0.00     0.116 A 
ATOM     20  C   UNL d   1     -49.705  28.521  33.595  0.00  0.00     0.026 A 
ATOM     21  C   UNL d   1     -50.268  27.987  33.346  0.00  0.00     0.005 A 
BRANCH  18  22
ATOM     22  O   UNL d   1     -48.866  27.447  35.282  0.00  0.00    -0.326 OA
ATOM     23  C   UNL d   1     -48.768  27.988  35.915  0.00  0.00     0.181 C 
ENDBRANCH  18  22
BRANCH  19  24
ATOM     24  O   UNL d   1     -48.666  28.883  34.494  0.00  0.00    -0.326 OA
ATOM     25  C   UNL d   1     -48.852  29.693  34.548  0.00  0.00     0.181 C 
ENDBRANCH  19  24
ENDBRANCH  14  16
ENDBRANCH   1  14
TORSDOF 5
ENDMDL
