MODEL 1
REMARK VINA RESULT:     -10.8      0.000      0.000
REMARK  4 active torsions:
REMARK  status: ('A' for Active; 'I' for Inactive)
REMARK    1  A    between atoms: N_2  and  S_1 
REMARK    2  A    between atoms: C_5  and  S_1 
REMARK    3  A    between atoms: C_4  and  C_3 
REMARK    4  A    between atoms: C_12  and  C_3 
ROOT
ATOM      1  N   UNL d   1      53.099  31.610  53.226  0.00  0.00    -0.230 N 
ATOM      2  C   UNL d   1      53.300  33.163  53.745  0.00  0.00     0.137 A 
ATOM      3  C   UNL d   1      52.557  32.882  53.550  0.00  0.00     0.011 A 
ATOM      4  C   UNL d   1      53.951  32.658  53.679  0.00  0.00     0.011 A 
ATOM      5  C   UNL d   1      53.850  31.881  53.419  0.00  0.00     0.088 A 
ATOM      6  C   UNL d   1      52.457  32.105  53.290  0.00  0.00     0.088 A 
ENDROOT
BRANCH   1   7
ATOM      7  S   UNL d   1      52.998  30.833  52.966  0.00  0.00     0.271 S 
ATOM      8  O   UNL d   1      52.792  30.684  52.183  0.00  0.00    -0.200 OA
ATOM      9  O   UNL d   1      52.852  31.307  52.310  0.00  0.00    -0.200 OA
BRANCH   7  10
ATOM     10  C   UNL d   1      53.103  30.207  53.490  0.00  0.00     0.104 A 
ATOM     11  C   UNL d   1      52.488  29.970  53.972  0.00  0.00     0.013 A 
ATOM     12  C   UNL d   1      52.586  29.341  54.501  0.00  0.00     0.001 A 
ATOM     13  C   UNL d   1      53.323  28.951  54.536  0.00  0.00     0.000 A 
ATOM     14  C   UNL d   1      53.939  29.196  54.046  0.00  0.00     0.001 A 
ATOM     15  C   UNL d   1      53.421  28.321  55.065  0.00  0.00     0.000 C 
ATOM     16  C   UNL d   1      53.828  29.820  53.527  0.00  0.00     0.013 A 
ENDBRANCH   7  10
ENDBRANCH   1   7
BRANCH   2  17
ATOM     17  C   UNL d   1      54.125  33.171  53.866  0.00  0.00     0.196 C 
ATOM     18  O   UNL d   1      54.634  33.364  53.255  0.00  0.00    -0.647 OA
ATOM     19  O   UNL d   1      54.428  32.980  54.611  0.00  0.00    -0.647 OA
ENDBRANCH   2  17
BRANCH   2  20
ATOM     20  C   UNL d   1      53.198  33.948  53.979  0.00  0.00    -0.005 A 
ATOM     21  C   UNL d   1      53.062  34.520  53.403  0.00  0.00    -0.003 A 
ATOM     22  C   UNL d   1      52.958  35.309  53.630  0.00  0.00    -0.000 A 
ATOM     23  C   UNL d   1      52.990  35.524  54.429  0.00  0.00    -0.000 A 
ATOM     24  C   UNL d   1      53.127  34.939  55.001  0.00  0.00    -0.000 A 
ATOM     25  C   UNL d   1      53.229  34.160  54.772  0.00  0.00    -0.003 A 
ENDBRANCH   2  20
TORSDOF 4
ENDMDL
MODEL 2
REMARK VINA RESULT:     -10.6      2.273      3.404
REMARK  4 active torsions:
REMARK  status: ('A' for Active; 'I' for Inactive)
REMARK    1  A    between atoms: N_2  and  S_1 
REMARK    2  A    between atoms: C_5  and  S_1 
REMARK    3  A    between atoms: C_4  and  C_3 
REMARK    4  A    between atoms: C_12  and  C_3 
ROOT
ATOM      1  N   UNL d   1      52.386  32.913  53.171  0.00  0.00    -0.230 N 
ATOM      2  C   UNL d   1      51.132  33.877  52.700  0.00  0.00     0.137 A 
ATOM      3  C   UNL d   1      51.010  33.258  53.222  0.00  0.00     0.011 A 
ATOM      4  C   UNL d   1      51.894  34.013  52.412  0.00  0.00     0.011 A 
ATOM      5  C   UNL d   1      52.521  33.532  52.647  0.00  0.00     0.088 A 
ATOM      6  C   UNL d   1      51.637  32.777  53.457  0.00  0.00     0.088 A 
ENDROOT
BRANCH   1   7
ATOM      7  S   UNL d   1      53.013  32.432  53.407  0.00  0.00     0.271 S 
ATOM      8  O   UNL d   1      53.044  31.647  53.162  0.00  0.00    -0.200 OA
ATOM      9  O   UNL d   1      52.531  31.955  52.941  0.00  0.00    -0.200 OA
BRANCH   7  10
ATOM     10  C   UNL d   1      53.609  32.736  53.887  0.00  0.00     0.104 A 
ATOM     11  C   UNL d   1      54.325  32.954  53.561  0.00  0.00     0.013 A 
ATOM     12  C   UNL d   1      54.928  33.261  54.036  0.00  0.00     0.001 A 
ATOM     13  C   UNL d   1      54.796  33.345  54.856  0.00  0.00     0.000 A 
ATOM     14  C   UNL d   1      54.070  33.123  55.178  0.00  0.00     0.001 A 
ATOM     15  C   UNL d   1      55.400  33.652  55.333  0.00  0.00     0.000 C 
ATOM     16  C   UNL d   1      53.481  32.820  54.695  0.00  0.00     0.013 A 
ENDBRANCH   7  10
ENDBRANCH   1   7
BRANCH   2  17
ATOM     17  C   UNL d   1      51.533  34.399  52.189  0.00  0.00     0.196 C 
ATOM     18  O   UNL d   1      51.580  34.244  51.387  0.00  0.00    -0.647 OA
ATOM     19  O   UNL d   1      51.885  35.079  52.500  0.00  0.00    -0.647 OA
ENDBRANCH   2  17
BRANCH   2  20
ATOM     20  C   UNL d   1      50.397  34.235  52.589  0.00  0.00    -0.005 A 
ATOM     21  C   UNL d   1      50.105  34.737  53.172  0.00  0.00    -0.003 A 
ATOM     22  C   UNL d   1      49.369  35.099  53.067  0.00  0.00    -0.000 A 
ATOM     23  C   UNL d   1      48.927  34.960  52.381  0.00  0.00    -0.000 A 
ATOM     24  C   UNL d   1      49.230  34.452  51.798  0.00  0.00    -0.000 A 
ATOM     25  C   UNL d   1      49.959  34.096  51.907  0.00  0.00    -0.003 A 
ENDBRANCH   2  20
TORSDOF 4
ENDMDL
MODEL 3
REMARK VINA RESULT:      -9.7      1.290      4.323
REMARK  4 active torsions:
REMARK  status: ('A' for Active; 'I' for Inactive)
REMARK    1  A    between atoms: N_2  and  S_1 
REMARK    2  A    between atoms: C_5  and  S_1 
REMARK    3  A    between atoms: C_4  and  C_3 
REMARK    4  A    between atoms: C_12  and  C_3 
ROOT
ATOM      1  N   UNL d   1      53.101  32.364  53.335  0.00  0.00    -0.230 N 
ATOM      2  C   UNL d   1      53.186  30.755  53.688  0.00  0.00     0.137 A 
ATOM      3  C   UNL d   1      53.533  31.309  54.180  0.00  0.00     0.011 A 
ATOM      4  C   UNL d   1      52.791  31.013  53.010  0.00  0.00     0.011 A 
ATOM      5  C   UNL d   1      52.749  31.817  52.834  0.00  0.00     0.088 A 
ATOM      6  C   UNL d   1      53.491  32.114  54.004  0.00  0.00     0.088 A 
ENDROOT
BRANCH   1   7
ATOM      7  S   UNL d   1      53.058  33.169  53.158  0.00  0.00     0.271 S 
ATOM      8  O   UNL d   1      53.748  33.610  53.074  0.00  0.00    -0.200 OA
ATOM      9  O   UNL d   1      53.860  32.997  53.210  0.00  0.00    -0.200 OA
BRANCH   7  10
ATOM     10  C   UNL d   1      52.325  33.532  53.066  0.00  0.00     0.104 A 
ATOM     11  C   UNL d   1      51.866  33.699  53.721  0.00  0.00     0.013 A 
ATOM     12  C   UNL d   1      51.128  34.063  53.637  0.00  0.00     0.001 A 
ATOM     13  C   UNL d   1      50.858  34.260  52.872  0.00  0.00     0.000 A 
ATOM     14  C   UNL d   1      51.327  34.089  52.215  0.00  0.00     0.001 A 
ATOM     15  C   UNL d   1      50.119  34.625  52.787  0.00  0.00     0.000 C 
ATOM     16  C   UNL d   1      52.056  33.728  52.314  0.00  0.00     0.013 A 
ENDBRANCH   7  10
ENDBRANCH   1   7
BRANCH   2  17
ATOM     17  C   UNL d   1      52.764  30.441  53.042  0.00  0.00     0.196 C 
ATOM     18  O   UNL d   1      53.141  30.289  52.332  0.00  0.00    -0.647 OA
ATOM     19  O   UNL d   1      51.957  30.283  53.123  0.00  0.00    -0.647 OA
ENDBRANCH   2  17
BRANCH   2  20
ATOM     20  C   UNL d   1      53.334  30.017  54.028  0.00  0.00    -0.005 A 
ATOM     21  C   UNL d   1      52.899  29.788  54.688  0.00  0.00    -0.003 A 
ATOM     22  C   UNL d   1      53.042  29.050  55.034  0.00  0.00    -0.000 A 
ATOM     23  C   UNL d   1      53.619  28.545  54.720  0.00  0.00    -0.000 A 
ATOM     24  C   UNL d   1      54.052  28.786  54.055  0.00  0.00    -0.000 A 
ATOM     25  C   UNL d   1      53.907  29.517  53.717  0.00  0.00    -0.003 A 
ENDBRANCH   2  20
TORSDOF 4
ENDMDL
MODEL 4
REMARK VINA RESULT:      -9.4      1.683      2.089
REMARK  4 active torsions:
REMARK  status: ('A' for Active; 'I' for Inactive)
REMARK    1  A    between atoms: N_2  and  S_1 
REMARK    2  A    between atoms: C_5  and  S_1 
REMARK    3  A    between atoms: C_4  and  C_3 
REMARK    4  A    between atoms: C_12  and  C_3 
ROOT
ATOM      1  N   UNL d   1      53.209  32.437  53.324  0.00  0.00    -0.230 N 
ATOM      2  C   UNL d   1      51.973  33.486  53.015  0.00  0.00     0.137 A 
ATOM      3  C   UNL d   1      52.008  32.760  52.639  0.00  0.00     0.011 A 
ATOM      4  C   UNL d   1      52.567  33.688  53.553  0.00  0.00     0.011 A 
ATOM      5  C   UNL d   1      53.185  33.164  53.707  0.00  0.00     0.088 A 
ATOM      6  C   UNL d   1      52.626  32.236  52.793  0.00  0.00     0.088 A 
ENDROOT
BRANCH   1   7
ATOM      7  S   UNL d   1      53.827  31.913  53.478  0.00  0.00     0.271 S 
ATOM      8  O   UNL d   1      54.606  32.146  53.353  0.00  0.00    -0.200 OA
ATOM      9  O   UNL d   1      54.185  32.604  53.212  0.00  0.00    -0.200 OA
BRANCH   7  10
ATOM     10  C   UNL d   1      53.665  31.155  53.757  0.00  0.00     0.104 A 
ATOM     11  C   UNL d   1      53.586  31.023  54.559  0.00  0.00     0.013 A 
ATOM     12  C   UNL d   1      53.423  30.265  54.847  0.00  0.00     0.001 A 
ATOM     13  C   UNL d   1      53.339  29.635  54.306  0.00  0.00     0.000 A 
ATOM     14  C   UNL d   1      53.420  29.776  53.497  0.00  0.00     0.001 A 
ATOM     15  C   UNL d   1      53.176  28.875  54.594  0.00  0.00     0.000 C 
ATOM     16  C   UNL d   1      53.582  30.532  53.226  0.00  0.00     0.013 A 
ENDBRANCH   7  10
ENDBRANCH   1   7
BRANCH   2  17
ATOM     17  C   UNL d   1      52.188  34.116  53.517  0.00  0.00     0.196 C 
ATOM     18  O   UNL d   1      52.610  34.754  53.228  0.00  0.00    -0.647 OA
ATOM     19  O   UNL d   1      51.970  34.092  54.314  0.00  0.00    -0.647 OA
ENDBRANCH   2  17
BRANCH   2  20
ATOM     20  C   UNL d   1      51.293  33.861  52.734  0.00  0.00    -0.005 A 
ATOM     21  C   UNL d   1      51.296  34.172  51.972  0.00  0.00    -0.003 A 
ATOM     22  C   UNL d   1      50.618  34.549  51.684  0.00  0.00    -0.000 A 
ATOM     23  C   UNL d   1      49.942  34.614  52.157  0.00  0.00    -0.000 A 
ATOM     24  C   UNL d   1      49.950  34.297  52.923  0.00  0.00    -0.000 A 
ATOM     25  C   UNL d   1      50.622  33.925  53.204  0.00  0.00    -0.003 A 
ENDBRANCH   2  20
TORSDOF 4
ENDMDL
