MODEL 1
REMARK VINA RESULT:      47.6      0.000      0.000
REMARK  6 active torsions:
REMARK  status: ('A' for Active; 'I' for Inactive)
REMARK    1  A    between atoms: C_7  and  N_1 
REMARK    2  A    between atoms: S_10  and  C_2 
REMARK    3  A    between atoms: C_22  and  S_10 
REMARK    4  A    between atoms: C_13  and  C_22 
REMARK       I    between atoms: N_17  and  C_13 
REMARK    5  A    between atoms: C_14  and  C_23 
REMARK    6  A    between atoms: C_23  and  N_17 
ROOT
ATOM      1  N   UNL d   1     -58.354 -98.788 -44.310  0.00  0.00    -0.254 N 
ATOM      2  C   UNL d   1     -57.548 -98.793 -44.494  0.00  0.00     0.183 A 
ATOM      3  N   UNL d   1     -57.299 -98.787 -45.278  0.00  0.00    -0.201 NA
ATOM      4  C   UNL d   1     -58.906 -98.776 -44.929  0.00  0.00     0.271 A 
ATOM      5  C   UNL d   1     -58.652 -98.770 -45.705  0.00  0.00     0.115 A 
ATOM      6  C   UNL d   1     -57.851 -98.775 -45.882  0.00  0.00     0.192 A 
ATOM      7  N   UNL d   1     -58.525 -98.757 -47.027  0.00  0.00    -0.145 NA
ATOM      8  N   UNL d   1     -57.773 -98.767 -46.701  0.00  0.00    -0.128 NA
ATOM      9  C   UNL d   1     -59.077 -98.758 -46.412  0.00  0.00     0.130 A 
ATOM     10  O   UNL d   1     -59.714 -98.770 -44.749  0.00  0.00    -0.266 OA
ENDROOT
BRANCH   2  11
ATOM     11  S   UNL d   1     -56.986 -98.805 -43.882  0.00  0.00    -0.044 SA
BRANCH  11  12
ATOM     12  C   UNL d   1     -56.192 -98.930 -44.060  0.00  0.00     0.101 C 
BRANCH  12  13
ATOM     13  C   UNL d   1     -55.965 -99.585 -44.508  0.00  0.00     0.286 C 
ATOM     14  N   UNL d   1     -55.167 -99.809 -44.530  0.00  0.00    -0.204 NA
ATOM     15  O   UNL d   1     -56.525-100.017 -44.935  0.00  0.00    -0.265 OA
BRANCH  14  16
ATOM     16  C   UNL d   1     -54.937-100.464 -44.977  0.00  0.00     0.127 C 
BRANCH  16  17
ATOM     17  C   UNL d   1     -54.978-101.222 -44.647  0.00  0.00     0.119 A 
ATOM     18  O   UNL d   1     -55.276-101.894 -45.006  0.00  0.00    -0.304 OA
ATOM     19  C   UNL d   1     -55.209-102.526 -44.480  0.00  0.00     0.123 A 
ATOM     20  C   UNL d   1     -54.868-102.244 -43.792  0.00  0.00     0.029 A 
ATOM     21  C   UNL d   1     -54.722-101.443 -43.887  0.00  0.00     0.028 A 
ENDBRANCH  16  17
ENDBRANCH  14  16
ENDBRANCH  12  13
ENDBRANCH  11  12
ENDBRANCH   2  11
BRANCH   1  22
ATOM     22  C   UNL d   1     -58.602 -98.794 -43.531  0.00  0.00     0.075 A 
ATOM     23  C   UNL d   1     -59.411 -98.839 -43.356  0.00  0.00     0.051 A 
ATOM     24 BR   UNL d   1     -59.961 -98.878 -43.964  0.00  0.00    -0.048 Br
ATOM     25  C   UNL d   1     -59.660 -98.845 -42.571  0.00  0.00     0.008 A 
ATOM     26  C   UNL d   1     -59.104 -98.807 -41.960  0.00  0.00     0.001 A 
ATOM     27  C   UNL d   1     -58.298 -98.762 -42.140  0.00  0.00     0.002 A 
ATOM     28  C   UNL d   1     -58.049 -98.755 -42.925  0.00  0.00     0.018 A 
ENDBRANCH   1  22
TORSDOF 6
ENDMDL
