MODEL 1
REMARK VINA RESULT:      -3.1      0.000      0.000
REMARK  8 active torsions:
REMARK  status: ('A' for Active; 'I' for Inactive)
REMARK    1  A    between atoms: C_5  and  C_1 
REMARK    2  A    between atoms: N_6  and  C_2 
REMARK    3  A    between atoms: C_7  and  C_5 
REMARK    4  A    between atoms: C_8  and  C_5 
REMARK    5  A    between atoms: O_13  and  C_7 
REMARK    6  A    between atoms: C_21  and  N_12 
REMARK    7  A    between atoms: C_19  and  O_13 
REMARK    8  A    between atoms: C_20  and  C_19 
ROOT
ATOM      1  C   UNL d   1     -38.885  14.707  18.676  0.00  0.00     0.122 A 
ATOM      2  C   UNL d   1     -39.681  14.778  18.486  0.00  0.00     0.166 A 
ATOM      3  N   UNL d   1     -39.892  14.936  17.708  0.00  0.00    -0.225 NA
ATOM      4  N   UNL d   1     -38.305  14.793  18.095  0.00  0.00    -0.241 NA
ATOM      5  C   UNL d   1     -39.326  15.022  17.128  0.00  0.00     0.101 A 
ATOM      6  C   UNL d   1     -38.526  14.950  17.324  0.00  0.00     0.099 A 
ATOM      7  C   UNL d   1     -37.955  15.036  16.745  0.00  0.00     0.021 A 
ATOM      8  C   UNL d   1     -39.545  15.181  16.349  0.00  0.00     0.021 A 
ATOM      9  C   UNL d   1     -38.966  15.266  15.768  0.00  0.00     0.002 A 
ATOM     10  C   UNL d   1     -38.174  15.194  15.966  0.00  0.00     0.002 A 
ENDROOT
BRANCH   1  11
ATOM     11  C   UNL d   1     -38.653  14.547  19.458  0.00  0.00     0.105 C 
BRANCH  11  12
ATOM     12  C   UNL d   1     -38.381  15.153  19.951  0.00  0.00     0.303 C 
ATOM     13  O   UNL d   1     -38.238  15.894  19.635  0.00  0.00    -0.259 OA
BRANCH  12  14
ATOM     14  O   UNL d   1     -38.259  15.001  20.742  0.00  0.00    -0.271 OA
BRANCH  14  15
ATOM     15  C   UNL d   1     -37.940  15.234  21.459  0.00  0.00     0.126 C 
BRANCH  15  16
ATOM     16  C   UNL d   1     -38.390  15.201  22.142  0.00  0.00     0.025 A 
ATOM     17  C   UNL d   1     -38.701  15.895  22.453  0.00  0.00     0.002 A 
ATOM     18  C   UNL d   1     -39.157  15.865  23.143  0.00  0.00     0.000 A 
ATOM     19  C   UNL d   1     -39.294  15.142  23.510  0.00  0.00     0.000 A 
ATOM     20  C   UNL d   1     -38.977  14.449  23.189  0.00  0.00     0.000 A 
ATOM     21  C   UNL d   1     -38.528  14.482  22.509  0.00  0.00     0.002 A 
ENDBRANCH  15  16
ENDBRANCH  14  15
ENDBRANCH  12  14
ENDBRANCH  11  12
BRANCH  11  22
ATOM     22  C   UNL d   1     -38.697  13.768  19.746  0.00  0.00     0.129 C 
ATOM     23  N   UNL d   1     -37.953  13.175  19.735  0.00  0.00    -0.146 N 
ENDBRANCH  11  22
ENDBRANCH   1  11
BRANCH   2  24
ATOM     24  N   UNL d   1     -40.253  14.692  19.068  0.00  0.00    -0.285 N 
ATOM     25  C   UNL d   1     -40.425  13.950  19.367  0.00  0.00     0.101 A 
ATOM     26  C   UNL d   1     -41.001  13.870  19.953  0.00  0.00     0.100 A 
ATOM     27  N   UNL d   1     -41.401  14.537  20.234  0.00  0.00    -0.300 N 
ATOM     28  C   UNL d   1     -41.224  15.283  19.930  0.00  0.00     0.100 A 
ATOM     29  C   UNL d   1     -40.653  15.359  19.350  0.00  0.00     0.101 A 
BRANCH  27  30
ATOM     30  C   UNL d   1     -41.981  14.452  20.824  0.00  0.00     0.080 C 
ATOM     31  C   UNL d   1     -42.012  13.751  21.262  0.00  0.00     0.021 C 
ENDBRANCH  27  30
ENDBRANCH   2  24
TORSDOF 8
ENDMDL
MODEL 2
REMARK VINA RESULT:      -2.0      1.669      4.534
REMARK  8 active torsions:
REMARK  status: ('A' for Active; 'I' for Inactive)
REMARK    1  A    between atoms: C_5  and  C_1 
REMARK    2  A    between atoms: N_6  and  C_2 
REMARK    3  A    between atoms: C_7  and  C_5 
REMARK    4  A    between atoms: C_8  and  C_5 
REMARK    5  A    between atoms: O_13  and  C_7 
REMARK    6  A    between atoms: C_21  and  N_12 
REMARK    7  A    between atoms: C_19  and  O_13 
REMARK    8  A    between atoms: C_20  and  C_19 
ROOT
ATOM      1  C   UNL d   1     -40.056  14.300  21.038  0.00  0.00     0.122 A 
ATOM      2  C   UNL d   1     -39.342  14.431  20.651  0.00  0.00     0.166 A 
ATOM      3  N   UNL d   1     -38.642  14.224  21.027  0.00  0.00    -0.225 NA
ATOM      4  N   UNL d   1     -40.070  13.967  21.792  0.00  0.00    -0.241 NA
ATOM      5  C   UNL d   1     -38.647  13.894  21.773  0.00  0.00     0.101 A 
ATOM      6  C   UNL d   1     -39.367  13.765  22.158  0.00  0.00     0.099 A 
ATOM      7  C   UNL d   1     -39.376  13.434  22.906  0.00  0.00     0.021 A 
ATOM      8  C   UNL d   1     -37.940  13.689  22.145  0.00  0.00     0.021 A 
ATOM      9  C   UNL d   1     -37.955  13.356  22.899  0.00  0.00     0.002 A 
ATOM     10  C   UNL d   1     -38.670  13.229  23.278  0.00  0.00     0.002 A 
ENDROOT
BRANCH   1  11
ATOM     11  C   UNL d   1     -40.774  14.503  20.671  0.00  0.00     0.105 C 
BRANCH  11  12
ATOM     12  C   UNL d   1     -41.306  13.919  20.429  0.00  0.00     0.303 C 
ATOM     13  O   UNL d   1     -41.144  13.483  19.754  0.00  0.00    -0.259 OA
BRANCH  12  14
ATOM     14  O   UNL d   1     -41.982  13.786  20.864  0.00  0.00    -0.271 OA
BRANCH  14  15
ATOM     15  C   UNL d   1     -42.798  13.745  20.895  0.00  0.00     0.126 C 
BRANCH  15  16
ATOM     16  C   UNL d   1     -43.166  13.170  21.347  0.00  0.00     0.025 A 
ATOM     17  C   UNL d   1     -43.961  13.255  21.537  0.00  0.00     0.002 A 
ATOM     18  C   UNL d   1     -44.336  12.677  21.994  0.00  0.00     0.000 A 
ATOM     19  C   UNL d   1     -43.911  12.022  22.254  0.00  0.00     0.000 A 
ATOM     20  C   UNL d   1     -43.110  11.946  22.057  0.00  0.00     0.000 A 
ATOM     21  C   UNL d   1     -42.744  12.518  21.607  0.00  0.00     0.002 A 
ENDBRANCH  15  16
ENDBRANCH  14  15
ENDBRANCH  12  14
ENDBRANCH  11  12
BRANCH  11  22
ATOM     22  C   UNL d   1     -40.957  15.305  20.548  0.00  0.00     0.129 C 
ATOM     23  N   UNL d   1     -41.583  15.776  21.089  0.00  0.00    -0.146 N 
ENDBRANCH  11  22
ENDBRANCH   1  11
BRANCH   2  24
ATOM     24  N   UNL d   1     -39.335  14.762  19.900  0.00  0.00    -0.285 N 
ATOM     25  C   UNL d   1     -39.417  14.286  19.240  0.00  0.00     0.101 A 
ATOM     26  C   UNL d   1     -39.408  14.626  18.489  0.00  0.00     0.100 A 
ATOM     27  N   UNL d   1     -39.318  15.444  18.405  0.00  0.00    -0.300 N 
ATOM     28  C   UNL d   1     -39.236  15.921  19.073  0.00  0.00     0.100 A 
ATOM     29  C   UNL d   1     -39.245  15.580  19.817  0.00  0.00     0.101 A 
BRANCH  27  30
ATOM     30  C   UNL d   1     -39.310  15.783  17.646  0.00  0.00     0.080 C 
ATOM     31  C   UNL d   1     -39.678  15.384  17.022  0.00  0.00     0.021 C 
ENDBRANCH  27  30
ENDBRANCH   2  24
TORSDOF 8
ENDMDL
MODEL 3
REMARK VINA RESULT:      -1.5      6.895      9.983
REMARK  8 active torsions:
REMARK  status: ('A' for Active; 'I' for Inactive)
REMARK    1  A    between atoms: C_5  and  C_1 
REMARK    2  A    between atoms: N_6  and  C_2 
REMARK    3  A    between atoms: C_7  and  C_5 
REMARK    4  A    between atoms: C_8  and  C_5 
REMARK    5  A    between atoms: O_13  and  C_7 
REMARK    6  A    between atoms: C_21  and  N_12 
REMARK    7  A    between atoms: C_19  and  O_13 
REMARK    8  A    between atoms: C_20  and  C_19 
ROOT
ATOM      1  C   UNL d   1     -47.633  13.094  22.971  0.00  0.00     0.122 A 
ATOM      2  C   UNL d   1     -47.170  12.421  22.878  0.00  0.00     0.166 A 
ATOM      3  N   UNL d   1     -47.505  11.685  23.016  0.00  0.00    -0.225 NA
ATOM      4  N   UNL d   1     -48.423  13.031  23.199  0.00  0.00    -0.241 NA
ATOM      5  C   UNL d   1     -48.285  11.613  23.241  0.00  0.00     0.101 A 
ATOM      6  C   UNL d   1     -48.748  12.292  23.334  0.00  0.00     0.099 A 
ATOM      7  C   UNL d   1     -49.531  12.225  23.560  0.00  0.00     0.021 A 
ATOM      8  C   UNL d   1     -48.616  10.870  23.378  0.00  0.00     0.021 A 
ATOM      9  C   UNL d   1     -49.406  10.808  23.606  0.00  0.00     0.002 A 
ATOM     10  C   UNL d   1     -49.861  11.482  23.696  0.00  0.00     0.002 A 
ENDROOT
BRANCH   1  11
ATOM     11  C   UNL d   1     -47.309  13.848  22.836  0.00  0.00     0.105 C 
BRANCH  11  12
ATOM     12  C   UNL d   1     -47.628  14.349  22.260  0.00  0.00     0.303 C 
ATOM     13  O   UNL d   1     -47.317  14.339  21.503  0.00  0.00    -0.259 OA
BRANCH  12  14
ATOM     14  O   UNL d   1     -48.245  14.843  22.456  0.00  0.00    -0.271 OA
BRANCH  14  15
ATOM     15  C   UNL d   1     -48.721  15.479  22.262  0.00  0.00     0.126 C 
BRANCH  15  16
ATOM     16  C   UNL d   1     -49.465  15.555  22.596  0.00  0.00     0.025 A 
ATOM     17  C   UNL d   1     -50.126  15.337  22.158  0.00  0.00     0.002 A 
ATOM     18  C   UNL d   1     -50.879  15.413  22.491  0.00  0.00     0.000 A 
ATOM     19  C   UNL d   1     -50.960  15.704  23.256  0.00  0.00     0.000 A 
ATOM     20  C   UNL d   1     -50.288  15.920  23.688  0.00  0.00     0.000 A 
ATOM     21  C   UNL d   1     -49.548  15.845  23.357  0.00  0.00     0.002 A 
ENDBRANCH  15  16
ENDBRANCH  14  15
ENDBRANCH  12  14
ENDBRANCH  11  12
BRANCH  11  22
ATOM     22  C   UNL d   1     -46.657  14.099  23.287  0.00  0.00     0.129 C 
ATOM     23  N   UNL d   1     -46.424  15.017  23.384  0.00  0.00    -0.146 N 
ENDBRANCH  11  22
ENDBRANCH   1  11
BRANCH   2  24
ATOM     24  N   UNL d   1     -46.384  12.491  22.651  0.00  0.00    -0.285 N 
ATOM     25  C   UNL d   1     -46.194  12.638  21.869  0.00  0.00     0.101 A 
ATOM     26  C   UNL d   1     -45.403  12.706  21.648  0.00  0.00     0.100 A 
ATOM     27  N   UNL d   1     -44.806  12.626  22.214  0.00  0.00    -0.300 N 
ATOM     28  C   UNL d   1     -45.001  12.478  23.002  0.00  0.00     0.100 A 
ATOM     29  C   UNL d   1     -45.787  12.411  23.218  0.00  0.00     0.101 A 
BRANCH  27  30
ATOM     30  C   UNL d   1     -44.008  12.696  21.987  0.00  0.00     0.080 C 
ATOM     31  C   UNL d   1     -43.828  12.921  21.212  0.00  0.00     0.021 C 
ENDBRANCH  27  30
ENDBRANCH   2  24
TORSDOF 8
ENDMDL
MODEL 4
REMARK VINA RESULT:      -1.5      6.820      9.729
REMARK  8 active torsions:
REMARK  status: ('A' for Active; 'I' for Inactive)
REMARK    1  A    between atoms: C_5  and  C_1 
REMARK    2  A    between atoms: N_6  and  C_2 
REMARK    3  A    between atoms: C_7  and  C_5 
REMARK    4  A    between atoms: C_8  and  C_5 
REMARK    5  A    between atoms: O_13  and  C_7 
REMARK    6  A    between atoms: C_21  and  N_12 
REMARK    7  A    between atoms: C_19  and  O_13 
REMARK    8  A    between atoms: C_20  and  C_19 
ROOT
ATOM      1  C   UNL d   1     -48.516  14.075  22.647  0.00  0.00     0.122 A 
ATOM      2  C   UNL d   1     -48.921  13.448  22.992  0.00  0.00     0.166 A 
ATOM      3  N   UNL d   1     -49.659  13.587  23.325  0.00  0.00    -0.225 NA
ATOM      4  N   UNL d   1     -48.843  14.832  22.636  0.00  0.00    -0.241 NA
ATOM      5  C   UNL d   1     -49.990  14.331  23.318  0.00  0.00     0.101 A 
ATOM      6  C   UNL d   1     -49.579  14.959  22.970  0.00  0.00     0.099 A 
ATOM      7  C   UNL d   1     -49.907  15.707  22.961  0.00  0.00     0.021 A 
ATOM      8  C   UNL d   1     -50.731  14.463  23.654  0.00  0.00     0.021 A 
ATOM      9  C   UNL d   1     -51.059  15.220  23.643  0.00  0.00     0.002 A 
ATOM     10  C   UNL d   1     -50.649  15.840  23.298  0.00  0.00     0.002 A 
ENDROOT
BRANCH   1  11
ATOM     11  C   UNL d   1     -47.768  13.952  22.305  0.00  0.00     0.105 C 
BRANCH  11  12
ATOM     12  C   UNL d   1     -47.099  14.342  22.598  0.00  0.00     0.303 C 
ATOM     13  O   UNL d   1     -47.187  15.069  22.964  0.00  0.00    -0.259 OA
BRANCH  12  14
ATOM     14  O   UNL d   1     -46.366  13.996  22.516  0.00  0.00    -0.271 OA
BRANCH  14  15
ATOM     15  C   UNL d   1     -45.563  14.014  22.668  0.00  0.00     0.126 C 
BRANCH  15  16
ATOM     16  C   UNL d   1     -45.064  13.464  22.323  0.00  0.00     0.025 A 
ATOM     17  C   UNL d   1     -44.945  12.741  22.694  0.00  0.00     0.002 A 
ATOM     18  C   UNL d   1     -44.443  12.182  22.349  0.00  0.00     0.000 A 
ATOM     19  C   UNL d   1     -44.067  12.355  21.637  0.00  0.00     0.000 A 
ATOM     20  C   UNL d   1     -44.194  13.086  21.271  0.00  0.00     0.000 A 
ATOM     21  C   UNL d   1     -44.690  13.634  21.615  0.00  0.00     0.002 A 
ENDBRANCH  15  16
ENDBRANCH  14  15
ENDBRANCH  12  14
ENDBRANCH  11  12
BRANCH  11  22
ATOM     22  C   UNL d   1     -47.693  13.431  21.661  0.00  0.00     0.129 C 
ATOM     23  N   UNL d   1     -47.839  13.705  20.761  0.00  0.00    -0.146 N 
ENDBRANCH  11  22
ENDBRANCH   1  11
BRANCH   2  24
ATOM     24  N   UNL d   1     -48.589  12.698  23.000  0.00  0.00    -0.285 N 
ATOM     25  C   UNL d   1     -48.646  12.217  22.340  0.00  0.00     0.101 A 
ATOM     26  C   UNL d   1     -48.311  11.463  22.355  0.00  0.00     0.100 A 
ATOM     27  N   UNL d   1     -47.920  11.197  23.033  0.00  0.00    -0.300 N 
ATOM     28  C   UNL d   1     -47.864  11.685  23.696  0.00  0.00     0.100 A 
ATOM     29  C   UNL d   1     -48.198  12.432  23.678  0.00  0.00     0.101 A 
BRANCH  27  30
ATOM     30  C   UNL d   1     -47.582  10.437  23.044  0.00  0.00     0.080 C 
ATOM     31  C   UNL d   1     -47.001  10.261  23.606  0.00  0.00     0.021 C 
ENDBRANCH  27  30
ENDBRANCH   2  24
TORSDOF 8
ENDMDL
