MODEL 1
REMARK VINA RESULT:       1.2      0.000      0.000
REMARK  6 active torsions:
REMARK  status: ('A' for Active; 'I' for Inactive)
REMARK    1  A    between atoms: S_12  and  C_5 
REMARK    2  A    between atoms: C_14  and  C_6 
REMARK    3  A    between atoms: C_10  and  C_13 
REMARK    4  A    between atoms: C_21  and  S_12 
REMARK    5  A    between atoms: C_15  and  C_21 
REMARK       I    between atoms: N_16  and  C_15 
REMARK    6  A    between atoms: C_18  and  N_16 
ROOT
ATOM      1  C   UNL d   1      32.870  20.447 -23.697  0.00  0.00     0.186 A 
ATOM      2  C   UNL d   1      33.035  20.825 -22.975  0.00  0.00     0.065 A 
ATOM      3  N   UNL d   1      32.748  19.634 -23.721  0.00  0.00    -0.203 NA
ATOM      4  N   UNL d   1      32.955  19.576 -22.303  0.00  0.00    -0.220 NA
ATOM      5  C   UNL d   1      33.075  20.383 -22.289  0.00  0.00     0.116 A 
ATOM      6  C   UNL d   1      32.790  19.190 -23.020  0.00  0.00     0.165 A 
ATOM      7  O   UNL d   1      32.827  20.883 -24.393  0.00  0.00    -0.289 OA
ATOM      8  C   UNL d   1      33.157  21.641 -22.955  0.00  0.00     0.007 A 
ATOM      9  C   UNL d   1      32.949  21.706 -24.378  0.00  0.00     0.102 A 
ATOM     10  C   UNL d   1      33.114  22.081 -23.660  0.00  0.00     0.023 A 
ATOM     11  C   UNL d   1      32.907  22.137 -25.067  0.00  0.00     0.025 A 
ATOM     12  C   UNL d   1      33.234  22.892 -23.643  0.00  0.00     0.002 A 
ATOM     13  C   UNL d   1      33.027  22.951 -25.061  0.00  0.00     0.002 A 
ATOM     14  C   UNL d   1      33.191  23.330 -24.345  0.00  0.00     0.000 A 
ENDROOT
BRANCH   5  15
ATOM     15  S   UNL d   1      33.240  20.761 -21.566  0.00  0.00    -0.062 SA
BRANCH  15  16
ATOM     16  C   UNL d   1      32.642  20.878 -21.017  0.00  0.00     0.099 C 
BRANCH  16  17
ATOM     17  C   UNL d   1      32.766  21.375 -20.376  0.00  0.00     0.286 C 
ATOM     18  N   UNL d   1      32.418  22.126 -20.357  0.00  0.00    -0.208 NA
ATOM     19  O   UNL d   1      33.237  21.135 -19.745  0.00  0.00    -0.265 OA
BRANCH  18  20
ATOM     20  C   UNL d   1      32.543  22.622 -19.715  0.00  0.00     0.085 A 
ATOM     21  C   UNL d   1      32.090  22.528 -19.042  0.00  0.00     0.025 A 
ATOM     22  C   UNL d   1      32.209  23.019 -18.401  0.00  0.00     0.066 A 
ATOM     23  C   UNL d   1      32.789  23.613 -18.431  0.00  0.00     0.006 A 
ATOM     24  C   UNL d   1      33.240  23.702 -19.111  0.00  0.00     0.002 A 
ATOM     25  C   UNL d   1      33.121  23.206 -19.761  0.00  0.00     0.019 A 
BRANCH  22  26
ATOM     26  C   UNL d   1      31.756  22.932 -17.713  0.00  0.00     0.211 C 
ATOM     27  O   UNL d   1      31.086  23.399 -17.612  0.00  0.00    -0.644 OA
ATOM     28  O   UNL d   1      31.972  22.387 -17.136  0.00  0.00    -0.644 OA
ENDBRANCH  22  26
ENDBRANCH  18  20
ENDBRANCH  16  17
ENDBRANCH  15  16
ENDBRANCH   5  15
BRANCH   6  29
ATOM     29  C   UNL d   1      32.667  18.374 -23.043  0.00  0.00     0.036 A 
ATOM     30  C   UNL d   1      33.235  17.869 -22.727  0.00  0.00     0.005 A 
ATOM     31  C   UNL d   1      33.118  17.049 -22.747  0.00  0.00     0.030 A 
ATOM     32  C   UNL d   1      32.430  16.738 -23.085  0.00  0.00     0.140 A 
ATOM     33  C   UNL d   1      31.854  17.252 -23.406  0.00  0.00     0.030 A 
ATOM     34  F   UNL d   1      32.310  15.926 -23.106  0.00  0.00    -0.204 F 
ATOM     35  C   UNL d   1      31.982  18.067 -23.380  0.00  0.00     0.005 A 
ENDBRANCH   6  29
TORSDOF 6
ENDMDL
