MODEL 1
REMARK VINA RESULT:      11.2      0.000      0.000
REMARK  6 active torsions:
REMARK  status: ('A' for Active; 'I' for Inactive)
REMARK    1  A    between atoms: S_6  and  N_1 
REMARK    2  A    between atoms: C_2  and  C_4 
REMARK    3  A    between atoms: C_12  and  C_3 
REMARK    4  A    between atoms: C_17  and  N_8 
REMARK    5  A    between atoms: C_16  and  C_10 
REMARK    6  A    between atoms: O_27  and  C_24 
ROOT
ATOM      1  N   UNL d   1     -41.500-121.676 -51.149  0.00  0.00    -0.155 N 
ATOM      2  C   UNL d   1     -41.909-122.386 -51.039  0.00  0.00     0.099 A 
ATOM      3  N   UNL d   1     -41.304-121.642 -51.945  0.00  0.00    -0.156 NA
ATOM      4  C   UNL d   1     -41.587-122.323 -52.325  0.00  0.00     0.103 A 
ATOM      5  C   UNL d   1     -41.960-122.771 -51.740  0.00  0.00     0.041 A 
ENDROOT
BRANCH   2   6
ATOM      6  C   UNL d   1     -42.209-122.623 -50.273  0.00  0.00     0.058 A 
ATOM      7  C   UNL d   1     -42.984-122.720 -50.079  0.00  0.00     0.110 A 
ATOM      8  N   UNL d   1     -42.974-122.953 -49.271  0.00  0.00    -0.165 NA
ATOM      9  N   UNL d   1     -42.189-122.988 -49.006  0.00  0.00    -0.228 N 
ATOM     10  C   UNL d   1     -41.707-122.781 -49.635  0.00  0.00     0.103 A 
BRANCH   7  11
ATOM     11  C   UNL d   1     -43.646-122.618 -50.552  0.00  0.00     0.049 A 
ATOM     12  S   UNL d   1     -44.020-122.553 -51.092  0.00  0.00    -0.085 SA
ATOM     13  C   UNL d   1     -44.804-122.456 -50.812  0.00  0.00     0.035 A 
ATOM     14  C   UNL d   1     -44.914-122.462 -50.023  0.00  0.00     0.007 A 
ATOM     15  C   UNL d   1     -44.185-122.567 -49.791  0.00  0.00     0.009 A 
ENDBRANCH   7  11
BRANCH   9  16
ATOM     16  C   UNL d   1     -41.952-123.195 -48.247  0.00  0.00     0.083 A 
ATOM     17  C   UNL d   1     -41.292-123.660 -48.129  0.00  0.00     0.019 A 
ATOM     18  C   UNL d   1     -41.126-123.817 -47.380  0.00  0.00     0.002 A 
ATOM     19  C   UNL d   1     -41.504-123.592 -46.677  0.00  0.00     0.000 A 
ATOM     20  C   UNL d   1     -42.176-123.116 -46.838  0.00  0.00     0.002 A 
ATOM     21  C   UNL d   1     -42.413-122.910 -47.599  0.00  0.00     0.019 A 
ENDBRANCH   9  16
ENDBRANCH   2   6
BRANCH   1  22
ATOM     22  S   UNL d   1     -41.313-121.098 -50.589  0.00  0.00     0.266 S 
ATOM     23  O   UNL d   1     -41.124-121.689 -50.042  0.00  0.00    -0.203 OA
ATOM     24  O   UNL d   1     -41.501-120.509 -51.133  0.00  0.00    -0.203 OA
ATOM     25  C   UNL d   1     -41.125-120.518 -50.025  0.00  0.00     0.165 C 
ENDBRANCH   1  22
BRANCH   4  26
ATOM     26  C   UNL d   1     -41.519-122.528 -53.119  0.00  0.00     0.020 A 
ATOM     27  C   UNL d   1     -41.301-123.285 -53.367  0.00  0.00     0.004 A 
ATOM     28  C   UNL d   1     -41.242-123.459 -54.164  0.00  0.00     0.024 A 
ATOM     29  C   UNL d   1     -41.403-122.872 -54.722  0.00  0.00     0.094 A 
ATOM     30  C   UNL d   1     -41.621-122.114 -54.475  0.00  0.00     0.024 A 
ATOM     31  C   UNL d   1     -41.674-121.960 -53.705  0.00  0.00     0.004 A 
BRANCH  29  32
ATOM     32  O   UNL d   1     -41.337-123.068 -55.537  0.00  0.00    -0.328 OA
ATOM     33  C   UNL d   1     -41.990-123.003 -56.028  0.00  0.00     0.181 C 
ENDBRANCH  29  32
ENDBRANCH   4  26
TORSDOF 6
ENDMDL
