MODEL 1
REMARK VINA RESULT:     -11.5      0.000      0.000
REMARK  2 active torsions:
REMARK  status: ('A' for Active; 'I' for Inactive)
REMARK    1  A    between atoms: C_10  and  N_3 
REMARK    2  A    between atoms: C_11  and  C_4 
ROOT
ATOM      1  C   UNL d   1      52.488  32.640  53.133  0.00  0.00     0.152 A 
ATOM      2  C   UNL d   1      53.174  32.605  53.580  0.00  0.00     0.065 A 
ATOM      3  N   UNL d   1      52.199  33.414  53.167  0.00  0.00    -0.290 N 
ATOM      4  C   UNL d   1      53.315  33.357  53.894  0.00  0.00     0.023 A 
ATOM      5  C   UNL d   1      52.714  33.852  53.638  0.00  0.00     0.082 A 
ATOM      6  N   UNL d   1      52.207  31.967  52.748  0.00  0.00    -0.206 NA
ATOM      7  C   UNL d   1      53.590  31.896  53.650  0.00  0.00     0.143 A 
ATOM      8  N   UNL d   1      53.309  31.222  53.265  0.00  0.00    -0.212 NA
ATOM      9  C   UNL d   1      52.623  31.257  52.818  0.00  0.00     0.201 A 
ATOM     10 CL   UNL d   1      54.276  31.861  54.097  0.00  0.00    -0.061 Cl
ENDROOT
BRANCH   3  11
ATOM     11  C   UNL d   1      51.535  33.729  52.816  0.00  0.00     0.065 A 
ATOM     12  C   UNL d   1      51.578  34.038  52.053  0.00  0.00     0.018 A 
ATOM     13  C   UNL d   1      50.905  34.358  51.696  0.00  0.00     0.002 A 
ATOM     14  C   UNL d   1      50.178  34.369  52.107  0.00  0.00     0.000 A 
ATOM     15  C   UNL d   1      50.145  34.058  52.871  0.00  0.00     0.002 A 
ATOM     16  C   UNL d   1      50.819  33.740  53.223  0.00  0.00     0.018 A 
ENDBRANCH   3  11
BRANCH   4  17
ATOM     17  C   UNL d   1      53.985  33.450  54.367  0.00  0.00     0.002 A 
ATOM     18  C   UNL d   1      54.708  33.657  54.027  0.00  0.00     0.000 A 
ATOM     19  C   UNL d   1      55.378  33.750  54.500  0.00  0.00     0.000 A 
ATOM     20  C   UNL d   1      55.324  33.634  55.313  0.00  0.00     0.000 A 
ATOM     21  C   UNL d   1      54.599  33.426  55.654  0.00  0.00     0.000 A 
ATOM     22  C   UNL d   1      53.933  33.335  55.183  0.00  0.00     0.000 A 
ENDBRANCH   4  17
TORSDOF 2
ENDMDL
MODEL 2
REMARK VINA RESULT:     -10.3      0.867      3.682
REMARK  2 active torsions:
REMARK  status: ('A' for Active; 'I' for Inactive)
REMARK    1  A    between atoms: C_10  and  N_3 
REMARK    2  A    between atoms: C_11  and  C_4 
ROOT
ATOM      1  C   UNL d   1      53.320  32.582  53.677  0.00  0.00     0.152 A 
ATOM      2  C   UNL d   1      52.620  32.710  53.271  0.00  0.00     0.065 A 
ATOM      3  N   UNL d   1      53.545  33.294  54.033  0.00  0.00    -0.290 N 
ATOM      4  C   UNL d   1      52.406  33.503  53.372  0.00  0.00     0.023 A 
ATOM      5  C   UNL d   1      52.977  33.858  53.841  0.00  0.00     0.082 A 
ATOM      6  N   UNL d   1      53.671  31.835  53.677  0.00  0.00    -0.206 NA
ATOM      7  C   UNL d   1      52.259  32.095  52.857  0.00  0.00     0.143 A 
ATOM      8  N   UNL d   1      52.610  31.347  52.856  0.00  0.00    -0.212 NA
ATOM      9  C   UNL d   1      53.310  31.218  53.263  0.00  0.00     0.201 A 
ATOM     10 CL   UNL d   1      51.560  32.223  52.451  0.00  0.00    -0.061 Cl
ENDROOT
BRANCH   3  11
ATOM     11  C   UNL d   1      54.196  33.452  54.495  0.00  0.00     0.065 A 
ATOM     12  C   UNL d   1      54.152  33.372  55.315  0.00  0.00     0.018 A 
ATOM     13  C   UNL d   1      54.812  33.533  55.784  0.00  0.00     0.002 A 
ATOM     14  C   UNL d   1      55.528  33.778  55.430  0.00  0.00     0.000 A 
ATOM     15  C   UNL d   1      55.563  33.855  54.609  0.00  0.00     0.002 A 
ATOM     16  C   UNL d   1      54.902  33.694  54.144  0.00  0.00     0.018 A 
ENDBRANCH   3  11
BRANCH   4  17
ATOM     17  C   UNL d   1      51.711  33.756  53.006  0.00  0.00     0.002 A 
ATOM     18  C   UNL d   1      50.988  33.696  53.401  0.00  0.00     0.000 A 
ATOM     19  C   UNL d   1      50.293  33.949  53.035  0.00  0.00     0.000 A 
ATOM     20  C   UNL d   1      50.322  34.262  52.274  0.00  0.00     0.000 A 
ATOM     21  C   UNL d   1      51.046  34.322  51.879  0.00  0.00     0.000 A 
ATOM     22  C   UNL d   1      51.737  34.071  52.243  0.00  0.00     0.000 A 
ENDBRANCH   4  17
TORSDOF 2
ENDMDL
MODEL 3
REMARK VINA RESULT:     -10.0      1.344      3.758
REMARK  2 active torsions:
REMARK  status: ('A' for Active; 'I' for Inactive)
REMARK    1  A    between atoms: C_10  and  N_3 
REMARK    2  A    between atoms: C_11  and  C_4 
ROOT
ATOM      1  C   UNL d   1      53.328  32.410  53.904  0.00  0.00     0.152 A 
ATOM      2  C   UNL d   1      52.884  33.064  53.691  0.00  0.00     0.065 A 
ATOM      3  N   UNL d   1      52.973  31.740  53.575  0.00  0.00    -0.290 N 
ATOM      4  C   UNL d   1      52.250  32.804  53.228  0.00  0.00     0.023 A 
ATOM      5  C   UNL d   1      52.308  31.990  53.159  0.00  0.00     0.082 A 
ATOM      6  N   UNL d   1      54.003  32.499  54.371  0.00  0.00    -0.206 NA
ATOM      7  C   UNL d   1      53.105  33.819  53.941  0.00  0.00     0.143 A 
ATOM      8  N   UNL d   1      53.780  33.908  54.409  0.00  0.00    -0.212 NA
ATOM      9  C   UNL d   1      54.225  33.254  54.622  0.00  0.00     0.201 A 
ATOM     10 CL   UNL d   1      52.660  34.473  53.728  0.00  0.00    -0.061 Cl
ENDROOT
BRANCH   3  11
ATOM     11  C   UNL d   1      53.204  30.960  53.626  0.00  0.00     0.065 A 
ATOM     12  C   UNL d   1      53.672  30.628  53.035  0.00  0.00     0.018 A 
ATOM     13  C   UNL d   1      53.906  29.837  53.086  0.00  0.00     0.002 A 
ATOM     14  C   UNL d   1      53.669  29.372  53.737  0.00  0.00     0.000 A 
ATOM     15  C   UNL d   1      53.199  29.713  54.324  0.00  0.00     0.002 A 
ATOM     16  C   UNL d   1      52.968  30.502  54.269  0.00  0.00     0.018 A 
ENDBRANCH   3  11
BRANCH   4  17
ATOM     17  C   UNL d   1      51.725  33.377  52.950  0.00  0.00     0.002 A 
ATOM     18  C   UNL d   1      51.038  33.553  53.375  0.00  0.00     0.000 A 
ATOM     19  C   UNL d   1      50.514  34.126  53.097  0.00  0.00     0.000 A 
ATOM     20  C   UNL d   1      50.675  34.523  52.394  0.00  0.00     0.000 A 
ATOM     21  C   UNL d   1      51.362  34.347  51.969  0.00  0.00     0.000 A 
ATOM     22  C   UNL d   1      51.884  33.777  52.245  0.00  0.00     0.000 A 
ENDBRANCH   4  17
TORSDOF 2
ENDMDL
MODEL 4
REMARK VINA RESULT:      -9.8      1.100      2.736
REMARK  2 active torsions:
REMARK  status: ('A' for Active; 'I' for Inactive)
REMARK    1  A    between atoms: C_10  and  N_3 
REMARK    2  A    between atoms: C_11  and  C_4 
ROOT
ATOM      1  C   UNL d   1      52.831  32.244  53.461  0.00  0.00     0.152 A 
ATOM      2  C   UNL d   1      53.254  32.854  53.807  0.00  0.00     0.065 A 
ATOM      3  N   UNL d   1      53.247  31.540  53.586  0.00  0.00    -0.290 N 
ATOM      4  C   UNL d   1      53.934  32.533  54.150  0.00  0.00     0.023 A 
ATOM      5  C   UNL d   1      53.927  31.725  54.012  0.00  0.00     0.082 A 
ATOM      6  N   UNL d   1      52.119  32.397  53.073  0.00  0.00    -0.206 NA
ATOM      7  C   UNL d   1      52.972  33.629  53.772  0.00  0.00     0.143 A 
ATOM      8  N   UNL d   1      52.260  33.783  53.383  0.00  0.00    -0.212 NA
ATOM      9  C   UNL d   1      51.837  33.172  53.037  0.00  0.00     0.201 A 
ATOM     10 CL   UNL d   1      53.394  34.239  54.118  0.00  0.00    -0.061 Cl
ENDROOT
BRANCH   3  11
ATOM     11  C   UNL d   1      53.057  30.783  53.351  0.00  0.00     0.065 A 
ATOM     12  C   UNL d   1      53.141  30.563  52.561  0.00  0.00     0.018 A 
ATOM     13  C   UNL d   1      52.949  29.796  52.321  0.00  0.00     0.002 A 
ATOM     14  C   UNL d   1      52.670  29.241  52.879  0.00  0.00     0.000 A 
ATOM     15  C   UNL d   1      52.590  29.470  53.668  0.00  0.00     0.002 A 
ATOM     16  C   UNL d   1      52.782  30.236  53.903  0.00  0.00     0.018 A 
ENDBRANCH   3  11
BRANCH   4  17
ATOM     17  C   UNL d   1      54.446  33.055  54.534  0.00  0.00     0.002 A 
ATOM     18  C   UNL d   1      55.058  33.419  54.114  0.00  0.00     0.000 A 
ATOM     19  C   UNL d   1      55.570  33.941  54.498  0.00  0.00     0.000 A 
ATOM     20  C   UNL d   1      55.469  34.098  55.300  0.00  0.00     0.000 A 
ATOM     21  C   UNL d   1      54.857  33.733  55.719  0.00  0.00     0.000 A 
ATOM     22  C   UNL d   1      54.348  33.214  55.338  0.00  0.00     0.000 A 
ENDBRANCH   4  17
TORSDOF 2
ENDMDL
MODEL 5
REMARK VINA RESULT:      -9.6      1.060      2.338
REMARK  2 active torsions:
REMARK  status: ('A' for Active; 'I' for Inactive)
REMARK    1  A    between atoms: C_10  and  N_3 
REMARK    2  A    between atoms: C_11  and  C_4 
ROOT
ATOM      1  C   UNL d   1      52.666  33.247  53.684  0.00  0.00     0.152 A 
ATOM      2  C   UNL d   1      53.091  32.560  53.819  0.00  0.00     0.065 A 
ATOM      3  N   UNL d   1      52.051  33.070  53.160  0.00  0.00    -0.290 N 
ATOM      4  C   UNL d   1      52.742  31.952  53.381  0.00  0.00     0.023 A 
ATOM      5  C   UNL d   1      52.104  32.269  52.977  0.00  0.00     0.082 A 
ATOM      6  N   UNL d   1      52.886  33.953  54.050  0.00  0.00    -0.206 NA
ATOM      7  C   UNL d   1      53.744  32.566  54.324  0.00  0.00     0.143 A 
ATOM      8  N   UNL d   1      53.965  33.272  54.691  0.00  0.00    -0.212 NA
ATOM      9  C   UNL d   1      53.540  33.959  54.556  0.00  0.00     0.201 A 
ATOM     10 CL   UNL d   1      54.169  31.879  54.459  0.00  0.00    -0.061 Cl
ENDROOT
BRANCH   3  11
ATOM     11  C   UNL d   1      51.478  33.563  52.856  0.00  0.00     0.065 A 
ATOM     12  C   UNL d   1      51.606  33.954  52.142  0.00  0.00     0.018 A 
ATOM     13  C   UNL d   1      51.025  34.454  51.833  0.00  0.00     0.002 A 
ATOM     14  C   UNL d   1      50.307  34.565  52.243  0.00  0.00     0.000 A 
ATOM     15  C   UNL d   1      50.188  34.169  52.958  0.00  0.00     0.002 A 
ATOM     16  C   UNL d   1      50.769  33.672  53.263  0.00  0.00     0.018 A 
ENDBRANCH   3  11
BRANCH   4  17
ATOM     17  C   UNL d   1      53.085  31.203  53.435  0.00  0.00     0.002 A 
ATOM     18  C   UNL d   1      52.811  30.661  53.996  0.00  0.00     0.000 A 
ATOM     19  C   UNL d   1      53.153  29.912  54.051  0.00  0.00     0.000 A 
ATOM     20  C   UNL d   1      53.769  29.706  53.545  0.00  0.00     0.000 A 
ATOM     21  C   UNL d   1      54.042  30.248  52.984  0.00  0.00     0.000 A 
ATOM     22  C   UNL d   1      53.702  30.992  52.929  0.00  0.00     0.000 A 
ENDBRANCH   4  17
TORSDOF 2
ENDMDL
MODEL 6
REMARK VINA RESULT:      -9.0      1.269      3.759
REMARK  2 active torsions:
REMARK  status: ('A' for Active; 'I' for Inactive)
REMARK    1  A    between atoms: C_10  and  N_3 
REMARK    2  A    between atoms: C_11  and  C_4 
ROOT
ATOM      1  C   UNL d   1      53.266  32.890  53.783  0.00  0.00     0.152 A 
ATOM      2  C   UNL d   1      52.929  32.208  53.479  0.00  0.00     0.065 A 
ATOM      3  N   UNL d   1      53.969  32.681  54.165  0.00  0.00    -0.290 N 
ATOM      4  C   UNL d   1      53.420  31.571  53.671  0.00  0.00     0.023 A 
ATOM      5  C   UNL d   1      54.058  31.866  54.093  0.00  0.00     0.082 A 
ATOM      6  N   UNL d   1      52.896  33.620  53.677  0.00  0.00    -0.206 NA
ATOM      7  C   UNL d   1      52.216  32.243  53.065  0.00  0.00     0.143 A 
ATOM      8  N   UNL d   1      51.846  32.974  52.959  0.00  0.00    -0.212 NA
ATOM      9  C   UNL d   1      52.183  33.656  53.262  0.00  0.00     0.201 A 
ATOM     10 CL   UNL d   1      51.879  31.561  52.762  0.00  0.00    -0.061 Cl
ENDROOT
BRANCH   3  11
ATOM     11  C   UNL d   1      54.503  33.159  54.553  0.00  0.00     0.065 A 
ATOM     12  C   UNL d   1      55.134  33.493  54.141  0.00  0.00     0.018 A 
ATOM     13  C   UNL d   1      55.676  33.977  54.533  0.00  0.00     0.002 A 
ATOM     14  C   UNL d   1      55.587  34.130  55.349  0.00  0.00     0.000 A 
ATOM     15  C   UNL d   1      54.951  33.791  55.754  0.00  0.00     0.002 A 
ATOM     16  C   UNL d   1      54.413  33.309  55.358  0.00  0.00     0.018 A 
ENDBRANCH   3  11
BRANCH   4  17
ATOM     17  C   UNL d   1      53.185  30.822  53.418  0.00  0.00     0.002 A 
ATOM     18  C   UNL d   1      52.789  30.314  53.936  0.00  0.00     0.000 A 
ATOM     19  C   UNL d   1      52.553  29.565  53.682  0.00  0.00     0.000 A 
ATOM     20  C   UNL d   1      52.713  29.324  52.911  0.00  0.00     0.000 A 
ATOM     21  C   UNL d   1      53.110  29.833  52.393  0.00  0.00     0.000 A 
ATOM     22  C   UNL d   1      53.344  30.578  52.645  0.00  0.00     0.000 A 
ENDBRANCH   4  17
TORSDOF 2
ENDMDL
