MODEL 1
REMARK VINA RESULT:      62.7      0.000      0.000
REMARK  3 active torsions:
REMARK  status: ('A' for Active; 'I' for Inactive)
REMARK    1  A    between atoms: C_8  and  C_1 
REMARK       I    between atoms: C_5  and  N_7 
REMARK    2  A    between atoms: C_10  and  C_5 
REMARK    3  A    between atoms: N_7  and  C_15 
ROOT
ATOM      1  C   UNL d   1      14.741  15.009  -2.211  0.00  0.00     0.024 A 
ATOM      2  C   UNL d   1      14.464  15.012  -2.979  0.00  0.00     0.004 A 
ATOM      3  C   UNL d   1      15.020  15.701  -1.863  0.00  0.00     0.004 A 
ATOM      4  C   UNL d   1      14.742  16.413  -3.068  0.00  0.00     0.085 A 
ATOM      5  C   UNL d   1      15.022  16.407  -2.290  0.00  0.00     0.019 A 
ATOM      6  C   UNL d   1      14.463  15.715  -3.412  0.00  0.00     0.019 A 
ENDROOT
BRANCH   1   7
ATOM      7  C   UNL d   1      14.740  14.300  -1.779  0.00  0.00     0.112 A 
ATOM      8  S   UNL d   1      14.911  14.228  -0.963  0.00  0.00    -0.047 SA
ATOM      9  C   UNL d   1      14.846  13.422  -0.762  0.00  0.00     0.130 A 
ATOM     10  N   UNL d   1      14.950  13.021  -0.048  0.00  0.00    -0.236 NA
ATOM     11  C   UNL d   1      14.637  12.999  -1.449  0.00  0.00     0.106 A 
ATOM     12  C   UNL d   1      14.846  12.201  -0.014  0.00  0.00     0.100 A 
ATOM     13  C   UNL d   1      14.635  11.779  -0.706  0.00  0.00     0.022 A 
ATOM     14  C   UNL d   1      14.533  12.183  -1.416  0.00  0.00     0.023 A 
ATOM     15  N   UNL d   1      14.573  13.556  -2.077  0.00  0.00    -0.237 NA
ENDBRANCH   1   7
BRANCH   4  16
ATOM     16  N   UNL d   1      14.741  17.119  -3.503  0.00  0.00    -0.206 NA
ATOM     17  C   UNL d   1      14.960  17.108  -4.296  0.00  0.00     0.302 C 
ATOM     18  O   UNL d   1      15.180  16.405  -4.663  0.00  0.00    -0.263 OA
BRANCH  17  19
ATOM     19  C   UNL d   1      14.959  17.807  -4.727  0.00  0.00     0.158 A 
ATOM     20  O   UNL d   1      15.434  18.469  -4.588  0.00  0.00    -0.300 OA
ATOM     21  C   UNL d   1      15.245  19.034  -5.153  0.00  0.00     0.123 A 
ATOM     22  C   UNL d   1      14.652  18.730  -5.646  0.00  0.00     0.029 A 
ATOM     23  C   UNL d   1      14.473  17.971  -5.384  0.00  0.00     0.032 A 
ENDBRANCH  17  19
ENDBRANCH   4  16
TORSDOF 3
ENDMDL
