MODEL 1
REMARK VINA RESULT:      50.4      0.000      0.000
REMARK  4 active torsions:
REMARK  status: ('A' for Active; 'I' for Inactive)
REMARK    1  A    between atoms: N_2  and  S_1 
REMARK    2  A    between atoms: C_4  and  S_1 
REMARK       I    between atoms: C_3  and  N_7 
REMARK    3  A    between atoms: C_6  and  C_3 
REMARK    4  A    between atoms: N_7  and  C_12 
ROOT
ATOM      1  N   UNL d   1      13.536  12.385  -3.130  0.00  0.00    -0.230 N 
ATOM      2  C   UNL d   1      13.478  13.173  -3.366  0.00  0.00     0.076 A 
ATOM      3  C   UNL d   1      13.706  13.780  -2.860  0.00  0.00     0.037 A 
ATOM      4  C   UNL d   1      13.642  14.571  -3.112  0.00  0.00     0.086 A 
ATOM      5  C   UNL d   1      13.186  13.356  -4.125  0.00  0.00     0.017 A 
ATOM      6  C   UNL d   1      13.123  14.145  -4.372  0.00  0.00     0.003 A 
ATOM      7  C   UNL d   1      13.304  11.779  -3.645  0.00  0.00     0.092 A 
ATOM      8  C   UNL d   1      13.354  14.746  -3.860  0.00  0.00     0.019 A 
ATOM      9  C   UNL d   1      13.014  11.957  -4.396  0.00  0.00     0.020 A 
ATOM     10  C   UNL d   1      12.955  12.743  -4.636  0.00  0.00     0.003 A 
ENDROOT
BRANCH   4  11
ATOM     11  N   UNL d   1      13.871  15.181  -2.603  0.00  0.00    -0.208 NA
ATOM     12  C   UNL d   1      14.625  15.502  -2.658  0.00  0.00     0.282 C 
ATOM     13  O   UNL d   1      15.165  15.222  -3.220  0.00  0.00    -0.265 OA
BRANCH  12  14
ATOM     14  C   UNL d   1      14.863  16.104  -2.163  0.00  0.00     0.096 A 
ATOM     15  C   UNL d   1      15.034  16.857  -2.481  0.00  0.00     0.065 A 
ATOM     16 CL   UNL d   1      14.961  16.982  -3.292  0.00  0.00    -0.082 Cl
ATOM     17  C   UNL d   1      15.275  17.468  -1.983  0.00  0.00     0.012 A 
ATOM     18  C   UNL d   1      15.346  17.334  -1.168  0.00  0.00     0.003 A 
ATOM     19  C   UNL d   1      15.177  16.589  -0.854  0.00  0.00     0.030 A 
ATOM     20  C   UNL d   1      14.937  15.981  -1.355  0.00  0.00     0.146 A 
ATOM     21  F   UNL d   1      14.770  15.246  -1.039  0.00  0.00    -0.204 F 
ENDBRANCH  12  14
ENDBRANCH   4  11
BRANCH   1  22
ATOM     22  S   UNL d   1      13.828  12.213  -2.373  0.00  0.00     0.277 S 
ATOM     23  O   UNL d   1      13.047  12.200  -2.095  0.00  0.00    -0.199 OA
ATOM     24  O   UNL d   1      14.594  12.227  -2.652  0.00  0.00    -0.199 OA
BRANCH  22  25
ATOM     25  C   UNL d   1      14.103  12.043  -1.619  0.00  0.00     0.133 A 
ATOM     26  S   UNL d   1      14.892  11.941  -1.401  0.00  0.00    -0.074 SA
ATOM     27  C   UNL d   1      14.919  11.780  -0.599  0.00  0.00     0.036 A 
ATOM     28  C   UNL d   1      14.147  11.779  -0.308  0.00  0.00     0.008 A 
ATOM     29  C   UNL d   1      13.641  11.943  -0.945  0.00  0.00     0.020 A 
ENDBRANCH  22  25
ENDBRANCH   1  22
TORSDOF 4
ENDMDL
