MODEL 1
REMARK VINA RESULT:      77.1      0.000      0.000
REMARK  4 active torsions:
REMARK  status: ('A' for Active; 'I' for Inactive)
REMARK    1  A    between atoms: N_5  and  S_1 
REMARK    2  A    between atoms: C_8  and  S_1 
REMARK    3  A    between atoms: C_2  and  C_11 
REMARK       I    between atoms: C_12  and  N_13 
REMARK    4  A    between atoms: N_13  and  C_21 
ROOT
ATOM      1  N   UNL d   1     -49.777  27.645  34.243  0.00  0.00    -0.229 N 
ATOM      2  C   UNL d   1     -50.772  26.153  33.920  0.00  0.00     0.039 A 
ATOM      3  C   UNL d   1     -49.561  27.091  33.547  0.00  0.00     0.092 A 
ATOM      4  C   UNL d   1     -50.491  27.451  34.777  0.00  0.00     0.092 A 
ATOM      5  C   UNL d   1     -50.993  26.700  34.616  0.00  0.00     0.023 A 
ATOM      6  C   UNL d   1     -50.058  26.347  33.387  0.00  0.00     0.023 A 
ENDROOT
BRANCH   1   7
ATOM      7  S   UNL d   1     -49.323  28.322  34.387  0.00  0.00     0.271 S 
ATOM      8  O   UNL d   1     -48.677  27.849  34.599  0.00  0.00    -0.200 OA
ATOM      9  O   UNL d   1     -49.971  28.792  34.175  0.00  0.00    -0.200 OA
BRANCH   7  10
ATOM     10  C   UNL d   1     -48.883  29.007  34.527  0.00  0.00     0.104 A 
ATOM     11  C   UNL d   1     -48.223  28.993  35.001  0.00  0.00     0.015 A 
ATOM     12  C   UNL d   1     -47.785  29.674  35.140  0.00  0.00     0.033 A 
ATOM     13  C   UNL d   1     -48.026  30.391  34.784  0.00  0.00     0.135 A 
ATOM     14  C   UNL d   1     -48.699  30.414  34.299  0.00  0.00     0.033 A 
ATOM     15  C   UNL d   1     -49.128  29.718  34.170  0.00  0.00     0.015 A 
BRANCH  13  16
ATOM     16  N   UNL d   1     -47.594  31.081  34.917  0.00  0.00    -0.365 NA
ATOM     17  C   UNL d   1     -47.165  31.778  35.047  0.00  0.00     0.328 C 
ATOM     18  O   UNL d   1     -47.781  32.227  34.741  0.00  0.00    -0.251 OA
ATOM     19  C   UNL d   1     -46.730  32.461  35.181  0.00  0.00     0.082 C 
ENDBRANCH  13  16
ENDBRANCH   7  10
ENDBRANCH   1   7
BRANCH   2  20
ATOM     20  C   UNL d   1     -51.273  25.403  33.759  0.00  0.00     0.163 A 
ATOM     21  N   UNL d   1     -52.028  25.390  33.706  0.00  0.00    -0.225 NA
ATOM     22  C   UNL d   1     -52.237  24.675  33.571  0.00  0.00     0.101 A 
ATOM     23  C   UNL d   1     -52.930  24.371  33.472  0.00  0.00     0.021 A 
ATOM     24  C   UNL d   1     -51.616  24.248  33.541  0.00  0.00     0.101 A 
ATOM     25  C   UNL d   1     -52.979  23.624  33.343  0.00  0.00     0.002 A 
ATOM     26  C   UNL d   1     -52.357  23.191  33.312  0.00  0.00     0.002 A 
ATOM     27  C   UNL d   1     -51.685  23.505  33.411  0.00  0.00     0.021 A 
ATOM     28  N   UNL d   1     -51.017  24.696  33.658  0.00  0.00    -0.225 NA
ENDBRANCH   2  20
TORSDOF 4
ENDMDL
MODEL 2
REMARK VINA RESULT:      78.1      1.230      6.701
REMARK  4 active torsions:
REMARK  status: ('A' for Active; 'I' for Inactive)
REMARK    1  A    between atoms: N_5  and  S_1 
REMARK    2  A    between atoms: C_8  and  S_1 
REMARK    3  A    between atoms: C_2  and  C_11 
REMARK       I    between atoms: C_12  and  N_13 
REMARK    4  A    between atoms: N_13  and  C_21 
ROOT
ATOM      1  N   UNL d   1     -49.503  28.364  33.977  0.00  0.00    -0.229 N 
ATOM      2  C   UNL d   1     -48.689  29.979  34.190  0.00  0.00     0.039 A 
ATOM      3  C   UNL d   1     -49.775  29.084  33.481  0.00  0.00     0.092 A 
ATOM      4  C   UNL d   1     -48.824  28.453  34.578  0.00  0.00     0.092 A 
ATOM      5  C   UNL d   1     -48.413  29.266  34.687  0.00  0.00     0.023 A 
ATOM      6  C   UNL d   1     -49.368  29.890  33.589  0.00  0.00     0.023 A 
ENDROOT
BRANCH   1   7
ATOM      7  S   UNL d   1     -49.876  27.631  33.877  0.00  0.00     0.271 S 
ATOM      8  O   UNL d   1     -50.430  27.978  33.367  0.00  0.00    -0.200 OA
ATOM      9  O   UNL d   1     -49.320  27.288  34.387  0.00  0.00    -0.200 OA
BRANCH   7  10
ATOM     10  C   UNL d   1     -50.237  26.894  33.787  0.00  0.00     0.104 A 
ATOM     11  C   UNL d   1     -50.991  26.759  34.059  0.00  0.00     0.015 A 
ATOM     12  C   UNL d   1     -51.349  26.026  33.970  0.00  0.00     0.033 A 
ATOM     13  C   UNL d   1     -50.928  25.410  33.592  0.00  0.00     0.135 A 
ATOM     14  C   UNL d   1     -50.157  25.539  33.312  0.00  0.00     0.033 A 
ATOM     15  C   UNL d   1     -49.812  26.285  33.411  0.00  0.00     0.015 A 
BRANCH  13  16
ATOM     16  N   UNL d   1     -51.278  24.670  33.497  0.00  0.00    -0.365 NA
ATOM     17  C   UNL d   1     -51.624  23.922  33.404  0.00  0.00     0.328 C 
ATOM     18  O   UNL d   1     -50.933  23.559  33.660  0.00  0.00    -0.251 OA
ATOM     19  C   UNL d   1     -51.979  23.189  33.308  0.00  0.00     0.082 C 
ENDBRANCH  13  16
ENDBRANCH   7  10
ENDBRANCH   1   7
BRANCH   2  20
ATOM     20  C   UNL d   1     -48.277  30.791  34.299  0.00  0.00     0.163 A 
ATOM     21  N   UNL d   1     -47.995  31.050  34.953  0.00  0.00    -0.225 NA
ATOM     22  C   UNL d   1     -47.703  31.735  34.822  0.00  0.00     0.101 A 
ATOM     23  C   UNL d   1     -47.355  32.225  35.293  0.00  0.00     0.021 A 
ATOM     24  C   UNL d   1     -47.802  31.900  34.092  0.00  0.00     0.101 A 
ATOM     25  C   UNL d   1     -47.112  32.886  35.009  0.00  0.00     0.002 A 
ATOM     26  C   UNL d   1     -47.210  33.056  34.276  0.00  0.00     0.002 A 
ATOM     27  C   UNL d   1     -47.552  32.565  33.827  0.00  0.00     0.021 A 
ATOM     28  N   UNL d   1     -48.158  31.317  33.766  0.00  0.00    -0.225 NA
ENDBRANCH   2  20
TORSDOF 4
ENDMDL
