MODEL 1
REMARK VINA RESULT:      28.0      0.000      0.000
REMARK  3 active torsions:
REMARK  status: ('A' for Active; 'I' for Inactive)
REMARK    1  A    between atoms: N_5  and  C_2 
REMARK    2  A    between atoms: C_14  and  C_4 
REMARK       I    between atoms: C_7  and  N_5 
REMARK    3  A    between atoms: C_8  and  C_7 
ROOT
ATOM      1  S   UNL d   1     -55.343-101.742 -37.171  0.00  0.00    -0.026 SA
ATOM      2  C   UNL d   1     -55.018-102.401 -37.549  0.00  0.00     0.219 A 
ATOM      3  N   UNL d   1     -54.862-102.503 -36.219  0.00  0.00    -0.139 NA
ATOM      4  C   UNL d   1     -55.245-101.813 -36.362  0.00  0.00     0.135 A 
ATOM      5  N   UNL d   1     -54.716-102.878 -36.952  0.00  0.00    -0.121 NA
ENDROOT
BRANCH   2   6
ATOM      6  N   UNL d   1     -54.957-102.626 -38.347  0.00  0.00    -0.181 NA
ATOM      7  C   UNL d   1     -55.472-102.304 -38.886  0.00  0.00     0.287 C 
ATOM      8  O   UNL d   1     -56.058-101.758 -38.672  0.00  0.00    -0.265 OA
BRANCH   7   9
ATOM      9  C   UNL d   1     -55.410-102.525 -39.656  0.00  0.00     0.087 A 
ATOM     10  S   UNL d   1     -56.042-102.664 -40.147  0.00  0.00    -0.082 SA
ATOM     11  C   UNL d   1     -55.735-102.879 -40.898  0.00  0.00     0.036 A 
ATOM     12  C   UNL d   1     -54.939-102.865 -40.848  0.00  0.00     0.008 A 
ATOM     13  C   UNL d   1     -54.713-102.653 -40.104  0.00  0.00     0.012 A 
ENDBRANCH   7   9
ENDBRANCH   2   6
BRANCH   4  14
ATOM     14  C   UNL d   1     -55.507-101.245 -35.791  0.00  0.00     0.026 C 
ATOM     15  C   UNL d   1     -56.173-101.366 -35.318  0.00  0.00     0.002 C 
ATOM     16  C   UNL d   1     -55.074-100.535 -35.702  0.00  0.00     0.002 C 
ENDBRANCH   4  14
TORSDOF 3
ENDMDL
MODEL 2
REMARK VINA RESULT:      28.4      6.504      7.649
REMARK  3 active torsions:
REMARK  status: ('A' for Active; 'I' for Inactive)
REMARK    1  A    between atoms: N_5  and  C_2 
REMARK    2  A    between atoms: C_14  and  C_4 
REMARK       I    between atoms: C_7  and  N_5 
REMARK    3  A    between atoms: C_8  and  C_7 
ROOT
ATOM      1  S   UNL d   1     -56.314-100.398 -44.562  0.00  0.00    -0.026 SA
ATOM      2  C   UNL d   1     -56.624 -99.637 -44.656  0.00  0.00     0.219 A 
ATOM      3  N   UNL d   1     -55.283 -99.590 -44.589  0.00  0.00    -0.139 NA
ATOM      4  C   UNL d   1     -55.498-100.360 -44.523  0.00  0.00     0.135 A 
ATOM      5  N   UNL d   1     -55.977 -99.131 -44.672  0.00  0.00    -0.121 NA
ENDROOT
BRANCH   2   6
ATOM      6  N   UNL d   1     -57.398 -99.344 -44.727  0.00  0.00    -0.181 NA
ATOM      7  C   UNL d   1     -57.931 -99.494 -44.133  0.00  0.00     0.287 C 
ATOM      8  O   UNL d   1     -57.733 -99.930 -43.456  0.00  0.00    -0.265 OA
BRANCH   7   9
ATOM      9  C   UNL d   1     -58.679 -99.208 -44.205  0.00  0.00     0.087 A 
ATOM     10  S   UNL d   1     -59.169 -99.039 -43.581  0.00  0.00    -0.082 SA
ATOM     11  C   UNL d   1     -59.892 -98.756 -43.897  0.00  0.00     0.036 A 
ATOM     12  C   UNL d   1     -59.826 -98.759 -44.692  0.00  0.00     0.008 A 
ATOM     13  C   UNL d   1     -59.098 -99.029 -44.908  0.00  0.00     0.012 A 
ENDBRANCH   7   9
ENDBRANCH   2   6
BRANCH   4  14
ATOM     14  C   UNL d   1     -54.986-101.028 -44.428  0.00  0.00     0.026 C 
ATOM     15  C   UNL d   1     -54.713-101.472 -45.068  0.00  0.00     0.002 C 
ATOM     16  C   UNL d   1     -54.748-101.246 -43.656  0.00  0.00     0.002 C 
ENDBRANCH   4  14
TORSDOF 3
ENDMDL
