MODEL 1
REMARK VINA RESULT:      -6.0      0.000      0.000
REMARK  5 active torsions:
REMARK  status: ('A' for Active; 'I' for Inactive)
REMARK    1  A    between atoms: C_3  and  C_1 
REMARK    2  A    between atoms: C_5  and  C_3 
REMARK    3  A    between atoms: N_8  and  C_5 
REMARK    4  A    between atoms: C_19  and  N_11 
REMARK    5  A    between atoms: C_18  and  C_19 
ROOT
ATOM      1  C   UNL d   1     -46.110  12.723  22.995  0.00  0.00     0.110 C 
ATOM      2  C   UNL d   1     -46.342  13.453  23.298  0.00  0.00     0.105 C 
ATOM      3  N   UNL d   1     -46.561  14.181  23.597  0.00  0.00    -0.191 NA
ENDROOT
BRANCH   1   4
ATOM      4  C   UNL d   1     -45.367  12.636  22.648  0.00  0.00     0.122 A 
ATOM      5  N   UNL d   1     -44.806  12.060  22.836  0.00  0.00    -0.238 NA
ATOM      6  C   UNL d   1     -44.142  12.177  22.356  0.00  0.00     0.088 A 
ATOM      7  C   UNL d   1     -43.425  11.777  22.300  0.00  0.00     0.020 A 
ATOM      8  C   UNL d   1     -44.293  12.826  21.870  0.00  0.00     0.049 A 
ATOM      9  C   UNL d   1     -42.859  12.033  21.753  0.00  0.00     0.002 A 
ATOM     10  C   UNL d   1     -43.010  12.682  21.267  0.00  0.00     0.001 A 
ATOM     11  C   UNL d   1     -43.728  13.082  21.323  0.00  0.00     0.008 A 
ATOM     12  S   UNL d   1     -45.050  13.112  22.048  0.00  0.00    -0.066 SA
ENDBRANCH   1   4
BRANCH   1  13
ATOM     13  C   UNL d   1     -46.624  12.081  23.038  0.00  0.00     0.093 C 
BRANCH  13  14
ATOM     14  N   UNL d   1     -47.433  12.188  22.918  0.00  0.00    -0.299 N 
ATOM     15  C   UNL d   1     -47.717  12.337  22.162  0.00  0.00     0.100 A 
ATOM     16  C   UNL d   1     -48.530  12.446  22.042  0.00  0.00     0.100 A 
ATOM     17  N   UNL d   1     -49.052  12.403  22.687  0.00  0.00    -0.300 N 
ATOM     18  C   UNL d   1     -48.759  12.253  23.443  0.00  0.00     0.100 A 
ATOM     19  C   UNL d   1     -47.954  12.146  23.562  0.00  0.00     0.100 A 
BRANCH  17  20
ATOM     20  C   UNL d   1     -49.862  12.511  22.571  0.00  0.00     0.080 C 
BRANCH  20  21
ATOM     21  C   UNL d   1     -50.174  13.269  22.522  0.00  0.00     0.020 A 
ATOM     22  C   UNL d   1     -50.154  13.758  23.176  0.00  0.00     0.028 A 
ATOM     23  C   UNL d   1     -50.465  14.518  23.131  0.00  0.00     0.119 A 
ATOM     24  O   UNL d   1     -50.520  15.123  23.697  0.00  0.00    -0.300 OA
ATOM     25  C   UNL d   1     -50.797  14.786  22.427  0.00  0.00     0.119 A 
ATOM     26  C   UNL d   1     -50.889  15.770  23.332  0.00  0.00     0.304 A 
ATOM     27  O   UNL d   1     -51.059  15.561  22.551  0.00  0.00    -0.300 OA
ATOM     28  C   UNL d   1     -50.816  14.292  21.766  0.00  0.00     0.026 A 
ATOM     29  C   UNL d   1     -50.503  13.527  21.813  0.00  0.00     0.004 A 
ENDBRANCH  20  21
ENDBRANCH  17  20
ENDBRANCH  13  14
ENDBRANCH   1  13
TORSDOF 5
ENDMDL
MODEL 2
REMARK VINA RESULT:      -5.0      8.340      9.775
REMARK  5 active torsions:
REMARK  status: ('A' for Active; 'I' for Inactive)
REMARK    1  A    between atoms: C_3  and  C_1 
REMARK    2  A    between atoms: C_5  and  C_3 
REMARK    3  A    between atoms: N_8  and  C_5 
REMARK    4  A    between atoms: C_19  and  N_11 
REMARK    5  A    between atoms: C_18  and  C_19 
ROOT
ATOM      1  C   UNL d   1     -40.265  14.929  18.520  0.00  0.00     0.110 C 
ATOM      2  C   UNL d   1     -40.745  14.308  18.770  0.00  0.00     0.105 C 
ATOM      3  N   UNL d   1     -41.216  13.685  19.009  0.00  0.00    -0.191 NA
ENDROOT
BRANCH   1   4
ATOM      4  C   UNL d   1     -39.748  14.823  17.886  0.00  0.00     0.122 A 
ATOM      5  N   UNL d   1     -39.355  14.125  17.689  0.00  0.00    -0.238 NA
ATOM      6  C   UNL d   1     -38.894  14.266  17.017  0.00  0.00     0.088 A 
ATOM      7  C   UNL d   1     -38.393  13.781  16.580  0.00  0.00     0.020 A 
ATOM      8  C   UNL d   1     -39.001  15.054  16.797  0.00  0.00     0.049 A 
ATOM      9  C   UNL d   1     -38.001  14.091  15.920  0.00  0.00     0.002 A 
ATOM     10  C   UNL d   1     -38.108  14.879  15.701  0.00  0.00     0.001 A 
ATOM     11  C   UNL d   1     -38.609  15.364  16.139  0.00  0.00     0.008 A 
ATOM     12  S   UNL d   1     -39.529  15.402  17.334  0.00  0.00    -0.066 SA
ENDBRANCH   1   4
BRANCH   1  13
ATOM     13  C   UNL d   1     -40.304  15.656  18.905  0.00  0.00     0.093 C 
BRANCH  13  14
ATOM     14  N   UNL d   1     -40.063  15.722  19.691  0.00  0.00    -0.299 N 
ATOM     15  C   UNL d   1     -40.616  15.653  20.294  0.00  0.00     0.100 A 
ATOM     16  C   UNL d   1     -40.374  15.719  21.084  0.00  0.00     0.100 A 
ATOM     17  N   UNL d   1     -39.573  15.854  21.261  0.00  0.00    -0.300 N 
ATOM     18  C   UNL d   1     -39.024  15.922  20.649  0.00  0.00     0.100 A 
ATOM     19  C   UNL d   1     -39.264  15.857  19.867  0.00  0.00     0.100 A 
BRANCH  17  20
ATOM     20  C   UNL d   1     -39.328  15.920  22.046  0.00  0.00     0.080 C 
BRANCH  20  21
ATOM     21  C   UNL d   1     -38.973  15.282  22.421  0.00  0.00     0.020 A 
ATOM     22  C   UNL d   1     -39.273  14.530  22.315  0.00  0.00     0.028 A 
ATOM     23  C   UNL d   1     -38.920  13.888  22.689  0.00  0.00     0.119 A 
ATOM     24  O   UNL d   1     -39.104  13.080  22.681  0.00  0.00    -0.300 OA
ATOM     25  C   UNL d   1     -38.263  14.005  23.171  0.00  0.00     0.119 A 
ATOM     26  C   UNL d   1     -38.551  12.695  23.166  0.00  0.00     0.304 A 
ATOM     27  O   UNL d   1     -38.034  13.265  23.466  0.00  0.00    -0.300 OA
ATOM     28  C   UNL d   1     -37.959  14.764  23.279  0.00  0.00     0.026 A 
ATOM     29  C   UNL d   1     -38.316  15.409  22.902  0.00  0.00     0.004 A 
ENDBRANCH  20  21
ENDBRANCH  17  20
ENDBRANCH  13  14
ENDBRANCH   1  13
TORSDOF 5
ENDMDL
MODEL 3
REMARK VINA RESULT:      -4.9      8.168      9.894
REMARK  5 active torsions:
REMARK  status: ('A' for Active; 'I' for Inactive)
REMARK    1  A    between atoms: C_3  and  C_1 
REMARK    2  A    between atoms: C_5  and  C_3 
REMARK    3  A    between atoms: N_8  and  C_5 
REMARK    4  A    between atoms: C_19  and  N_11 
REMARK    5  A    between atoms: C_18  and  C_19 
ROOT
ATOM      1  C   UNL d   1     -39.294  14.320  17.578  0.00  0.00     0.110 C 
ATOM      2  C   UNL d   1     -38.866  13.848  18.102  0.00  0.00     0.105 C 
ATOM      3  N   UNL d   1     -38.434  13.380  18.613  0.00  0.00    -0.191 NA
ENDROOT
BRANCH   1   4
ATOM      4  C   UNL d   1     -38.977  14.512  16.841  0.00  0.00     0.122 A 
ATOM      5  N   UNL d   1     -38.790  13.981  16.238  0.00  0.00    -0.238 NA
ATOM      6  C   UNL d   1     -38.487  14.410  15.598  0.00  0.00     0.088 A 
ATOM      7  C   UNL d   1     -38.214  14.176  14.858  0.00  0.00     0.020 A 
ATOM      8  C   UNL d   1     -38.487  15.209  15.806  0.00  0.00     0.049 A 
ATOM      9  C   UNL d   1     -37.940  14.750  14.327  0.00  0.00     0.002 A 
ATOM     10  C   UNL d   1     -37.940  15.548  14.535  0.00  0.00     0.001 A 
ATOM     11  C   UNL d   1     -38.214  15.781  15.276  0.00  0.00     0.008 A 
ATOM     12  S   UNL d   1     -38.790  15.275  16.575  0.00  0.00    -0.066 SA
ENDBRANCH   1   4
BRANCH   1  13
ATOM     13  C   UNL d   1     -40.038  14.598  17.794  0.00  0.00     0.093 C 
BRANCH  13  14
ATOM     14  N   UNL d   1     -40.207  14.759  18.585  0.00  0.00    -0.299 N 
ATOM     15  C   UNL d   1     -40.084  15.514  18.883  0.00  0.00     0.100 A 
ATOM     16  C   UNL d   1     -40.254  15.676  19.678  0.00  0.00     0.100 A 
ATOM     17  N   UNL d   1     -40.547  15.072  20.169  0.00  0.00    -0.300 N 
ATOM     18  C   UNL d   1     -40.667  14.316  19.862  0.00  0.00     0.100 A 
ATOM     19  C   UNL d   1     -40.499  14.156  19.074  0.00  0.00     0.100 A 
BRANCH  17  20
ATOM     20  C   UNL d   1     -40.717  15.229  20.961  0.00  0.00     0.080 C 
BRANCH  20  21
ATOM     21  C   UNL d   1     -40.117  15.209  21.522  0.00  0.00     0.020 A 
ATOM     22  C   UNL d   1     -39.841  14.491  21.795  0.00  0.00     0.028 A 
ATOM     23  C   UNL d   1     -39.240  14.467  22.357  0.00  0.00     0.119 A 
ATOM     24  O   UNL d   1     -38.860  13.829  22.725  0.00  0.00    -0.300 OA
ATOM     25  C   UNL d   1     -38.919  15.168  22.645  0.00  0.00     0.119 A 
ATOM     26  C   UNL d   1     -38.296  14.145  23.246  0.00  0.00     0.304 A 
ATOM     27  O   UNL d   1     -38.334  14.968  23.196  0.00  0.00    -0.300 OA
ATOM     28  C   UNL d   1     -39.198  15.894  22.369  0.00  0.00     0.026 A 
ATOM     29  C   UNL d   1     -39.802  15.916  21.804  0.00  0.00     0.004 A 
ENDBRANCH  20  21
ENDBRANCH  17  20
ENDBRANCH  13  14
ENDBRANCH   1  13
TORSDOF 5
ENDMDL
MODEL 4
REMARK VINA RESULT:      -4.8      2.474      5.711
REMARK  5 active torsions:
REMARK  status: ('A' for Active; 'I' for Inactive)
REMARK    1  A    between atoms: C_3  and  C_1 
REMARK    2  A    between atoms: C_5  and  C_3 
REMARK    3  A    between atoms: N_8  and  C_5 
REMARK    4  A    between atoms: C_19  and  N_11 
REMARK    5  A    between atoms: C_18  and  C_19 
ROOT
ATOM      1  C   UNL d   1     -49.251  12.603  22.625  0.00  0.00     0.110 C 
ATOM      2  C   UNL d   1     -49.183  12.341  21.847  0.00  0.00     0.105 C 
ATOM      3  N   UNL d   1     -49.120  12.091  21.072  0.00  0.00    -0.191 NA
ENDROOT
BRANCH   1   4
ATOM      4  C   UNL d   1     -49.613  13.326  22.788  0.00  0.00     0.122 A 
ATOM      5  N   UNL d   1     -49.399  14.059  22.474  0.00  0.00    -0.238 NA
ATOM      6  C   UNL d   1     -49.907  14.633  22.786  0.00  0.00     0.088 A 
ATOM      7  C   UNL d   1     -49.954  15.447  22.672  0.00  0.00     0.020 A 
ATOM      8  C   UNL d   1     -50.435  14.255  23.294  0.00  0.00     0.049 A 
ATOM      9  C   UNL d   1     -50.536  15.880  23.072  0.00  0.00     0.002 A 
ATOM     10  C   UNL d   1     -51.064  15.501  23.581  0.00  0.00     0.001 A 
ATOM     11  C   UNL d   1     -51.016  14.687  23.694  0.00  0.00     0.008 A 
ATOM     12  S   UNL d   1     -50.256  13.446  23.298  0.00  0.00    -0.066 SA
ENDBRANCH   1   4
BRANCH   1  13
ATOM     13  C   UNL d   1     -48.958  12.140  23.240  0.00  0.00     0.093 C 
BRANCH  13  14
ATOM     14  N   UNL d   1     -48.146  12.019  23.315  0.00  0.00    -0.299 N 
ATOM     15  C   UNL d   1     -47.826  11.280  23.149  0.00  0.00     0.100 A 
ATOM     16  C   UNL d   1     -47.010  11.158  23.225  0.00  0.00     0.100 A 
ATOM     17  N   UNL d   1     -46.520  11.784  23.468  0.00  0.00    -0.300 N 
ATOM     18  C   UNL d   1     -46.848  12.523  23.633  0.00  0.00     0.100 A 
ATOM     19  C   UNL d   1     -47.657  12.643  23.558  0.00  0.00     0.100 A 
BRANCH  17  20
ATOM     20  C   UNL d   1     -45.707  11.666  23.545  0.00  0.00     0.080 C 
BRANCH  20  21
ATOM     21  C   UNL d   1     -45.190  12.000  23.001  0.00  0.00     0.020 A 
ATOM     22  C   UNL d   1     -44.455  11.663  22.879  0.00  0.00     0.028 A 
ATOM     23  C   UNL d   1     -43.935  11.995  22.335  0.00  0.00     0.119 A 
ATOM     24  O   UNL d   1     -43.170  11.774  22.104  0.00  0.00    -0.300 OA
ATOM     25  C   UNL d   1     -44.155  12.666  21.913  0.00  0.00     0.119 A 
ATOM     26  C   UNL d   1     -42.918  12.319  21.531  0.00  0.00     0.304 A 
ATOM     27  O   UNL d   1     -43.524  12.867  21.415  0.00  0.00    -0.300 OA
ATOM     28  C   UNL d   1     -44.896  13.007  22.035  0.00  0.00     0.026 A 
ATOM     29  C   UNL d   1     -45.419  12.672  22.583  0.00  0.00     0.004 A 
ENDBRANCH  20  21
ENDBRANCH  17  20
ENDBRANCH  13  14
ENDBRANCH   1  13
TORSDOF 5
ENDMDL
MODEL 5
REMARK VINA RESULT:      -4.1      1.789      3.032
REMARK  5 active torsions:
REMARK  status: ('A' for Active; 'I' for Inactive)
REMARK    1  A    between atoms: C_3  and  C_1 
REMARK    2  A    between atoms: C_5  and  C_3 
REMARK    3  A    between atoms: N_8  and  C_5 
REMARK    4  A    between atoms: C_19  and  N_11 
REMARK    5  A    between atoms: C_18  and  C_19 
ROOT
ATOM      1  C   UNL d   1     -43.388  12.710  21.545  0.00  0.00     0.110 C 
ATOM      2  C   UNL d   1     -43.321  12.072  22.062  0.00  0.00     0.105 C 
ATOM      3  N   UNL d   1     -43.245  11.441  22.575  0.00  0.00    -0.191 NA
ENDROOT
BRANCH   1   4
ATOM      4  C   UNL d   1     -42.715  13.132  21.320  0.00  0.00     0.122 A 
ATOM      5  N   UNL d   1     -42.126  13.414  21.824  0.00  0.00    -0.238 NA
ATOM      6  C   UNL d   1     -41.557  13.804  21.366  0.00  0.00     0.088 A 
ATOM      7  C   UNL d   1     -40.858  14.188  21.566  0.00  0.00     0.020 A 
ATOM      8  C   UNL d   1     -41.796  13.763  20.577  0.00  0.00     0.049 A 
ATOM      9  C   UNL d   1     -40.398  14.532  20.969  0.00  0.00     0.002 A 
ATOM     10  C   UNL d   1     -40.637  14.491  20.181  0.00  0.00     0.001 A 
ATOM     11  C   UNL d   1     -41.337  14.106  19.981  0.00  0.00     0.008 A 
ATOM     12  S   UNL d   1     -42.512  13.347  20.545  0.00  0.00    -0.066 SA
ENDBRANCH   1   4
BRANCH   1  13
ATOM     13  C   UNL d   1     -44.127  12.925  21.254  0.00  0.00     0.093 C 
BRANCH  13  14
ATOM     14  N   UNL d   1     -44.757  13.045  21.772  0.00  0.00    -0.299 N 
ATOM     15  C   UNL d   1     -45.211  12.406  22.017  0.00  0.00     0.100 A 
ATOM     16  C   UNL d   1     -45.845  12.527  22.539  0.00  0.00     0.100 A 
ATOM     17  N   UNL d   1     -46.016  13.293  22.810  0.00  0.00    -0.300 N 
ATOM     18  C   UNL d   1     -45.555  13.930  22.559  0.00  0.00     0.100 A 
ATOM     19  C   UNL d   1     -44.928  13.810  22.043  0.00  0.00     0.100 A 
BRANCH  17  20
ATOM     20  C   UNL d   1     -46.646  13.417  23.328  0.00  0.00     0.080 C 
BRANCH  20  21
ATOM     21  C   UNL d   1     -47.388  13.614  23.035  0.00  0.00     0.020 A 
ATOM     22  C   UNL d   1     -47.602  14.399  22.967  0.00  0.00     0.028 A 
ATOM     23  C   UNL d   1     -48.344  14.600  22.675  0.00  0.00     0.119 A 
ATOM     24  O   UNL d   1     -48.702  15.337  22.548  0.00  0.00    -0.300 OA
ATOM     25  C   UNL d   1     -48.871  14.008  22.450  0.00  0.00     0.119 A 
ATOM     26  C   UNL d   1     -49.460  15.194  22.241  0.00  0.00     0.304 A 
ATOM     27  O   UNL d   1     -49.562  14.377  22.181  0.00  0.00    -0.300 OA
ATOM     28  C   UNL d   1     -48.654  13.215  22.518  0.00  0.00     0.026 A 
ATOM     29  C   UNL d   1     -47.907  13.015  22.813  0.00  0.00     0.004 A 
ENDBRANCH  20  21
ENDBRANCH  17  20
ENDBRANCH  13  14
ENDBRANCH   1  13
TORSDOF 5
ENDMDL
MODEL 6
REMARK VINA RESULT:      -3.7      1.457      2.111
REMARK  5 active torsions:
REMARK  status: ('A' for Active; 'I' for Inactive)
REMARK    1  A    between atoms: C_3  and  C_1 
REMARK    2  A    between atoms: C_5  and  C_3 
REMARK    3  A    between atoms: N_8  and  C_5 
REMARK    4  A    between atoms: C_19  and  N_11 
REMARK    5  A    between atoms: C_18  and  C_19 
ROOT
ATOM      1  C   UNL d   1     -45.613  12.847  22.560  0.00  0.00     0.110 C 
ATOM      2  C   UNL d   1     -45.880  12.915  21.783  0.00  0.00     0.105 C 
ATOM      3  N   UNL d   1     -46.139  12.973  21.011  0.00  0.00    -0.191 NA
ENDROOT
BRANCH   1   4
ATOM      4  C   UNL d   1     -45.154  12.199  22.784  0.00  0.00     0.122 A 
ATOM      5  N   UNL d   1     -45.415  11.543  23.211  0.00  0.00    -0.238 NA
ATOM      6  C   UNL d   1     -44.774  11.028  23.313  0.00  0.00     0.088 A 
ATOM      7  C   UNL d   1     -44.708  10.299  23.689  0.00  0.00     0.020 A 
ATOM      8  C   UNL d   1     -44.116  11.368  22.949  0.00  0.00     0.049 A 
ATOM      9  C   UNL d   1     -43.976   9.912  23.698  0.00  0.00     0.002 A 
ATOM     10  C   UNL d   1     -43.318  10.252  23.334  0.00  0.00     0.001 A 
ATOM     11  C   UNL d   1     -43.385  10.982  22.958  0.00  0.00     0.008 A 
ATOM     12  S   UNL d   1     -44.348  12.093  22.621  0.00  0.00    -0.066 SA
ENDBRANCH   1   4
BRANCH   1  13
ATOM     13  C   UNL d   1     -45.805  13.428  23.110  0.00  0.00     0.093 C 
BRANCH  13  14
ATOM     14  N   UNL d   1     -46.587  13.677  23.193  0.00  0.00    -0.299 N 
ATOM     15  C   UNL d   1     -47.132  13.194  23.572  0.00  0.00     0.100 A 
ATOM     16  C   UNL d   1     -47.918  13.445  23.655  0.00  0.00     0.100 A 
ATOM     17  N   UNL d   1     -48.150  14.183  23.353  0.00  0.00    -0.300 N 
ATOM     18  C   UNL d   1     -47.596  14.664  22.974  0.00  0.00     0.100 A 
ATOM     19  C   UNL d   1     -46.818  14.415  22.892  0.00  0.00     0.100 A 
BRANCH  17  20
ATOM     20  C   UNL d   1     -48.931  14.436  23.434  0.00  0.00     0.080 C 
BRANCH  20  21
ATOM     21  C   UNL d   1     -49.476  14.285  22.838  0.00  0.00     0.020 A 
ATOM     22  C   UNL d   1     -49.602  13.518  22.589  0.00  0.00     0.028 A 
ATOM     23  C   UNL d   1     -50.147  13.363  21.992  0.00  0.00     0.119 A 
ATOM     24  O   UNL d   1     -50.383  12.652  21.637  0.00  0.00    -0.300 OA
ATOM     25  C   UNL d   1     -50.565  13.982  21.646  0.00  0.00     0.119 A 
ATOM     26  C   UNL d   1     -50.954  12.839  21.064  0.00  0.00     0.304 A 
ATOM     27  O   UNL d   1     -51.064  13.657  21.071  0.00  0.00    -0.300 OA
ATOM     28  C   UNL d   1     -50.437  14.758  21.898  0.00  0.00     0.026 A 
ATOM     29  C   UNL d   1     -49.888  14.912  22.498  0.00  0.00     0.004 A 
ENDBRANCH  20  21
ENDBRANCH  17  20
ENDBRANCH  13  14
ENDBRANCH   1  13
TORSDOF 5
ENDMDL
MODEL 7
REMARK VINA RESULT:      -3.6      3.836      7.219
REMARK  5 active torsions:
REMARK  status: ('A' for Active; 'I' for Inactive)
REMARK    1  A    between atoms: C_3  and  C_1 
REMARK    2  A    between atoms: C_5  and  C_3 
REMARK    3  A    between atoms: N_8  and  C_5 
REMARK    4  A    between atoms: C_19  and  N_11 
REMARK    5  A    between atoms: C_18  and  C_19 
ROOT
ATOM      1  C   UNL d   1     -44.527  12.622  21.917  0.00  0.00     0.110 C 
ATOM      2  C   UNL d   1     -44.157  12.073  22.408  0.00  0.00     0.105 C 
ATOM      3  N   UNL d   1     -43.799  11.530  22.903  0.00  0.00    -0.191 NA
ENDROOT
BRANCH   1   4
ATOM      4  C   UNL d   1     -45.254  12.947  22.132  0.00  0.00     0.122 A 
ATOM      5  N   UNL d   1     -45.368  13.635  22.573  0.00  0.00    -0.238 NA
ATOM      6  C   UNL d   1     -46.182  13.756  22.660  0.00  0.00     0.088 A 
ATOM      7  C   UNL d   1     -46.615  14.344  23.040  0.00  0.00     0.020 A 
ATOM      8  C   UNL d   1     -46.572  13.141  22.271  0.00  0.00     0.049 A 
ATOM      9  C   UNL d   1     -47.442  14.311  23.028  0.00  0.00     0.002 A 
ATOM     10  C   UNL d   1     -47.832  13.696  22.640  0.00  0.00     0.001 A 
ATOM     11  C   UNL d   1     -47.398  13.108  22.260  0.00  0.00     0.008 A 
ATOM     12  S   UNL d   1     -46.000  12.638  21.944  0.00  0.00    -0.066 SA
ENDBRANCH   1   4
BRANCH   1  13
ATOM     13  C   UNL d   1     -44.168  12.844  21.210  0.00  0.00     0.093 C 
BRANCH  13  14
ATOM     14  N   UNL d   1     -43.405  13.158  21.214  0.00  0.00    -0.299 N 
ATOM     15  C   UNL d   1     -42.758  12.659  21.128  0.00  0.00     0.100 A 
ATOM     16  C   UNL d   1     -41.992  12.975  21.132  0.00  0.00     0.100 A 
ATOM     17  N   UNL d   1     -41.882  13.794  21.223  0.00  0.00    -0.300 N 
ATOM     18  C   UNL d   1     -42.537  14.288  21.308  0.00  0.00     0.100 A 
ATOM     19  C   UNL d   1     -43.296  13.976  21.305  0.00  0.00     0.100 A 
BRANCH  17  20
ATOM     20  C   UNL d   1     -41.121  14.111  21.227  0.00  0.00     0.080 C 
BRANCH  20  21
ATOM     21  C   UNL d   1     -40.849  14.536  20.579  0.00  0.00     0.020 A 
ATOM     22  C   UNL d   1     -40.558  14.139  19.927  0.00  0.00     0.028 A 
ATOM     23  C   UNL d   1     -40.285  14.561  19.276  0.00  0.00     0.119 A 
ATOM     24  O   UNL d   1     -39.966  14.309  18.553  0.00  0.00    -0.300 OA
ATOM     25  C   UNL d   1     -40.304  15.385  19.282  0.00  0.00     0.119 A 
ATOM     26  C   UNL d   1     -39.788  14.988  18.110  0.00  0.00     0.304 A 
ATOM     27  O   UNL d   1     -39.996  15.648  18.560  0.00  0.00    -0.300 OA
ATOM     28  C   UNL d   1     -40.597  15.785  19.941  0.00  0.00     0.026 A 
ATOM     29  C   UNL d   1     -40.872  15.359  20.595  0.00  0.00     0.004 A 
ENDBRANCH  20  21
ENDBRANCH  17  20
ENDBRANCH  13  14
ENDBRANCH   1  13
TORSDOF 5
ENDMDL
MODEL 8
REMARK VINA RESULT:      -3.3      2.960      6.330
REMARK  5 active torsions:
REMARK  status: ('A' for Active; 'I' for Inactive)
REMARK    1  A    between atoms: C_3  and  C_1 
REMARK    2  A    between atoms: C_5  and  C_3 
REMARK    3  A    between atoms: N_8  and  C_5 
REMARK    4  A    between atoms: C_19  and  N_11 
REMARK    5  A    between atoms: C_18  and  C_19 
ROOT
ATOM      1  C   UNL d   1     -46.536  12.819  23.004  0.00  0.00     0.110 C 
ATOM      2  C   UNL d   1     -46.437  12.080  23.353  0.00  0.00     0.105 C 
ATOM      3  N   UNL d   1     -46.348  11.344  23.698  0.00  0.00    -0.191 NA
ENDROOT
BRANCH   1   4
ATOM      4  C   UNL d   1     -47.271  13.036  22.698  0.00  0.00     0.122 A 
ATOM      5  N   UNL d   1     -47.683  12.649  22.097  0.00  0.00    -0.238 NA
ATOM      6  C   UNL d   1     -48.393  13.053  21.966  0.00  0.00     0.088 A 
ATOM      7  C   UNL d   1     -49.014  12.921  21.441  0.00  0.00     0.020 A 
ATOM      8  C   UNL d   1     -48.421  13.692  22.487  0.00  0.00     0.049 A 
ATOM      9  C   UNL d   1     -49.663  13.434  21.443  0.00  0.00     0.002 A 
ATOM     10  C   UNL d   1     -49.691  14.073  21.965  0.00  0.00     0.001 A 
ATOM     11  C   UNL d   1     -49.070  14.204  22.489  0.00  0.00     0.008 A 
ATOM     12  S   UNL d   1     -47.728  13.684  22.942  0.00  0.00    -0.066 SA
ENDBRANCH   1   4
BRANCH   1  13
ATOM     13  C   UNL d   1     -45.901  13.340  22.960  0.00  0.00     0.093 C 
BRANCH  13  14
ATOM     14  N   UNL d   1     -45.246  13.156  22.493  0.00  0.00    -0.299 N 
ATOM     15  C   UNL d   1     -44.791  12.495  22.670  0.00  0.00     0.100 A 
ATOM     16  C   UNL d   1     -44.133  12.310  22.201  0.00  0.00     0.100 A 
ATOM     17  N   UNL d   1     -43.938  12.794  21.555  0.00  0.00    -0.300 N 
ATOM     18  C   UNL d   1     -44.399  13.456  21.383  0.00  0.00     0.100 A 
ATOM     19  C   UNL d   1     -45.051  13.639  21.848  0.00  0.00     0.100 A 
BRANCH  17  20
ATOM     20  C   UNL d   1     -43.284  12.613  21.086  0.00  0.00     0.080 C 
BRANCH  20  21
ATOM     21  C   UNL d   1     -42.588  13.042  21.167  0.00  0.00     0.020 A 
ATOM     22  C   UNL d   1     -42.406  13.627  20.627  0.00  0.00     0.028 A 
ATOM     23  C   UNL d   1     -41.710  14.058  20.706  0.00  0.00     0.119 A 
ATOM     24  O   UNL d   1     -41.390  14.672  20.249  0.00  0.00    -0.300 OA
ATOM     25  C   UNL d   1     -41.196  13.899  21.330  0.00  0.00     0.119 A 
ATOM     26  C   UNL d   1     -40.670  14.892  20.598  0.00  0.00     0.304 A 
ATOM     27  O   UNL d   1     -40.552  14.416  21.262  0.00  0.00    -0.300 OA
ATOM     28  C   UNL d   1     -41.380  13.308  21.875  0.00  0.00     0.026 A 
ATOM     29  C   UNL d   1     -42.080  12.875  21.795  0.00  0.00     0.004 A 
ENDBRANCH  20  21
ENDBRANCH  17  20
ENDBRANCH  13  14
ENDBRANCH   1  13
TORSDOF 5
ENDMDL
