MODEL 1
REMARK VINA RESULT:     175.1      0.000      0.000
REMARK  4 active torsions:
REMARK  status: ('A' for Active; 'I' for Inactive)
REMARK    1  A    between atoms: N_10  and  C_3 
REMARK    2  A    between atoms: C_13  and  C_5 
REMARK    3  A    between atoms: C_19  and  C_9 
REMARK    4  A    between atoms: C_12  and  N_11 
ROOT
ATOM      1  N   UNL d   1     -57.155 -99.443 -43.397  0.00  0.00    -0.196 N 
ATOM      2  C   UNL d   1     -56.881 -99.438 -44.164  0.00  0.00     0.167 A 
ATOM      3  C   UNL d   1     -57.932 -99.310 -43.261  0.00  0.00     0.152 A 
ATOM      4  N   UNL d   1     -55.865 -99.711 -42.940  0.00  0.00    -0.163 NA
ATOM      5  C   UNL d   1     -56.115 -99.568 -44.310  0.00  0.00     0.055 A 
ATOM      6  N   UNL d   1     -57.397 -99.301 -44.765  0.00  0.00    -0.227 NA
ATOM      7  C   UNL d   1     -58.455 -99.170 -43.887  0.00  0.00     0.057 A 
ATOM      8  C   UNL d   1     -55.592 -99.707 -43.707  0.00  0.00     0.104 A 
ATOM      9  C   UNL d   1     -58.168 -99.170 -44.621  0.00  0.00     0.086 A 
ATOM     10  C   UNL d   1     -54.829 -99.836 -43.854  0.00  0.00     0.023 C 
ENDROOT
BRANCH   3  11
ATOM     11  N   UNL d   1     -58.216 -99.314 -42.475  0.00  0.00    -0.286 N 
ATOM     12  C   UNL d   1     -59.032 -99.291 -42.330  0.00  0.00     0.101 A 
ATOM     13  C   UNL d   1     -59.318 -99.295 -41.541  0.00  0.00     0.101 A 
ATOM     14  N   UNL d   1     -58.784 -99.322 -40.905  0.00  0.00    -0.286 N 
ATOM     15  C   UNL d   1     -57.965 -99.345 -41.049  0.00  0.00     0.101 A 
ATOM     16  C   UNL d   1     -57.676 -99.341 -41.833  0.00  0.00     0.101 A 
BRANCH  14  17
ATOM     17  C   UNL d   1     -59.069 -99.326 -40.120  0.00  0.00     0.148 A 
ATOM     18  N   UNL d   1     -58.741 -99.858 -39.563  0.00  0.00    -0.227 NA
ATOM     19  C   UNL d   1     -59.027 -99.859 -38.782  0.00  0.00     0.101 A 
ATOM     20  C   UNL d   1     -59.637 -99.335 -38.551  0.00  0.00     0.021 A 
ATOM     21  C   UNL d   1     -59.959 -98.809 -39.106  0.00  0.00     0.005 A 
ATOM     22  C   UNL d   1     -59.673 -98.804 -39.895  0.00  0.00     0.037 A 
ENDBRANCH  14  17
ENDBRANCH   3  11
BRANCH   9  23
ATOM     23  C   UNL d   1     -58.704 -99.027 -45.257  0.00  0.00     0.018 C 
ATOM     24  C   UNL d   1     -59.485 -98.757 -45.099  0.00  0.00     0.002 C 
ATOM     25  C   UNL d   1     -58.447 -99.158 -46.053  0.00  0.00     0.002 C 
ENDBRANCH   9  23
BRANCH   5  26
ATOM     26  C   UNL d   1     -55.839 -99.563 -45.084  0.00  0.00     0.004 A 
ATOM     27  C   UNL d   1     -56.184-100.029 -45.633  0.00  0.00     0.000 A 
ATOM     28  C   UNL d   1     -55.922-100.030 -46.385  0.00  0.00     0.000 A 
ATOM     29  C   UNL d   1     -55.301 -99.555 -46.594  0.00  0.00     0.000 A 
ATOM     30  C   UNL d   1     -54.952 -99.087 -46.048  0.00  0.00     0.000 A 
ATOM     31  C   UNL d   1     -55.224 -99.091 -45.286  0.00  0.00     0.000 A 
ENDBRANCH   5  26
TORSDOF 4
ENDMDL
