MODEL 1
REMARK VINA RESULT:      26.0      0.000      0.000
REMARK  3 active torsions:
REMARK  status: ('A' for Active; 'I' for Inactive)
REMARK    1  A    between atoms: C_5  and  N_1 
REMARK    2  A    between atoms: C_4  and  C_5 
REMARK       I    between atoms: N_8  and  C_4 
REMARK    3  A    between atoms: C_13  and  N_8 
ROOT
ATOM      1  C   UNL d   1      13.876  12.188  -2.053  0.00  0.00     0.297 C 
ATOM      2  N   UNL d   1      13.162  12.378  -2.404  0.00  0.00    -0.207 NA
ATOM      3  O   UNL d   1      14.548  12.042  -2.511  0.00  0.00    -0.264 OA
ENDROOT
BRANCH   1   4
ATOM      4  C   UNL d   1      13.926  12.142  -1.231  0.00  0.00     0.148 C 
BRANCH   4   5
ATOM      5  N   UNL d   1      14.457  12.630  -0.824  0.00  0.00    -0.235 N 
ATOM      6  C   UNL d   1      15.267  12.448  -0.824  0.00  0.00     0.274 A 
ATOM      7  O   UNL d   1      15.541  11.779  -1.231  0.00  0.00    -0.266 OA
ATOM      8  C   UNL d   1      15.792  12.930  -0.422  0.00  0.00     0.097 A 
ATOM      9  S   UNL d   1      15.529  13.594  -0.017  0.00  0.00    -0.076 SA
ATOM     10  C   UNL d   1      14.728  13.778  -0.014  0.00  0.00     0.097 A 
ATOM     11  C   UNL d   1      14.185  13.301  -0.416  0.00  0.00     0.274 A 
ATOM     12  O   UNL d   1      13.381  13.482  -0.415  0.00  0.00    -0.266 OA
ENDBRANCH   4   5
ENDBRANCH   1   4
BRANCH   2  13
ATOM     13  C   UNL d   1      13.111  12.424  -3.226  0.00  0.00     0.087 A 
ATOM     14  C   UNL d   1      13.327  13.119  -3.613  0.00  0.00     0.045 A 
ATOM     15  C   UNL d   1      13.281  13.175  -4.429  0.00  0.00     0.121 A 
ATOM     16  O   UNL d   1      13.456  13.788  -4.961  0.00  0.00    -0.299 OA
ATOM     17  C   UNL d   1      13.014  12.529  -4.871  0.00  0.00     0.119 A 
ATOM     18  C   UNL d   1      13.295  13.513  -5.728  0.00  0.00     0.304 A 
ATOM     19  O   UNL d   1      13.025  12.741  -5.662  0.00  0.00    -0.300 OA
ATOM     20  C   UNL d   1      12.798  11.832  -4.475  0.00  0.00     0.028 A 
ATOM     21  C   UNL d   1      12.847  11.781  -3.657  0.00  0.00     0.021 A 
ENDBRANCH   2  13
TORSDOF 3
ENDMDL
MODEL 2
REMARK VINA RESULT:      27.6      1.796      4.162
REMARK  3 active torsions:
REMARK  status: ('A' for Active; 'I' for Inactive)
REMARK    1  A    between atoms: C_5  and  N_1 
REMARK    2  A    between atoms: C_4  and  C_5 
REMARK       I    between atoms: N_8  and  C_4 
REMARK    3  A    between atoms: C_13  and  N_8 
ROOT
ATOM      1  C   UNL d   1      13.078  12.576  -3.325  0.00  0.00     0.297 C 
ATOM      2  N   UNL d   1      13.280  11.858  -2.989  0.00  0.00    -0.207 NA
ATOM      3  O   UNL d   1      13.173  13.282  -2.905  0.00  0.00    -0.264 OA
ENDROOT
BRANCH   1   4
ATOM      4  C   UNL d   1      12.774  12.597  -4.091  0.00  0.00     0.148 C 
BRANCH   4   5
ATOM      5  N   UNL d   1      13.177  13.012  -4.682  0.00  0.00    -0.235 N 
ATOM      6  C   UNL d   1      13.489  12.603  -5.334  0.00  0.00     0.274 A 
ATOM      7  O   UNL d   1      13.395  11.781  -5.390  0.00  0.00    -0.266 OA
ATOM      8  C   UNL d   1      13.888  13.014  -5.918  0.00  0.00     0.097 A 
ATOM      9  S   UNL d   1      13.986  13.828  -5.870  0.00  0.00    -0.076 SA
ATOM     10  C   UNL d   1      13.679  14.237  -5.226  0.00  0.00     0.097 A 
ATOM     11  C   UNL d   1      13.273  13.836  -4.628  0.00  0.00     0.274 A 
ATOM     12  O   UNL d   1      12.964  14.243  -3.981  0.00  0.00    -0.266 OA
ENDBRANCH   4   5
ENDBRANCH   1   4
BRANCH   2  13
ATOM     13  C   UNL d   1      13.584  11.837  -2.223  0.00  0.00     0.087 A 
ATOM     14  C   UNL d   1      14.400  11.843  -2.104  0.00  0.00     0.045 A 
ATOM     15  C   UNL d   1      14.711  11.822  -1.346  0.00  0.00     0.121 A 
ATOM     16  O   UNL d   1      15.491  11.823  -1.060  0.00  0.00    -0.299 OA
ATOM     17  C   UNL d   1      14.205  11.795  -0.694  0.00  0.00     0.119 A 
ATOM     18  C   UNL d   1      15.456  11.796  -0.231  0.00  0.00     0.304 A 
ATOM     19  O   UNL d   1      14.664  11.779  -0.016  0.00  0.00    -0.300 OA
ATOM     20  C   UNL d   1      13.384  11.789  -0.821  0.00  0.00     0.028 A 
ATOM     21  C   UNL d   1      13.076  11.810  -1.582  0.00  0.00     0.021 A 
ENDBRANCH   2  13
TORSDOF 3
ENDMDL
