MODEL 1
REMARK VINA RESULT:      53.1      0.000      0.000
REMARK  8 active torsions:
REMARK  status: ('A' for Active; 'I' for Inactive)
REMARK    1  A    between atoms: C_8  and  N_1 
REMARK    2  A    between atoms: C_6  and  C_2 
REMARK    3  A    between atoms: S_7  and  C_4 
REMARK    4  A    between atoms: C_12  and  S_7 
REMARK    5  A    between atoms: C_9  and  C_12 
REMARK    6  A    between atoms: O_14  and  C_9 
REMARK    7  A    between atoms: O_16  and  C_13 
REMARK    8  A    between atoms: C_21  and  O_14 
ROOT
ATOM      1  N   UNL d   1      13.477  13.091  -3.182  0.00  0.00    -0.269 N 
ATOM      2  C   UNL d   1      13.368  12.488  -3.728  0.00  0.00     0.171 A 
ATOM      3  N   UNL d   1      13.324  11.779  -3.290  0.00  0.00    -0.128 NA
ATOM      4  C   UNL d   1      13.499  12.758  -2.426  0.00  0.00     0.201 A 
ATOM      5  N   UNL d   1      13.402  11.929  -2.508  0.00  0.00    -0.121 NA
ENDROOT
BRANCH   2   6
ATOM      6  C   UNL d   1      13.322  12.630  -4.516  0.00  0.00     0.038 A 
ATOM      7  C   UNL d   1      13.789  12.204  -5.045  0.00  0.00     0.027 A 
ATOM      8  C   UNL d   1      13.764  12.325  -5.835  0.00  0.00     0.094 A 
ATOM      9  C   UNL d   1      13.240  12.910  -6.146  0.00  0.00     0.024 A 
ATOM     10  C   UNL d   1      12.773  13.337  -5.617  0.00  0.00     0.002 A 
ATOM     11  C   UNL d   1      12.820  13.190  -4.807  0.00  0.00     0.003 A 
BRANCH   8  12
ATOM     12  O   UNL d   1      14.257  11.871  -6.350  0.00  0.00    -0.328 OA
ATOM     13  C   UNL d   1      15.057  11.781  -6.166  0.00  0.00     0.181 C 
ENDBRANCH   8  12
ENDBRANCH   2   6
BRANCH   1  14
ATOM     14  C   UNL d   1      13.537  13.860  -3.486  0.00  0.00     0.067 A 
ATOM     15  C   UNL d   1      14.260  14.248  -3.440  0.00  0.00     0.018 A 
ATOM     16  C   UNL d   1      14.315  15.018  -3.747  0.00  0.00     0.002 A 
ATOM     17  C   UNL d   1      13.668  15.396  -4.092  0.00  0.00     0.000 A 
ATOM     18  C   UNL d   1      12.941  14.999  -4.135  0.00  0.00     0.002 A 
ATOM     19  C   UNL d   1      12.886  14.229  -3.829  0.00  0.00     0.018 A 
ENDBRANCH   1  14
BRANCH   4  20
ATOM     20  S   UNL d   1      13.604  13.191  -1.697  0.00  0.00    -0.042 SA
BRANCH  20  21
ATOM     21  C   UNL d   1      14.053  12.899  -1.065  0.00  0.00     0.107 C 
BRANCH  21  22
ATOM     22  C   UNL d   1      14.683  13.325  -0.759  0.00  0.00     0.307 C 
ATOM     23  O   UNL d   1      14.574  14.055  -0.365  0.00  0.00    -0.258 OA
BRANCH  22  24
ATOM     24  O   UNL d   1      15.450  13.020  -0.844  0.00  0.00    -0.271 OA
BRANCH  24  25
ATOM     25  C   UNL d   1      15.578  12.239  -1.102  0.00  0.00     0.126 C 
ATOM     26  C   UNL d   1      16.198  11.781  -0.797  0.00  0.00     0.029 C 
ENDBRANCH  24  25
ENDBRANCH  22  24
ENDBRANCH  21  22
ENDBRANCH  20  21
ENDBRANCH   4  20
TORSDOF 8
ENDMDL
MODEL 2
REMARK VINA RESULT:      56.1      1.834      3.045
REMARK  8 active torsions:
REMARK  status: ('A' for Active; 'I' for Inactive)
REMARK    1  A    between atoms: C_8  and  N_1 
REMARK    2  A    between atoms: C_6  and  C_2 
REMARK    3  A    between atoms: S_7  and  C_4 
REMARK    4  A    between atoms: C_12  and  S_7 
REMARK    5  A    between atoms: C_9  and  C_12 
REMARK    6  A    between atoms: O_14  and  C_9 
REMARK    7  A    between atoms: O_16  and  C_13 
REMARK    8  A    between atoms: C_21  and  O_14 
ROOT
ATOM      1  N   UNL d   1      14.207  13.938  -2.298  0.00  0.00    -0.269 N 
ATOM      2  C   UNL d   1      13.773  13.901  -2.995  0.00  0.00     0.171 A 
ATOM      3  N   UNL d   1      13.706  14.685  -3.272  0.00  0.00    -0.128 NA
ATOM      4  C   UNL d   1      14.401  14.728  -2.153  0.00  0.00     0.201 A 
ATOM      5  N   UNL d   1      14.078  15.190  -2.775  0.00  0.00    -0.121 NA
ENDROOT
BRANCH   2   6
ATOM      6  C   UNL d   1      13.501  13.207  -3.290  0.00  0.00     0.038 A 
ATOM      7  C   UNL d   1      13.509  13.067  -4.103  0.00  0.00     0.027 A 
ATOM      8  C   UNL d   1      13.244  12.385  -4.424  0.00  0.00     0.094 A 
ATOM      9  C   UNL d   1      12.942  11.780  -3.917  0.00  0.00     0.024 A 
ATOM     10  C   UNL d   1      12.933  11.919  -3.104  0.00  0.00     0.002 A 
ATOM     11  C   UNL d   1      13.214  12.633  -2.801  0.00  0.00     0.003 A 
BRANCH   8  12
ATOM     12  O   UNL d   1      13.266  12.273  -5.261  0.00  0.00    -0.328 OA
ATOM     13  C   UNL d   1      13.997  12.183  -5.636  0.00  0.00     0.181 C 
ENDBRANCH   8  12
ENDBRANCH   2   6
BRANCH   1  14
ATOM     14  C   UNL d   1      14.351  13.218  -1.912  0.00  0.00     0.067 A 
ATOM     15  C   UNL d   1      15.004  12.773  -2.135  0.00  0.00     0.018 A 
ATOM     16  C   UNL d   1      15.143  12.053  -1.745  0.00  0.00     0.002 A 
ATOM     17  C   UNL d   1      14.645  11.779  -1.147  0.00  0.00     0.000 A 
ATOM     18  C   UNL d   1      13.987  12.233  -0.927  0.00  0.00     0.002 A 
ATOM     19  C   UNL d   1      13.848  12.954  -1.317  0.00  0.00     0.018 A 
ENDBRANCH   1  14
BRANCH   4  20
ATOM     20  S   UNL d   1      14.850  15.013  -1.485  0.00  0.00    -0.042 SA
BRANCH  20  21
ATOM     21  C   UNL d   1      15.143  15.787  -1.441  0.00  0.00     0.107 C 
BRANCH  21  22
ATOM     22  C   UNL d   1      15.197  16.181  -0.724  0.00  0.00     0.307 C 
ATOM     23  O   UNL d   1      15.469  15.801  -0.030  0.00  0.00    -0.258 OA
BRANCH  22  24
ATOM     24  O   UNL d   1      14.975  16.979  -0.690  0.00  0.00    -0.271 OA
BRANCH  24  25
ATOM     25  C   UNL d   1      15.278  17.536  -1.231  0.00  0.00     0.126 C 
ATOM     26  C   UNL d   1      15.867  18.075  -1.009  0.00  0.00     0.029 C 
ENDBRANCH  24  25
ENDBRANCH  22  24
ENDBRANCH  21  22
ENDBRANCH  20  21
ENDBRANCH   4  20
TORSDOF 8
ENDMDL
