MODEL 1
REMARK VINA RESULT:      64.0      0.000      0.000
REMARK  2 active torsions:
REMARK  status: ('A' for Active; 'I' for Inactive)
REMARK    1  A    between atoms: N_11  and  C_4 
REMARK    2  A    between atoms: C_16  and  N_12 
ROOT
ATOM      1  N   UNL d   1      46.074 -18.016  41.298  0.00  0.00    -0.195 N 
ATOM      2  C   UNL d   1      46.262 -18.518  41.901  0.00  0.00     0.168 A 
ATOM      3  C   UNL d   1      46.262 -18.264  42.655  0.00  0.00     0.073 A 
ATOM      4  C   UNL d   1      46.079 -18.287  40.551  0.00  0.00     0.153 A 
ATOM      5  N   UNL d   1      45.886 -17.003  42.199  0.00  0.00    -0.143 NA
ATOM      6  C   UNL d   1      46.073 -17.505  42.803  0.00  0.00     0.185 A 
ATOM      7  N   UNL d   1      46.450 -19.278  41.742  0.00  0.00    -0.227 NA
ATOM      8  C   UNL d   1      46.447 -18.761  43.252  0.00  0.00     0.007 A 
ATOM      9  N   UNL d   1      46.069 -17.233  43.561  0.00  0.00    -0.225 NA
ATOM     10  C   UNL d   1      46.265 -19.039  40.388  0.00  0.00     0.057 A 
ATOM     11  C   UNL d   1      46.447 -18.506  44.007  0.00  0.00     0.019 A 
ATOM     12  C   UNL d   1      46.452 -19.541  40.992  0.00  0.00     0.086 A 
ATOM     13  C   UNL d   1      46.257 -17.735  44.164  0.00  0.00     0.083 A 
ATOM     14  C   UNL d   1      46.636 -19.523  43.090  0.00  0.00     0.000 C 
ATOM     15  C   UNL d   1      46.647 -20.330  40.823  0.00  0.00     0.021 C 
ATOM     16  C   UNL d   1      46.255 -17.476  44.912  0.00  0.00     0.021 C 
ENDROOT
BRANCH   4  17
ATOM     17  N   UNL d   1      45.885 -17.763  39.934  0.00  0.00    -0.286 N 
ATOM     18  C   UNL d   1      45.110 -17.790  39.633  0.00  0.00     0.101 A 
ATOM     19  C   UNL d   1      44.881 -17.283  39.018  0.00  0.00     0.100 A 
ATOM     20  N   UNL d   1      45.431 -16.751  38.707  0.00  0.00    -0.301 N 
ATOM     21  C   UNL d   1      46.208 -16.717  39.001  0.00  0.00     0.100 A 
ATOM     22  C   UNL d   1      46.434 -17.228  39.620  0.00  0.00     0.101 A 
BRANCH  20  23
ATOM     23  C   UNL d   1      45.207 -16.245  38.095  0.00  0.00     0.065 A 
ATOM     24  C   UNL d   1      44.436 -16.280  37.781  0.00  0.00     0.029 A 
ATOM     25  C   UNL d   1      44.211 -15.765  37.160  0.00  0.00     0.059 A 
ATOM     26 CL   UNL d   1      43.444 -15.798  36.846  0.00  0.00    -0.082 Cl
ATOM     27  C   UNL d   1      44.763 -15.214  36.856  0.00  0.00     0.011 A 
ATOM     28  C   UNL d   1      45.538 -15.183  37.176  0.00  0.00     0.002 A 
ATOM     29  C   UNL d   1      45.754 -15.693  37.788  0.00  0.00     0.018 A 
ENDBRANCH  20  23
ENDBRANCH   4  17
TORSDOF 2
ENDMDL
