MODEL 1
REMARK VINA RESULT:      80.4      0.000      0.000
REMARK  4 active torsions:
REMARK  status: ('A' for Active; 'I' for Inactive)
REMARK    1  A    between atoms: C_2  and  C_1 
REMARK       I    between atoms: N_5  and  C_2 
REMARK    2  A    between atoms: C_10  and  N_5 
REMARK    3  A    between atoms: O_9  and  C_11 
REMARK    4  A    between atoms: C_12  and  O_9 
ROOT
ATOM      1  C   UNL d   1      61.576  46.495  49.816  0.00  0.00     0.085 A 
ATOM      2  C   UNL d   1      61.783  44.879  49.622  0.00  0.00     0.100 A 
ATOM      3  C   UNL d   1      62.239  46.211  49.406  0.00  0.00     0.021 A 
ATOM      4  C   UNL d   1      61.021  45.968  50.126  0.00  0.00     0.021 A 
ATOM      5  C   UNL d   1      62.341  45.406  49.310  0.00  0.00     0.026 A 
ATOM      6  C   UNL d   1      61.134  45.157  50.023  0.00  0.00     0.026 A 
ENDROOT
BRANCH   1   7
ATOM      7  N   UNL d   1      61.471  47.306  49.915  0.00  0.00    -0.206 NA
ATOM      8  C   UNL d   1      61.149  47.597  50.620  0.00  0.00     0.303 C 
ATOM      9  O   UNL d   1      60.935  47.074  51.217  0.00  0.00    -0.263 OA
BRANCH   8  10
ATOM     10  C   UNL d   1      61.043  48.408  50.719  0.00  0.00     0.176 A 
ATOM     11  C   UNL d   1      60.978  48.802  51.442  0.00  0.00     0.110 A 
ATOM     12  N   UNL d   1      60.879  49.605  51.289  0.00  0.00    -0.233 NA
ATOM     13  C   UNL d   1      61.006  48.453  52.182  0.00  0.00     0.023 C 
ATOM     14  C   UNL d   1      60.883  49.708  50.462  0.00  0.00     0.259 A 
ATOM     15  O   UNL d   1      60.985  48.963  50.118  0.00  0.00    -0.296 OA
ENDBRANCH   8  10
ENDBRANCH   1   7
BRANCH   2  16
ATOM     16  O   UNL d   1      61.893  44.065  49.520  0.00  0.00    -0.307 OA
BRANCH  16  17
ATOM     17  C   UNL d   1      62.155  43.607  50.137  0.00  0.00     0.100 A 
ATOM     18  C   UNL d   1      62.850  43.167  50.048  0.00  0.00     0.025 A 
ATOM     19  C   UNL d   1      63.114  42.703  50.676  0.00  0.00     0.002 A 
ATOM     20  C   UNL d   1      62.692  42.673  51.394  0.00  0.00     0.000 A 
ATOM     21  C   UNL d   1      61.987  43.126  51.470  0.00  0.00     0.002 A 
ATOM     22  C   UNL d   1      61.741  43.582  50.832  0.00  0.00     0.025 A 
ENDBRANCH  16  17
ENDBRANCH   2  16
TORSDOF 4
ENDMDL
