MODEL 1
REMARK VINA RESULT:      34.3      0.000      0.000
REMARK  3 active torsions:
REMARK  status: ('A' for Active; 'I' for Inactive)
REMARK    1  A    between atoms: N_3  and  C_1 
REMARK       I    between atoms: C_5  and  N_3 
REMARK    2  A    between atoms: C_6  and  C_5 
REMARK    3  A    between atoms: O_19  and  C_17 
ROOT
ATOM      1  N   UNL d   1     -55.248-102.466 -41.320  0.00  0.00    -0.181 NA
ATOM      2  C   UNL d   1     -55.009-101.759 -41.669  0.00  0.00     0.306 C 
ATOM      3  O   UNL d   1     -54.838-101.093 -41.184  0.00  0.00    -0.263 OA
ENDROOT
BRANCH   1   4
ATOM      4  C   UNL d   1     -55.323-102.530 -40.502  0.00  0.00     0.197 A 
ATOM      5  N   UNL d   1     -56.024-102.723 -40.106  0.00  0.00    -0.221 NA
ATOM      6  C   UNL d   1     -55.848-102.725 -39.295  0.00  0.00     0.090 A 
ATOM      7  C   UNL d   1     -56.322-102.878 -38.638  0.00  0.00     0.022 A 
ATOM      8  C   UNL d   1     -55.052-102.535 -39.207  0.00  0.00     0.052 A 
ATOM      9  C   UNL d   1     -55.980-102.836 -37.884  0.00  0.00     0.026 A 
ATOM     10  C   UNL d   1     -55.193-102.648 -37.797  0.00  0.00     0.095 A 
ATOM     11  C   UNL d   1     -54.711-102.493 -38.453  0.00  0.00     0.032 A 
ATOM     12  S   UNL d   1     -54.742-102.418 -39.952  0.00  0.00    -0.047 SA
BRANCH  10  13
ATOM     13  O   UNL d   1     -54.834-102.603 -37.022  0.00  0.00    -0.328 OA
ATOM     14  C   UNL d   1     -55.312-102.740 -36.345  0.00  0.00     0.181 C 
ENDBRANCH  10  13
ENDBRANCH   1   4
BRANCH   2  15
ATOM     15  C   UNL d   1     -54.934-101.696 -42.487  0.00  0.00     0.182 A 
ATOM     16  O   UNL d   1     -54.952-100.950 -42.830  0.00  0.00    -0.298 OA
ATOM     17  C   UNL d   1     -54.877-100.882 -43.659  0.00  0.00     0.123 A 
ATOM     18  C   UNL d   1     -54.894-100.134 -44.014  0.00  0.00     0.027 A 
ATOM     19  C   UNL d   1     -54.786-101.555 -44.114  0.00  0.00     0.123 A 
ATOM     20  C   UNL d   1     -54.819-100.075 -44.834  0.00  0.00     0.002 A 
ATOM     21  C   UNL d   1     -54.729-100.736 -45.294  0.00  0.00     0.002 A 
ATOM     22  C   UNL d   1     -54.712-101.485 -44.939  0.00  0.00     0.027 A 
ATOM     23  O   UNL d   1     -54.769-102.304 -43.759  0.00  0.00    -0.301 OA
ATOM     24  C   UNL d   1     -54.844-102.360 -42.944  0.00  0.00     0.152 A 
ENDBRANCH   2  15
TORSDOF 3
ENDMDL
