MODEL 1
REMARK VINA RESULT:      -3.5      0.000      0.000
REMARK  1 active torsions:
REMARK  status: ('A' for Active; 'I' for Inactive)
REMARK    1  A    between atoms: N_9  and  C_4 
ROOT
ATOM      1  N   UNL d   1      58.463  -1.729  29.683  0.00  0.00    -0.195 N 
ATOM      2  C   UNL d   1      58.507  -0.922  29.870  0.00  0.00     0.168 A 
ATOM      3  C   UNL d   1      58.024  -0.601  30.447  0.00  0.00     0.073 A 
ATOM      4  C   UNL d   1      58.954  -2.031  29.104  0.00  0.00     0.154 A 
ATOM      5  N   UNL d   1      57.453  -1.899  30.647  0.00  0.00    -0.143 NA
ATOM      6  C   UNL d   1      57.497  -1.091  30.835  0.00  0.00     0.185 A 
ATOM      7  N   UNL d   1      59.040  -0.439  29.474  0.00  0.00    -0.227 NA
ATOM      8  C   UNL d   1      58.067   0.198  30.633  0.00  0.00     0.007 A 
ATOM      9  N   UNL d   1      57.001  -0.781  31.421  0.00  0.00    -0.225 NA
ATOM     10  C   UNL d   1      59.484  -1.558  28.708  0.00  0.00     0.057 A 
ATOM     11  C   UNL d   1      57.584   0.519  31.209  0.00  0.00     0.019 A 
ATOM     12  C   UNL d   1      59.527  -0.750  28.896  0.00  0.00     0.086 A 
ATOM     13  C   UNL d   1      57.044   0.026  31.609  0.00  0.00     0.083 A 
ATOM     14  C   UNL d   1      58.603   0.682  30.234  0.00  0.00     0.000 C 
ATOM     15  C   UNL d   1      60.083  -0.251  28.482  0.00  0.00     0.021 C 
ATOM     16  C   UNL d   1      56.561   0.339  32.184  0.00  0.00     0.021 C 
ENDROOT
BRANCH   4  17
ATOM     17  N   UNL d   1      58.903  -2.865  28.916  0.00  0.00    -0.271 N 
ATOM     18  C   UNL d   1      58.259  -3.256  28.517  0.00  0.00     0.184 A 
ATOM     19  N   UNL d   1      58.452  -4.076  28.455  0.00  0.00    -0.222 NA
ATOM     20  C   UNL d   1      59.222  -4.201  28.817  0.00  0.00     0.120 A 
ATOM     21  C   UNL d   1      59.497  -3.449  29.101  0.00  0.00     0.104 A 
ENDBRANCH   4  17
TORSDOF 1
ENDMDL
MODEL 2
REMARK VINA RESULT:      -3.1      0.994      3.739
REMARK  1 active torsions:
REMARK  status: ('A' for Active; 'I' for Inactive)
REMARK    1  A    between atoms: N_9  and  C_4 
ROOT
ATOM      1  N   UNL d   1      59.044  -1.101  29.556  0.00  0.00    -0.195 N 
ATOM      2  C   UNL d   1      59.684  -1.487  29.194  0.00  0.00     0.168 A 
ATOM      3  C   UNL d   1      59.639  -2.282  29.007  0.00  0.00     0.073 A 
ATOM      4  C   UNL d   1      59.106  -0.306  29.735  0.00  0.00     0.154 A 
ATOM      5  N   UNL d   1      58.313  -2.303  29.544  0.00  0.00    -0.143 NA
ATOM      6  C   UNL d   1      58.953  -2.689  29.183  0.00  0.00     0.185 A 
ATOM      7  N   UNL d   1      60.369  -1.067  29.023  0.00  0.00    -0.227 NA
ATOM      8  C   UNL d   1      60.272  -2.664  28.650  0.00  0.00     0.007 A 
ATOM      9  N   UNL d   1      58.892  -3.495  29.000  0.00  0.00    -0.225 NA
ATOM     10  C   UNL d   1      59.782   0.113  29.567  0.00  0.00     0.057 A 
ATOM     11  C   UNL d   1      60.229  -3.458  28.463  0.00  0.00     0.019 A 
ATOM     12  C   UNL d   1      60.422  -0.273  29.206  0.00  0.00     0.086 A 
ATOM     13  C   UNL d   1      59.532  -3.880  28.639  0.00  0.00     0.083 A 
ATOM     14  C   UNL d   1      60.960  -2.241  28.478  0.00  0.00     0.000 C 
ATOM     15  C   UNL d   1      61.133   0.166  29.028  0.00  0.00     0.021 C 
ATOM     16  C   UNL d   1      59.482  -4.672  28.455  0.00  0.00     0.021 C 
ENDROOT
BRANCH   4  17
ATOM     17  N   UNL d   1      58.442   0.084  30.107  0.00  0.00    -0.271 N 
ATOM     18  C   UNL d   1      57.714   0.318  29.729  0.00  0.00     0.184 A 
ATOM     19  N   UNL d   1      57.224   0.682  30.313  0.00  0.00    -0.222 NA
ATOM     20  C   UNL d   1      57.646   0.676  31.062  0.00  0.00     0.120 A 
ATOM     21  C   UNL d   1      58.398   0.306  30.930  0.00  0.00     0.104 A 
ENDBRANCH   4  17
TORSDOF 1
ENDMDL
MODEL 3
REMARK VINA RESULT:      -2.1      2.409      4.585
REMARK  1 active torsions:
REMARK  status: ('A' for Active; 'I' for Inactive)
REMARK    1  A    between atoms: N_9  and  C_4 
ROOT
ATOM      1  N   UNL d   1      56.949   0.250  32.377  0.00  0.00    -0.195 N 
ATOM      2  C   UNL d   1      57.739   0.394  32.168  0.00  0.00     0.168 A 
ATOM      3  C   UNL d   1      57.969   0.397  31.383  0.00  0.00     0.073 A 
ATOM      4  C   UNL d   1      56.738   0.252  33.166  0.00  0.00     0.154 A 
ATOM      5  N   UNL d   1      56.614   0.111  31.017  0.00  0.00    -0.143 NA
ATOM      6  C   UNL d   1      57.405   0.255  30.808  0.00  0.00     0.185 A 
ATOM      7  N   UNL d   1      58.297   0.536  32.754  0.00  0.00    -0.227 NA
ATOM      8  C   UNL d   1      58.750   0.539  31.176  0.00  0.00     0.007 A 
ATOM      9  N   UNL d   1      57.622   0.254  30.009  0.00  0.00    -0.225 NA
ATOM     10  C   UNL d   1      57.286   0.391  33.750  0.00  0.00     0.057 A 
ATOM     11  C   UNL d   1      58.980   0.541  30.392  0.00  0.00     0.019 A 
ATOM     12  C   UNL d   1      58.076   0.535  33.541  0.00  0.00     0.086 A 
ATOM     13  C   UNL d   1      58.412   0.398  29.800  0.00  0.00     0.083 A 
ATOM     14  C   UNL d   1      59.310   0.681  31.766  0.00  0.00     0.000 C 
ATOM     15  C   UNL d   1      58.654   0.682  34.153  0.00  0.00     0.021 C 
ATOM     16  C   UNL d   1      58.634   0.399  29.017  0.00  0.00     0.021 C 
ENDROOT
BRANCH   4  17
ATOM     17  N   UNL d   1      55.921   0.103  33.373  0.00  0.00    -0.271 N 
ATOM     18  C   UNL d   1      55.507  -0.639  33.301  0.00  0.00     0.184 A 
ATOM     19  N   UNL d   1      54.715  -0.522  33.571  0.00  0.00    -0.222 NA
ATOM     20  C   UNL d   1      54.631   0.299  33.814  0.00  0.00     0.120 A 
ATOM     21  C   UNL d   1      55.380   0.681  33.690  0.00  0.00     0.104 A 
ENDBRANCH   4  17
TORSDOF 1
ENDMDL
MODEL 4
REMARK VINA RESULT:      -1.4      8.721      9.246
REMARK  1 active torsions:
REMARK  status: ('A' for Active; 'I' for Inactive)
REMARK    1  A    between atoms: N_9  and  C_4 
ROOT
ATOM      1  N   UNL d   1      59.909  -9.673  32.359  0.00  0.00    -0.195 N 
ATOM      2  C   UNL d   1      59.463  -9.647  33.059  0.00  0.00     0.168 A 
ATOM      3  C   UNL d   1      59.832  -9.574  33.786  0.00  0.00     0.073 A 
ATOM      4  C   UNL d   1      59.523  -9.746  31.643  0.00  0.00     0.154 A 
ATOM      5  N   UNL d   1      61.094  -9.553  33.109  0.00  0.00    -0.143 NA
ATOM      6  C   UNL d   1      60.648  -9.527  33.809  0.00  0.00     0.185 A 
ATOM      7  N   UNL d   1      58.644  -9.695  33.023  0.00  0.00    -0.227 NA
ATOM      8  C   UNL d   1      59.392  -9.548  34.478  0.00  0.00     0.007 A 
ATOM      9  N   UNL d   1      61.036  -9.453  34.537  0.00  0.00    -0.225 NA
ATOM     10  C   UNL d   1      58.713  -9.793  31.602  0.00  0.00     0.057 A 
ATOM     11  C   UNL d   1      59.760  -9.476  35.204  0.00  0.00     0.019 A 
ATOM     12  C   UNL d   1      58.267  -9.768  32.302  0.00  0.00     0.086 A 
ATOM     13  C   UNL d   1      60.591  -9.427  35.237  0.00  0.00     0.083 A 
ATOM     14  C   UNL d   1      58.569  -9.597  34.441  0.00  0.00     0.000 C 
ATOM     15  C   UNL d   1      57.416  -9.818  32.261  0.00  0.00     0.021 C 
ATOM     16  C   UNL d   1      60.964  -9.355  35.957  0.00  0.00     0.021 C 
ENDROOT
BRANCH   4  17
ATOM     17  N   UNL d   1      59.990  -9.772  30.926  0.00  0.00    -0.271 N 
ATOM     18  C   UNL d   1      60.841  -9.798  30.876  0.00  0.00     0.184 A 
ATOM     19  N   UNL d   1      61.052  -9.818  30.058  0.00  0.00    -0.222 NA
ATOM     20  C   UNL d   1      60.329  -9.803  29.592  0.00  0.00     0.120 A 
ATOM     21  C   UNL d   1      59.676  -9.775  30.133  0.00  0.00     0.104 A 
ENDBRANCH   4  17
TORSDOF 1
ENDMDL
MODEL 5
REMARK VINA RESULT:      -1.4      8.622      8.836
REMARK  1 active torsions:
REMARK  status: ('A' for Active; 'I' for Inactive)
REMARK    1  A    between atoms: N_9  and  C_4 
ROOT
ATOM      1  N   UNL d   1      58.682  -9.771  30.905  0.00  0.00    -0.195 N 
ATOM      2  C   UNL d   1      59.387  -9.785  31.343  0.00  0.00     0.168 A 
ATOM      3  C   UNL d   1      59.370  -9.786  32.161  0.00  0.00     0.073 A 
ATOM      4  C   UNL d   1      58.719  -9.771  30.089  0.00  0.00     0.154 A 
ATOM      5  N   UNL d   1      57.940  -9.759  32.100  0.00  0.00    -0.143 NA
ATOM      6  C   UNL d   1      58.644  -9.773  32.538  0.00  0.00     0.185 A 
ATOM      7  N   UNL d   1      60.109  -9.798  30.952  0.00  0.00    -0.227 NA
ATOM      8  C   UNL d   1      60.067  -9.800  32.594  0.00  0.00     0.007 A 
ATOM      9  N   UNL d   1      58.611  -9.773  33.366  0.00  0.00    -0.225 NA
ATOM     10  C   UNL d   1      59.431  -9.784  29.698  0.00  0.00     0.057 A 
ATOM     11  C   UNL d   1      60.050  -9.801  33.411  0.00  0.00     0.019 A 
ATOM     12  C   UNL d   1      60.136  -9.798  30.136  0.00  0.00     0.086 A 
ATOM     13  C   UNL d   1      59.316  -9.787  33.804  0.00  0.00     0.083 A 
ATOM     14  C   UNL d   1      60.792  -9.813  32.201  0.00  0.00     0.000 C 
ATOM     15  C   UNL d   1      60.886  -9.811  29.727  0.00  0.00     0.021 C 
ATOM     16  C   UNL d   1      59.292  -9.788  34.618  0.00  0.00     0.021 C 
ENDROOT
BRANCH   4  17
ATOM     17  N   UNL d   1      57.987  -9.756  29.645  0.00  0.00    -0.271 N 
ATOM     18  C   UNL d   1      57.198  -9.791  29.967  0.00  0.00     0.184 A 
ATOM     19  N   UNL d   1      56.654  -9.761  29.322  0.00  0.00    -0.222 NA
ATOM     20  C   UNL d   1      57.103  -9.707  28.591  0.00  0.00     0.120 A 
ATOM     21  C   UNL d   1      57.927  -9.704  28.796  0.00  0.00     0.104 A 
ENDBRANCH   4  17
TORSDOF 1
ENDMDL
MODEL 6
REMARK VINA RESULT:      -0.7      2.913      3.682
REMARK  1 active torsions:
REMARK  status: ('A' for Active; 'I' for Inactive)
REMARK    1  A    between atoms: N_9  and  C_4 
ROOT
ATOM      1  N   UNL d   1      58.448   0.667  31.983  0.00  0.00    -0.195 N 
ATOM      2  C   UNL d   1      57.624   0.660  31.888  0.00  0.00     0.168 A 
ATOM      3  C   UNL d   1      57.129   0.664  32.539  0.00  0.00     0.073 A 
ATOM      4  C   UNL d   1      58.927   0.662  31.321  0.00  0.00     0.154 A 
ATOM      5  N   UNL d   1      58.286   0.682  33.381  0.00  0.00    -0.143 NA
ATOM      6  C   UNL d   1      57.462   0.675  33.286  0.00  0.00     0.185 A 
ATOM      7  N   UNL d   1      57.300   0.649  31.133  0.00  0.00    -0.227 NA
ATOM      8  C   UNL d   1      56.313   0.658  32.445  0.00  0.00     0.007 A 
ATOM      9  N   UNL d   1      56.974   0.680  33.955  0.00  0.00    -0.225 NA
ATOM     10  C   UNL d   1      58.612   0.651  30.572  0.00  0.00     0.057 A 
ATOM     11  C   UNL d   1      55.818   0.662  33.095  0.00  0.00     0.019 A 
ATOM     12  C   UNL d   1      57.787   0.645  30.476  0.00  0.00     0.086 A 
ATOM     13  C   UNL d   1      56.149   0.673  33.859  0.00  0.00     0.083 A 
ATOM     14  C   UNL d   1      55.989   0.647  31.686  0.00  0.00     0.000 C 
ATOM     15  C   UNL d   1      57.454   0.633  29.690  0.00  0.00     0.021 C 
ATOM     16  C   UNL d   1      55.662   0.677  34.512  0.00  0.00     0.021 C 
ENDROOT
BRANCH   4  17
ATOM     17  N   UNL d   1      59.776   0.669  31.428  0.00  0.00    -0.271 N 
ATOM     18  C   UNL d   1      60.193   0.670  32.172  0.00  0.00     0.184 A 
ATOM     19  N   UNL d   1      61.021   0.678  32.005  0.00  0.00    -0.222 NA
ATOM     20  C   UNL d   1      61.125   0.682  31.152  0.00  0.00     0.120 A 
ATOM     21  C   UNL d   1      60.352   0.676  30.799  0.00  0.00     0.104 A 
ENDBRANCH   4  17
TORSDOF 1
ENDMDL
MODEL 7
REMARK VINA RESULT:      -0.7      1.445      2.686
REMARK  1 active torsions:
REMARK  status: ('A' for Active; 'I' for Inactive)
REMARK    1  A    between atoms: N_9  and  C_4 
ROOT
ATOM      1  N   UNL d   1      58.678  -0.271  30.605  0.00  0.00    -0.195 N 
ATOM      2  C   UNL d   1      58.002  -0.662  30.884  0.00  0.00     0.168 A 
ATOM      3  C   UNL d   1      57.601  -0.385  31.542  0.00  0.00     0.073 A 
ATOM      4  C   UNL d   1      59.065  -0.562  29.947  0.00  0.00     0.154 A 
ATOM      5  N   UNL d   1      58.557   0.676  31.640  0.00  0.00    -0.143 NA
ATOM      6  C   UNL d   1      57.880   0.284  31.918  0.00  0.00     0.185 A 
ATOM      7  N   UNL d   1      57.731  -1.334  30.497  0.00  0.00    -0.227 NA
ATOM      8  C   UNL d   1      56.932  -0.773  31.818  0.00  0.00     0.007 A 
ATOM      9  N   UNL d   1      57.486   0.576  32.585  0.00  0.00    -0.225 NA
ATOM     10  C   UNL d   1      58.801  -1.226  29.561  0.00  0.00     0.057 A 
ATOM     11  C   UNL d   1      56.531  -0.497  32.475  0.00  0.00     0.019 A 
ATOM     12  C   UNL d   1      58.125  -1.618  29.840  0.00  0.00     0.086 A 
ATOM     13  C   UNL d   1      56.809   0.185  32.864  0.00  0.00     0.083 A 
ATOM     14  C   UNL d   1      56.660  -1.448  31.428  0.00  0.00     0.000 C 
ATOM     15  C   UNL d   1      57.846  -2.316  29.435  0.00  0.00     0.021 C 
ATOM     16  C   UNL d   1      56.415   0.465  33.519  0.00  0.00     0.021 C 
ENDROOT
BRANCH   4  17
ATOM     17  N   UNL d   1      59.762  -0.152  29.666  0.00  0.00    -0.271 N 
ATOM     18  C   UNL d   1      59.794   0.418  29.032  0.00  0.00     0.184 A 
ATOM     19  N   UNL d   1      60.595   0.673  28.953  0.00  0.00    -0.222 NA
ATOM     20  C   UNL d   1      61.070   0.261  29.541  0.00  0.00     0.120 A 
ATOM     21  C   UNL d   1      60.550  -0.248  29.979  0.00  0.00     0.104 A 
ENDBRANCH   4  17
TORSDOF 1
ENDMDL
