MODEL 1
REMARK VINA RESULT:      -2.7      0.000      0.000
REMARK  5 active torsions:
REMARK  status: ('A' for Active; 'I' for Inactive)
REMARK    1  A    between atoms: C_2  and  C_1 
REMARK       I    between atoms: N_5  and  C_2 
REMARK    2  A    between atoms: C_10  and  N_5 
REMARK    3  A    between atoms: C_11  and  C_6 
REMARK    4  A    between atoms: S_9  and  C_11 
REMARK    5  A    between atoms: C_13  and  S_9 
ROOT
ATOM      1  C   UNL d   1      32.493  17.009 -24.225  0.00  0.00     0.158 A 
ATOM      2  O   UNL d   1      32.616  17.254 -23.447  0.00  0.00    -0.302 OA
ATOM      3  C   UNL d   1      32.455  17.689 -24.697  0.00  0.00     0.032 A 
ATOM      4  C   UNL d   1      32.656  18.070 -23.435  0.00  0.00     0.107 A 
ATOM      5  C   UNL d   1      32.556  18.346 -24.208  0.00  0.00     0.027 A 
ENDROOT
BRANCH   1   6
ATOM      6  C   UNL d   1      32.418  16.230 -24.493  0.00  0.00     0.302 C 
ATOM      7  N   UNL d   1      31.674  15.905 -24.628  0.00  0.00    -0.206 NA
ATOM      8  O   UNL d   1      33.095  15.784 -24.624  0.00  0.00    -0.263 OA
BRANCH   7   9
ATOM      9  C   UNL d   1      30.993  16.362 -24.493  0.00  0.00     0.085 A 
ATOM     10  C   UNL d   1      30.696  16.841 -25.084  0.00  0.00     0.021 A 
ATOM     11  C   UNL d   1      30.028  17.293 -24.961  0.00  0.00     0.031 A 
ATOM     12  C   UNL d   1      29.641  17.267 -24.222  0.00  0.00     0.140 A 
ATOM     13  C   UNL d   1      29.939  16.784 -23.627  0.00  0.00     0.031 A 
ATOM     14  F   UNL d   1      28.970  17.717 -24.090  0.00  0.00    -0.204 F 
ATOM     15  C   UNL d   1      30.616  16.329 -23.759  0.00  0.00     0.021 A 
ENDBRANCH   7   9
ENDBRANCH   1   6
BRANCH   4  16
ATOM     16  C   UNL d   1      32.774  18.547 -22.770  0.00  0.00     0.060 C 
BRANCH  16  17
ATOM     17  S   UNL d   1      32.904  19.354 -22.862  0.00  0.00    -0.084 SA
BRANCH  17  18
ATOM     18  C   UNL d   1      32.916  19.852 -22.211  0.00  0.00     0.029 A 
ATOM     19  C   UNL d   1      33.229  19.593 -21.496  0.00  0.00     0.006 A 
ATOM     20  C   UNL d   1      33.241  20.091 -20.843  0.00  0.00     0.001 A 
ATOM     21  C   UNL d   1      32.935  20.859 -20.913  0.00  0.00     0.000 A 
ATOM     22  C   UNL d   1      32.623  21.115 -21.631  0.00  0.00     0.001 A 
ATOM     23  C   UNL d   1      32.612  20.616 -22.283  0.00  0.00     0.006 A 
ENDBRANCH  17  18
ENDBRANCH  16  17
ENDBRANCH   4  16
TORSDOF 5
ENDMDL
MODEL 2
REMARK VINA RESULT:      -1.1      2.210      4.112
REMARK  5 active torsions:
REMARK  status: ('A' for Active; 'I' for Inactive)
REMARK    1  A    between atoms: C_2  and  C_1 
REMARK       I    between atoms: N_5  and  C_2 
REMARK    2  A    between atoms: C_10  and  N_5 
REMARK    3  A    between atoms: C_11  and  C_6 
REMARK    4  A    between atoms: S_9  and  C_11 
REMARK    5  A    between atoms: C_13  and  S_9 
ROOT
ATOM      1  C   UNL d   1      32.274  15.971 -23.673  0.00  0.00     0.158 A 
ATOM      2  O   UNL d   1      31.472  15.911 -23.488  0.00  0.00    -0.302 OA
ATOM      3  C   UNL d   1      32.350  15.852 -24.490  0.00  0.00     0.032 A 
ATOM      4  C   UNL d   1      31.058  15.757 -24.176  0.00  0.00     0.107 A 
ATOM      5  C   UNL d   1      31.597  15.720 -24.801  0.00  0.00     0.027 A 
ENDROOT
BRANCH   1   6
ATOM      6  C   UNL d   1      32.894  16.122 -23.147  0.00  0.00     0.302 C 
ATOM      7  N   UNL d   1      33.241  16.867 -23.115  0.00  0.00    -0.206 NA
ATOM      8  O   UNL d   1      33.160  15.519 -22.657  0.00  0.00    -0.263 OA
BRANCH   7   9
ATOM      9  C   UNL d   1      32.966  17.473 -23.614  0.00  0.00     0.085 A 
ATOM     10  C   UNL d   1      32.433  18.025 -23.335  0.00  0.00     0.021 A 
ATOM     11  C   UNL d   1      32.158  18.623 -23.817  0.00  0.00     0.031 A 
ATOM     12  C   UNL d   1      32.424  18.674 -24.606  0.00  0.00     0.140 A 
ATOM     13  C   UNL d   1      32.961  18.118 -24.887  0.00  0.00     0.031 A 
ATOM     14  F   UNL d   1      32.153  19.270 -25.096  0.00  0.00    -0.204 F 
ATOM     15  C   UNL d   1      33.235  17.515 -24.394  0.00  0.00     0.021 A 
ENDBRANCH   7   9
ENDBRANCH   1   6
BRANCH   4  16
ATOM     16  C   UNL d   1      30.240  15.656 -24.245  0.00  0.00     0.060 C 
BRANCH  16  17
ATOM     17  S   UNL d   1      29.761  16.299 -24.428  0.00  0.00    -0.084 SA
BRANCH  17  18
ATOM     18  C   UNL d   1      29.054  16.420 -24.029  0.00  0.00     0.029 A 
ATOM     19  C   UNL d   1      28.707  17.165 -24.016  0.00  0.00     0.006 A 
ATOM     20  C   UNL d   1      28.000  17.288 -23.618  0.00  0.00     0.001 A 
ATOM     21  C   UNL d   1      27.639  16.651 -23.227  0.00  0.00     0.000 A 
ATOM     22  C   UNL d   1      27.990  15.906 -23.242  0.00  0.00     0.001 A 
ATOM     23  C   UNL d   1      28.698  15.785 -23.641  0.00  0.00     0.006 A 
ENDBRANCH  17  18
ENDBRANCH  16  17
ENDBRANCH   4  16
TORSDOF 5
ENDMDL
