MODEL 1
REMARK VINA RESULT:      20.8      0.000      0.000
REMARK  4 active torsions:
REMARK  status: ('A' for Active; 'I' for Inactive)
REMARK    1  A    between atoms: C_8  and  C_1 
REMARK    2  A    between atoms: N_11  and  C_9 
REMARK    3  A    between atoms: C_15  and  N_11 
REMARK    4  A    between atoms: C_16  and  N_11 
ROOT
ATOM      1  C   UNL d   1      60.267  49.599  50.909  0.00  0.00     0.102 A 
ATOM      2  C   UNL d   1      59.849  49.642  51.634  0.00  0.00     0.303 A 
ATOM      3  C   UNL d   1      59.840  49.583  50.202  0.00  0.00     0.011 A 
ATOM      4  O   UNL d   1      59.024  49.667  51.618  0.00  0.00    -0.273 OA
ATOM      5  C   UNL d   1      58.604  49.651  50.915  0.00  0.00     0.105 A 
ATOM      6  C   UNL d   1      59.022  49.608  50.190  0.00  0.00     0.023 A 
ATOM      7  C   UNL d   1      57.801  49.676  50.912  0.00  0.00     0.042 A 
ATOM      8  C   UNL d   1      57.379  49.661  50.208  0.00  0.00     0.066 A 
ATOM      9  O   UNL d   1      60.261  49.659  52.356  0.00  0.00    -0.259 OA
ATOM     10  C   UNL d   1      58.618  49.592  49.497  0.00  0.00     0.004 A 
ATOM     11  C   UNL d   1      57.797  49.618  49.483  0.00  0.00     0.018 A 
ENDROOT
BRANCH   8  12
ATOM     12  N   UNL d   1      56.550  49.687  50.214  0.00  0.00    -0.304 N 
BRANCH  12  13
ATOM     13  C   UNL d   1      56.138  49.693  49.492  0.00  0.00     0.080 C 
ATOM     14  C   UNL d   1      56.039  48.980  49.068  0.00  0.00     0.021 C 
ENDBRANCH  12  13
BRANCH  12  15
ATOM     15  C   UNL d   1      56.144  49.706  50.918  0.00  0.00     0.080 C 
ATOM     16  C   UNL d   1      56.054  49.043  51.370  0.00  0.00     0.021 C 
ENDBRANCH  12  15
ENDBRANCH   8  12
BRANCH   1  17
ATOM     17  C   UNL d   1      61.098  49.573  50.905  0.00  0.00     0.201 C 
ATOM     18  O   UNL d   1      61.520  49.701  50.196  0.00  0.00    -0.286 OA
ATOM     19  C   UNL d   1      61.502  49.419  51.611  0.00  0.00     0.045 C 
ENDBRANCH   1  17
TORSDOF 4
ENDMDL
