MODEL 1
REMARK VINA RESULT:      15.7      0.000      0.000
REMARK  7 active torsions:
REMARK  status: ('A' for Active; 'I' for Inactive)
REMARK    1  A    between atoms: C_6  and  C_1 
REMARK    2  A    between atoms: C_14  and  C_5 
REMARK    3  A    between atoms: O_19  and  C_7 
REMARK    4  A    between atoms: O_20  and  C_8 
REMARK    5  A    between atoms: O_21  and  C_9 
REMARK    6  A    between atoms: O_17  and  C_14 
REMARK    7  A    between atoms: C_18  and  O_17 
ROOT
ATOM      1  C   UNL d   1      45.660 -15.580  44.484  0.00  0.00     0.205 A 
ATOM      2  N   UNL d   1      45.090 -16.031  44.883  0.00  0.00    -0.121 NA
ATOM      3  O   UNL d   1      46.298 -16.071  44.294  0.00  0.00    -0.267 OA
ATOM      4  N   UNL d   1      45.375 -16.808  44.942  0.00  0.00    -0.119 NA
ATOM      5  C   UNL d   1      46.122 -16.831  44.578  0.00  0.00     0.230 A 
ENDROOT
BRANCH   1   6
ATOM      6  C   UNL d   1      45.591 -14.772  44.309  0.00  0.00     0.047 A 
ATOM      7  C   UNL d   1      46.045 -14.214  44.715  0.00  0.00     0.030 A 
ATOM      8  C   UNL d   1      45.972 -13.422  44.538  0.00  0.00     0.118 A 
ATOM      9  C   UNL d   1      45.444 -13.167  43.951  0.00  0.00     0.138 A 
ATOM     10  C   UNL d   1      44.993 -13.724  43.549  0.00  0.00     0.118 A 
ATOM     11  C   UNL d   1      45.062 -14.534  43.724  0.00  0.00     0.030 A 
BRANCH   8  12
ATOM     12  O   UNL d   1      46.431 -12.868  44.950  0.00  0.00    -0.326 OA
ATOM     13  C   UNL d   1      46.486 -12.087  44.683  0.00  0.00     0.181 C 
ENDBRANCH   8  12
BRANCH   9  14
ATOM     14  O   UNL d   1      45.379 -12.361  43.781  0.00  0.00    -0.324 OA
ATOM     15  C   UNL d   1      44.975 -12.108  43.103  0.00  0.00     0.182 C 
ENDBRANCH   9  14
BRANCH  10  16
ATOM     16  O   UNL d   1      44.465 -13.471  42.962  0.00  0.00    -0.326 OA
ATOM     17  C   UNL d   1      43.750 -13.130  43.173  0.00  0.00     0.181 C 
ENDBRANCH  10  16
ENDBRANCH   1   6
BRANCH   5  18
ATOM     18  C   UNL d   1      46.612 -17.496  44.505  0.00  0.00     0.169 C 
BRANCH  18  19
ATOM     19  O   UNL d   1      46.285 -18.251  44.466  0.00  0.00    -0.301 OA
BRANCH  19  20
ATOM     20  C   UNL d   1      46.369 -18.698  43.777  0.00  0.00     0.100 A 
ATOM     21  C   UNL d   1      46.266 -18.342  43.039  0.00  0.00     0.025 A 
ATOM     22  C   UNL d   1      46.350 -18.785  42.355  0.00  0.00     0.002 A 
ATOM     23  C   UNL d   1      46.249 -18.434  41.610  0.00  0.00     0.000 A 
ATOM     24  C   UNL d   1      46.535 -19.586  42.399  0.00  0.00     0.000 A 
ATOM     25  C   UNL d   1      46.334 -18.885  40.925  0.00  0.00     0.000 A 
ATOM     26  C   UNL d   1      46.519 -19.687  40.977  0.00  0.00     0.000 A 
ATOM     27  C   UNL d   1      46.621 -20.041  41.719  0.00  0.00     0.000 A 
ATOM     28  C   UNL d   1      46.638 -19.945  43.135  0.00  0.00     0.002 A 
ATOM     29  C   UNL d   1      46.553 -19.494  43.834  0.00  0.00     0.025 A 
ENDBRANCH  19  20
ENDBRANCH  18  19
ENDBRANCH   5  18
TORSDOF 7
ENDMDL
