MODEL 1
REMARK VINA RESULT:      -5.6      0.000      0.000
REMARK  1 active torsions:
REMARK  status: ('A' for Active; 'I' for Inactive)
REMARK    1  A    between atoms: C_6  and  C_2 
ROOT
ATOM      1  O   UNL d   1     -41.497-121.946 -52.730  0.00  0.00    -0.260 OA
ATOM      2  C   UNL d   1     -41.623-122.491 -53.344  0.00  0.00     0.207 A 
ATOM      3  N   UNL d   1     -41.496-123.244 -53.033  0.00  0.00    -0.120 NA
ATOM      4  C   UNL d   1     -41.295-122.367 -52.049  0.00  0.00     0.262 A 
ATOM      5  N   UNL d   1     -41.295-123.174 -52.239  0.00  0.00    -0.109 NA
ATOM      6  S   UNL d   1     -41.124-122.035 -51.312  0.00  0.00    -0.029 SA
ENDROOT
BRANCH   2   7
ATOM      7  C   UNL d   1     -41.834-122.307 -54.114  0.00  0.00     0.062 A 
ATOM      8  C   UNL d   1     -42.549-121.929 -54.270  0.00  0.00     0.102 A 
ATOM      9  N   UNL d   1     -42.755-121.747 -55.055  0.00  0.00    -0.242 NA
ATOM     10  C   UNL d   1     -42.250-121.942 -55.674  0.00  0.00     0.099 A 
ATOM     11  C   UNL d   1     -41.537-122.320 -55.516  0.00  0.00     0.021 A 
ATOM     12  C   UNL d   1     -41.322-122.506 -54.739  0.00  0.00     0.007 A 
ENDBRANCH   2   7
TORSDOF 1
ENDMDL
MODEL 2
REMARK VINA RESULT:      -4.9      1.525      3.022
REMARK  1 active torsions:
REMARK  status: ('A' for Active; 'I' for Inactive)
REMARK    1  A    between atoms: C_6  and  C_2 
ROOT
ATOM      1  O   UNL d   1     -41.909-122.148 -53.880  0.00  0.00    -0.260 OA
ATOM      2  C   UNL d   1     -41.449-122.691 -53.452  0.00  0.00     0.207 A 
ATOM      3  N   UNL d   1     -41.123-123.219 -53.997  0.00  0.00    -0.120 NA
ATOM      4  C   UNL d   1     -41.864-122.346 -54.680  0.00  0.00     0.262 A 
ATOM      5  N   UNL d   1     -41.375-123.012 -54.751  0.00  0.00    -0.109 NA
ATOM      6  S   UNL d   1     -42.242-121.945 -55.296  0.00  0.00    -0.029 SA
ENDROOT
BRANCH   2   7
ATOM      7  C   UNL d   1     -41.341-122.696 -52.640  0.00  0.00     0.062 A 
ATOM      8  C   UNL d   1     -41.329-123.409 -52.227  0.00  0.00     0.102 A 
ATOM      9  N   UNL d   1     -41.219-123.405 -51.403  0.00  0.00    -0.242 NA
ATOM     10  C   UNL d   1     -41.123-122.695 -50.999  0.00  0.00     0.099 A 
ATOM     11  C   UNL d   1     -41.135-121.985 -51.413  0.00  0.00     0.021 A 
ATOM     12  C   UNL d   1     -41.244-121.977 -52.234  0.00  0.00     0.007 A 
ENDBRANCH   2   7
TORSDOF 1
ENDMDL
MODEL 3
REMARK VINA RESULT:      -4.0      2.544      4.419
REMARK  1 active torsions:
REMARK  status: ('A' for Active; 'I' for Inactive)
REMARK    1  A    between atoms: C_6  and  C_2 
ROOT
ATOM      1  O   UNL d   1     -41.578-122.497 -51.101  0.00  0.00    -0.260 OA
ATOM      2  C   UNL d   1     -41.862-123.140 -50.660  0.00  0.00     0.207 A 
ATOM      3  N   UNL d   1     -41.875-123.795 -51.161  0.00  0.00    -0.120 NA
ATOM      4  C   UNL d   1     -41.418-122.761 -51.867  0.00  0.00     0.262 A 
ATOM      5  N   UNL d   1     -41.604-123.568 -51.903  0.00  0.00    -0.109 NA
ATOM      6  S   UNL d   1     -41.125-122.296 -52.484  0.00  0.00    -0.029 SA
ENDROOT
BRANCH   2   7
ATOM      7  C   UNL d   1     -42.087-123.120 -49.872  0.00  0.00     0.062 A 
ATOM      8  C   UNL d   1     -42.776-122.727 -49.646  0.00  0.00     0.102 A 
ATOM      9  N   UNL d   1     -42.996-122.713 -48.845  0.00  0.00    -0.242 NA
ATOM     10  C   UNL d   1     -42.532-123.088 -48.278  0.00  0.00     0.099 A 
ATOM     11  C   UNL d   1     -41.847-123.479 -48.506  0.00  0.00     0.021 A 
ATOM     12  C   UNL d   1     -41.617-123.500 -49.301  0.00  0.00     0.007 A 
ENDBRANCH   2   7
TORSDOF 1
ENDMDL
MODEL 4
REMARK VINA RESULT:      -3.4      2.117      2.897
REMARK  1 active torsions:
REMARK  status: ('A' for Active; 'I' for Inactive)
REMARK    1  A    between atoms: C_6  and  C_2 
ROOT
ATOM      1  O   UNL d   1     -42.401-123.199 -50.375  0.00  0.00    -0.260 OA
ATOM      2  C   UNL d   1     -41.658-122.996 -50.683  0.00  0.00     0.207 A 
ATOM      3  N   UNL d   1     -41.136-122.937 -50.047  0.00  0.00    -0.120 NA
ATOM      4  C   UNL d   1     -42.331-123.264 -49.555  0.00  0.00     0.262 A 
ATOM      5  N   UNL d   1     -41.544-123.100 -49.352  0.00  0.00    -0.109 NA
ATOM      6  S   UNL d   1     -42.943-123.458 -49.035  0.00  0.00    -0.029 SA
ENDROOT
BRANCH   2   7
ATOM      7  C   UNL d   1     -41.481-122.876 -51.474  0.00  0.00     0.062 A 
ATOM      8  C   UNL d   1     -41.481-122.115 -51.790  0.00  0.00     0.102 A 
ATOM      9  N   UNL d   1     -41.300-122.003 -52.594  0.00  0.00    -0.242 NA
ATOM     10  C   UNL d   1     -41.122-122.648 -53.075  0.00  0.00     0.099 A 
ATOM     11  C   UNL d   1     -41.124-123.405 -52.757  0.00  0.00     0.021 A 
ATOM     12  C   UNL d   1     -41.302-123.529 -51.958  0.00  0.00     0.007 A 
ENDBRANCH   2   7
TORSDOF 1
ENDMDL
MODEL 5
REMARK VINA RESULT:      -3.1      3.156      4.210
REMARK  1 active torsions:
REMARK  status: ('A' for Active; 'I' for Inactive)
REMARK    1  A    between atoms: C_6  and  C_2 
ROOT
ATOM      1  O   UNL d   1     -42.306-123.462 -48.829  0.00  0.00    -0.260 OA
ATOM      2  C   UNL d   1     -41.698-123.079 -49.245  0.00  0.00     0.207 A 
ATOM      3  N   UNL d   1     -41.123-122.861 -48.694  0.00  0.00    -0.120 NA
ATOM      4  C   UNL d   1     -42.101-123.476 -48.029  0.00  0.00     0.262 A 
ATOM      5  N   UNL d   1     -41.365-123.103 -47.947  0.00  0.00    -0.109 NA
ATOM      6  S   UNL d   1     -42.554-123.807 -47.423  0.00  0.00    -0.029 SA
ENDROOT
BRANCH   2   7
ATOM      7  C   UNL d   1     -41.678-122.945 -50.053  0.00  0.00     0.062 A 
ATOM      8  C   UNL d   1     -42.182-122.389 -50.394  0.00  0.00     0.102 A 
ATOM      9  N   UNL d   1     -42.155-122.260 -51.215  0.00  0.00    -0.242 NA
ATOM     10  C   UNL d   1     -41.630-122.683 -51.687  0.00  0.00     0.099 A 
ATOM     11  C   UNL d   1     -41.129-123.236 -51.344  0.00  0.00     0.021 A 
ATOM     12  C   UNL d   1     -41.146-123.373 -50.528  0.00  0.00     0.007 A 
ENDBRANCH   2   7
TORSDOF 1
ENDMDL
