MODEL 1
REMARK VINA RESULT:      -7.1      0.000      0.000
REMARK  5 active torsions:
REMARK  status: ('A' for Active; 'I' for Inactive)
REMARK       I    between atoms: N_3  and  C_1 
REMARK    1  A    between atoms: C_6  and  C_1 
REMARK    2  A    between atoms: C_2  and  S_4 
REMARK    3  A    between atoms: C_7  and  N_3 
REMARK    4  A    between atoms: S_4  and  C_8 
REMARK    5  A    between atoms: C_15  and  C_6 
ROOT
ATOM      1  C   UNL d   1     -48.079  12.906  22.206  0.00  0.00     0.085 A 
ATOM      2  C   UNL d   1     -46.966  12.261  23.200  0.00  0.00     0.034 A 
ATOM      3  C   UNL d   1     -48.273  12.244  22.658  0.00  0.00     0.020 A 
ATOM      4  C   UNL d   1     -47.339  13.246  22.246  0.00  0.00     0.020 A 
ATOM      5  C   UNL d   1     -46.777  12.929  22.742  0.00  0.00     0.008 A 
ATOM      6  C   UNL d   1     -47.709  11.921  23.159  0.00  0.00     0.008 A 
ENDROOT
BRANCH   1   7
ATOM      7  N   UNL d   1     -48.645  13.232  21.701  0.00  0.00    -0.208 NA
ATOM      8  C   UNL d   1     -49.195  13.775  21.997  0.00  0.00     0.279 C 
ATOM      9  O   UNL d   1     -49.752  14.098  21.507  0.00  0.00    -0.265 OA
BRANCH   8  10
ATOM     10  C   UNL d   1     -49.170  13.983  22.788  0.00  0.00     0.062 C 
BRANCH  10  11
ATOM     11  C   UNL d   1     -49.701  14.507  23.083  0.00  0.00     0.005 A 
ATOM     12  C   UNL d   1     -50.457  14.257  23.313  0.00  0.00     0.000 A 
ATOM     13  C   UNL d   1     -51.016  14.803  23.623  0.00  0.00     0.000 A 
ATOM     14  C   UNL d   1     -50.800  15.611  23.698  0.00  0.00     0.000 A 
ATOM     15  C   UNL d   1     -50.037  15.868  23.467  0.00  0.00     0.000 A 
ATOM     16  C   UNL d   1     -49.494  15.312  23.161  0.00  0.00     0.000 A 
ENDBRANCH  10  11
ENDBRANCH   8  10
ENDBRANCH   1   7
BRANCH   2  17
ATOM     17  S   UNL d   1     -46.402  11.943  23.698  0.00  0.00    -0.028 SA
BRANCH  17  18
ATOM     18  C   UNL d   1     -45.885  11.367  23.430  0.00  0.00     0.309 C 
ATOM     19  F   UNL d   1     -46.057  10.581  23.555  0.00  0.00    -0.165 F 
ATOM     20  F   UNL d   1     -45.205  11.571  23.042  0.00  0.00    -0.165 F 
ENDBRANCH  17  18
ENDBRANCH   2  17
TORSDOF 5
ENDMDL
MODEL 2
REMARK VINA RESULT:      -6.6      2.466      4.132
REMARK  5 active torsions:
REMARK  status: ('A' for Active; 'I' for Inactive)
REMARK       I    between atoms: N_3  and  C_1 
REMARK    1  A    between atoms: C_6  and  C_1 
REMARK    2  A    between atoms: C_2  and  S_4 
REMARK    3  A    between atoms: C_7  and  N_3 
REMARK    4  A    between atoms: S_4  and  C_8 
REMARK    5  A    between atoms: C_15  and  C_6 
ROOT
ATOM      1  C   UNL d   1     -48.876  14.713  22.622  0.00  0.00     0.085 A 
ATOM      2  C   UNL d   1     -50.300  13.928  22.666  0.00  0.00     0.034 A 
ATOM      3  C   UNL d   1     -49.201  14.421  21.923  0.00  0.00     0.020 A 
ATOM      4  C   UNL d   1     -49.254  14.616  23.338  0.00  0.00     0.020 A 
ATOM      5  C   UNL d   1     -49.967  14.225  23.368  0.00  0.00     0.008 A 
ATOM      6  C   UNL d   1     -49.919  14.025  21.948  0.00  0.00     0.008 A 
ENDROOT
BRANCH   1   7
ATOM      7  N   UNL d   1     -48.154  15.110  22.598  0.00  0.00    -0.208 NA
ATOM      8  C   UNL d   1     -47.447  14.681  22.625  0.00  0.00     0.279 C 
ATOM      9  O   UNL d   1     -46.735  15.066  22.602  0.00  0.00    -0.265 OA
BRANCH   8  10
ATOM     10  C   UNL d   1     -47.474  13.865  22.676  0.00  0.00     0.062 C 
BRANCH  10  11
ATOM     11  C   UNL d   1     -46.793  13.442  22.724  0.00  0.00     0.005 A 
ATOM     12  C   UNL d   1     -46.170  13.587  22.196  0.00  0.00     0.000 A 
ATOM     13  C   UNL d   1     -45.455  13.146  22.243  0.00  0.00     0.000 A 
ATOM     14  C   UNL d   1     -45.378  12.553  22.834  0.00  0.00     0.000 A 
ATOM     15  C   UNL d   1     -46.005  12.405  23.368  0.00  0.00     0.000 A 
ATOM     16  C   UNL d   1     -46.709  12.852  23.307  0.00  0.00     0.000 A 
ENDBRANCH  10  11
ENDBRANCH   8  10
ENDBRANCH   1   7
BRANCH   2  17
ATOM     17  S   UNL d   1     -51.015  13.535  22.696  0.00  0.00    -0.028 SA
BRANCH  17  18
ATOM     18  C   UNL d   1     -51.042  12.719  22.755  0.00  0.00     0.309 C 
ATOM     19  F   UNL d   1     -51.064  12.369  23.490  0.00  0.00    -0.165 F 
ATOM     20  F   UNL d   1     -51.045  12.256  22.091  0.00  0.00    -0.165 F 
ENDBRANCH  17  18
ENDBRANCH   2  17
TORSDOF 5
ENDMDL
MODEL 3
REMARK VINA RESULT:      -6.2      1.925      2.382
REMARK  5 active torsions:
REMARK  status: ('A' for Active; 'I' for Inactive)
REMARK       I    between atoms: N_3  and  C_1 
REMARK    1  A    between atoms: C_6  and  C_1 
REMARK    2  A    between atoms: C_2  and  S_4 
REMARK    3  A    between atoms: C_7  and  N_3 
REMARK    4  A    between atoms: S_4  and  C_8 
REMARK    5  A    between atoms: C_15  and  C_6 
ROOT
ATOM      1  C   UNL d   1     -46.968  13.806  23.075  0.00  0.00     0.085 A 
ATOM      2  C   UNL d   1     -45.633  13.038  22.555  0.00  0.00     0.034 A 
ATOM      3  C   UNL d   1     -46.509  14.146  22.481  0.00  0.00     0.020 A 
ATOM      4  C   UNL d   1     -46.767  13.090  23.409  0.00  0.00     0.020 A 
ATOM      5  C   UNL d   1     -46.100  12.700  23.154  0.00  0.00     0.008 A 
ATOM      6  C   UNL d   1     -45.836  13.757  22.220  0.00  0.00     0.008 A 
ENDROOT
BRANCH   1   7
ATOM      7  N   UNL d   1     -47.646  14.197  23.338  0.00  0.00    -0.208 NA
ATOM      8  C   UNL d   1     -48.384  13.998  23.021  0.00  0.00     0.279 C 
ATOM      9  O   UNL d   1     -49.052  14.378  23.275  0.00  0.00    -0.265 OA
BRANCH   8  10
ATOM     10  C   UNL d   1     -48.432  13.414  22.450  0.00  0.00     0.062 C 
BRANCH  10  11
ATOM     11  C   UNL d   1     -49.149  13.177  22.177  0.00  0.00     0.005 A 
ATOM     12  C   UNL d   1     -49.575  12.583  22.569  0.00  0.00     0.000 A 
ATOM     13  C   UNL d   1     -50.326  12.333  22.285  0.00  0.00     0.000 A 
ATOM     14  C   UNL d   1     -50.643  12.692  21.596  0.00  0.00     0.000 A 
ATOM     15  C   UNL d   1     -50.216  13.292  21.197  0.00  0.00     0.000 A 
ATOM     16  C   UNL d   1     -49.471  13.530  21.493  0.00  0.00     0.000 A 
ENDBRANCH  10  11
ENDBRANCH   8  10
ENDBRANCH   1   7
BRANCH   2  17
ATOM     17  S   UNL d   1     -44.963  12.646  22.299  0.00  0.00    -0.028 SA
BRANCH  17  18
ATOM     18  C   UNL d   1     -44.540  12.920  21.653  0.00  0.00     0.309 C 
ATOM     19  F   UNL d   1     -43.902  13.412  21.769  0.00  0.00    -0.165 F 
ATOM     20  F   UNL d   1     -44.750  12.706  20.902  0.00  0.00    -0.165 F 
ENDBRANCH  17  18
ENDBRANCH   2  17
TORSDOF 5
ENDMDL
MODEL 4
REMARK VINA RESULT:      -5.9      8.741     10.123
REMARK  5 active torsions:
REMARK  status: ('A' for Active; 'I' for Inactive)
REMARK       I    between atoms: N_3  and  C_1 
REMARK    1  A    between atoms: C_6  and  C_1 
REMARK    2  A    between atoms: C_2  and  S_4 
REMARK    3  A    between atoms: C_7  and  N_3 
REMARK    4  A    between atoms: S_4  and  C_8 
REMARK    5  A    between atoms: C_15  and  C_6 
ROOT
ATOM      1  C   UNL d   1     -40.675  14.860  19.729  0.00  0.00     0.085 A 
ATOM      2  C   UNL d   1     -39.974  15.407  21.090  0.00  0.00     0.034 A 
ATOM      3  C   UNL d   1     -40.560  14.345  20.362  0.00  0.00     0.020 A 
ATOM      4  C   UNL d   1     -40.444  15.641  19.769  0.00  0.00     0.020 A 
ATOM      5  C   UNL d   1     -40.092  15.922  20.448  0.00  0.00     0.008 A 
ATOM      6  C   UNL d   1     -40.206  14.623  21.048  0.00  0.00     0.008 A 
ENDROOT
BRANCH   1   7
ATOM      7  N   UNL d   1     -41.030  14.581  19.038  0.00  0.00    -0.208 NA
ATOM      8  C   UNL d   1     -40.561  14.296  18.420  0.00  0.00     0.279 C 
ATOM      9  O   UNL d   1     -40.904  14.021  17.741  0.00  0.00    -0.265 OA
BRANCH   8  10
ATOM     10  C   UNL d   1     -39.746  14.295  18.501  0.00  0.00     0.062 C 
BRANCH  10  11
ATOM     11  C   UNL d   1     -39.284  14.004  17.913  0.00  0.00     0.005 A 
ATOM     12  C   UNL d   1     -39.099  14.471  17.253  0.00  0.00     0.000 A 
ATOM     13  C   UNL d   1     -38.615  14.171  16.635  0.00  0.00     0.000 A 
ATOM     14  C   UNL d   1     -38.318  13.387  16.692  0.00  0.00     0.000 A 
ATOM     15  C   UNL d   1     -38.502  12.913  17.357  0.00  0.00     0.000 A 
ATOM     16  C   UNL d   1     -38.985  13.227  17.963  0.00  0.00     0.000 A 
ENDBRANCH  10  11
ENDBRANCH   8  10
ENDBRANCH   1   7
BRANCH   2  17
ATOM     17  S   UNL d   1     -39.621  15.689  21.771  0.00  0.00    -0.028 SA
BRANCH  17  18
ATOM     18  C   UNL d   1     -38.842  15.506  21.945  0.00  0.00     0.309 C 
ATOM     19  F   UNL d   1     -38.677  14.903  22.468  0.00  0.00    -0.165 F 
ATOM     20  F   UNL d   1     -38.235  15.916  21.603  0.00  0.00    -0.165 F 
ENDBRANCH  17  18
ENDBRANCH   2  17
TORSDOF 5
ENDMDL
