MODEL 1
REMARK VINA RESULT:      39.9      0.000      0.000
REMARK  4 active torsions:
REMARK  status: ('A' for Active; 'I' for Inactive)
REMARK    1  A    between atoms: C_5  and  N_1 
REMARK    2  A    between atoms: C_7  and  C_5 
REMARK    3  A    between atoms: O_11  and  C_8 
REMARK    4  A    between atoms: C_16  and  O_11 
ROOT
ATOM      1  N   UNL d   1     -57.450 -98.865 -44.556  0.00  0.00    -0.251 N 
ATOM      2  C   UNL d   1     -57.562 -98.839 -45.384  0.00  0.00     0.378 A 
ATOM      3  C   UNL d   1     -58.187 -98.836 -44.194  0.00  0.00     0.092 A 
ATOM      4  O   UNL d   1     -58.383 -98.795 -45.454  0.00  0.00    -0.258 OA
ATOM      5  C   UNL d   1     -58.764 -98.792 -44.790  0.00  0.00     0.121 A 
ATOM      6  O   UNL d   1     -56.965 -98.856 -45.961  0.00  0.00    -0.237 OA
ATOM      7  C   UNL d   1     -58.412 -98.844 -43.403  0.00  0.00     0.020 A 
ATOM      8  C   UNL d   1     -59.573 -98.756 -44.587  0.00  0.00     0.026 A 
ATOM      9  C   UNL d   1     -59.222 -98.808 -43.200  0.00  0.00     0.002 A 
ATOM     10  C   UNL d   1     -59.806 -98.763 -43.788  0.00  0.00     0.002 A 
ATOM     11  C   UNL d   1     -59.446 -98.816 -42.390  0.00  0.00     0.000 C 
ENDROOT
BRANCH   1  12
ATOM     12  C   UNL d   1     -56.722 -98.912 -44.182  0.00  0.00     0.087 C 
BRANCH  12  13
ATOM     13  C   UNL d   1     -56.052 -99.152 -44.598  0.00  0.00     0.041 A 
ATOM     14  C   UNL d   1     -55.608 -99.787 -44.319  0.00  0.00     0.101 A 
ATOM     15  C   UNL d   1     -54.938-100.024 -44.738  0.00  0.00     0.025 A 
ATOM     16  C   UNL d   1     -54.713 -99.632 -45.427  0.00  0.00     0.002 A 
ATOM     17  C   UNL d   1     -55.165 -98.992 -45.703  0.00  0.00     0.000 A 
ATOM     18  C   UNL d   1     -55.834 -98.755 -45.285  0.00  0.00     0.004 A 
BRANCH  14  19
ATOM     19  O   UNL d   1     -55.857-100.158 -43.630  0.00  0.00    -0.307 OA
BRANCH  19  20
ATOM     20  C   UNL d   1     -55.528-100.891 -43.410  0.00  0.00     0.100 C 
ATOM     21  C   UNL d   1     -55.587-101.539 -43.921  0.00  0.00     0.027 C 
ATOM     22  C   UNL d   1     -55.146-100.969 -42.683  0.00  0.00     0.027 C 
ENDBRANCH  19  20
ENDBRANCH  14  19
ENDBRANCH  12  13
ENDBRANCH   1  12
TORSDOF 4
ENDMDL
