MODEL 1
REMARK VINA RESULT:      32.1      0.000      0.000
REMARK  6 active torsions:
REMARK  status: ('A' for Active; 'I' for Inactive)
REMARK    1  A    between atoms: C_9  and  C_3 
REMARK    2  A    between atoms: C_8  and  C_5 
REMARK    3  A    between atoms: O_19  and  C_9 
REMARK    4  A    between atoms: C_22  and  O_19 
REMARK    5  A    between atoms: O_21  and  C_23 
REMARK    6  A    between atoms: C_23  and  C_22 
ROOT
ATOM      1  N   UNL d   1     -52.387  24.873  33.312  0.00  0.00    -0.254 N 
ATOM      2  C   UNL d   1     -52.953  25.476  33.313  0.00  0.00     0.182 A 
ATOM      3  C   UNL d   1     -51.347  25.851  33.317  0.00  0.00     0.098 A 
ATOM      4  N   UNL d   1     -52.711  26.264  33.316  0.00  0.00    -0.222 NA
ATOM      5  C   UNL d   1     -51.583  25.056  33.314  0.00  0.00     0.081 A 
ATOM      6  C   UNL d   1     -51.910  26.456  33.318  0.00  0.00     0.090 A 
ATOM      7  C   UNL d   1     -52.629  24.084  33.308  0.00  0.00     0.267 A 
ATOM      8  S   UNL d   1     -53.754  25.295  33.310  0.00  0.00    -0.049 SA
ATOM      9  C   UNL d   1     -53.433  23.900  33.306  0.00  0.00     0.068 A 
ATOM     10  O   UNL d   1     -52.066  23.478  33.307  0.00  0.00    -0.267 OA
ATOM     11  C   UNL d   1     -53.996  24.506  33.307  0.00  0.00     0.043 A 
ATOM     12  C   UNL d   1     -51.674  27.246  33.322  0.00  0.00     0.021 C 
ENDROOT
BRANCH   3  13
ATOM     13  C   UNL d   1     -50.545  26.037  33.319  0.00  0.00     0.303 C 
ATOM     14  O   UNL d   1     -49.976  25.438  33.335  0.00  0.00    -0.259 OA
BRANCH  13  15
ATOM     15  O   UNL d   1     -50.304  26.826  33.306  0.00  0.00    -0.269 OA
BRANCH  15  16
ATOM     16  C   UNL d   1     -49.499  27.021  33.316  0.00  0.00     0.152 C 
BRANCH  16  17
ATOM     17  C   UNL d   1     -49.242  27.715  33.684  0.00  0.00     0.143 C 
BRANCH  17  18
ATOM     18  O   UNL d   1     -49.146  27.734  34.507  0.00  0.00    -0.324 OA
ATOM     19  C   UNL d   1     -48.667  28.308  34.855  0.00  0.00     0.182 C 
ENDBRANCH  17  18
ENDBRANCH  16  17
ENDBRANCH  15  16
ENDBRANCH  13  15
ENDBRANCH   3  13
BRANCH   5  20
ATOM     20  C   UNL d   1     -51.020  24.450  33.313  0.00  0.00     0.046 A 
ATOM     21  S   UNL d   1     -50.195  24.465  33.316  0.00  0.00    -0.085 SA
ATOM     22  C   UNL d   1     -49.931  23.684  33.313  0.00  0.00     0.035 A 
ATOM     23  C   UNL d   1     -50.591  23.191  33.308  0.00  0.00     0.007 A 
ATOM     24  C   UNL d   1     -51.262  23.662  33.308  0.00  0.00     0.009 A 
ENDBRANCH   5  20
TORSDOF 6
ENDMDL
