MODEL 1
REMARK VINA RESULT:      28.3      0.000      0.000
REMARK  2 active torsions:
REMARK  status: ('A' for Active; 'I' for Inactive)
REMARK       I    between atoms: N_3  and  C_1 
REMARK    1  A    between atoms: O_4  and  C_1 
REMARK    2  A    between atoms: C_6  and  O_4 
ROOT
ATOM      1  C   UNL d   1      57.483  49.666  50.695  0.00  0.00     0.105 A 
ATOM      2  C   UNL d   1      56.782  49.635  50.265  0.00  0.00     0.030 A 
ATOM      3  C   UNL d   1      58.220  49.675  50.295  0.00  0.00     0.122 A 
ATOM      4  N   UNL d   1      57.464  49.688  51.524  0.00  0.00    -0.242 NA
ATOM      5  C   UNL d   1      56.803  49.614  49.439  0.00  0.00     0.059 A 
ATOM      6  C   UNL d   1      58.239  49.654  49.475  0.00  0.00     0.027 A 
ATOM      7  C   UNL d   1      57.539  49.623  49.039  0.00  0.00     0.013 A 
ATOM      8 CL   UNL d   1      56.097  49.583  49.002  0.00  0.00    -0.082 Cl
ATOM      9  C   UNL d   1      56.057  49.626  50.659  0.00  0.00     0.004 A 
ATOM     10  C   UNL d   1      56.739  49.678  51.918  0.00  0.00     0.099 A 
ATOM     11  C   UNL d   1      56.033  49.647  51.481  0.00  0.00     0.021 A 
ENDROOT
BRANCH   3  12
ATOM     12  O   UNL d   1      58.932  49.706  50.728  0.00  0.00    -0.257 OA
BRANCH  12  13
ATOM     13  C   UNL d   1      59.669  49.648  50.338  0.00  0.00     0.378 C 
ATOM     14  N   UNL d   1      60.360  49.552  50.762  0.00  0.00    -0.252 N 
ATOM     15  C   UNL d   1      61.085  49.495  50.372  0.00  0.00     0.085 A 
ATOM     16  C   UNL d   1      60.336  49.511  51.587  0.00  0.00     0.085 A 
ATOM     17  C   UNL d   1      61.782  49.399  50.797  0.00  0.00     0.019 A 
ATOM     18  C   UNL d   1      61.757  49.358  51.621  0.00  0.00     0.003 A 
ATOM     19  C   UNL d   1      61.037  49.414  52.008  0.00  0.00     0.019 A 
ATOM     20  O   UNL d   1      59.694  49.690  49.503  0.00  0.00    -0.237 OA
ENDBRANCH  12  13
ENDBRANCH   3  12
TORSDOF 2
ENDMDL
