MODEL 1
REMARK VINA RESULT:      58.8      0.000      0.000
REMARK  5 active torsions:
REMARK  status: ('A' for Active; 'I' for Inactive)
REMARK    1  A    between atoms: C_2  and  C_1 
REMARK       I    between atoms: N_3  and  C_1 
REMARK    2  A    between atoms: C_6  and  N_4 
REMARK    3  A    between atoms: O_19  and  C_5 
REMARK    4  A    between atoms: O_22  and  C_7 
REMARK    5  A    between atoms: O_23  and  C_8 
ROOT
ATOM      1  C   UNL d   1      13.454  12.376  -3.089  0.00  0.00     0.265 C 
ATOM      2  N   UNL d   1      13.545  13.104  -3.461  0.00  0.00    -0.269 N 
ATOM      3  N   UNL d   1      13.728  14.567  -4.207  0.00  0.00    -0.301 N 
ATOM      4  C   UNL d   1      13.196  13.238  -4.195  0.00  0.00     0.102 A 
ATOM      5  C   UNL d   1      13.987  13.706  -3.102  0.00  0.00     0.102 A 
ATOM      6  C   UNL d   1      14.077  14.433  -3.474  0.00  0.00     0.100 A 
ATOM      7  C   UNL d   1      13.288  13.973  -4.571  0.00  0.00     0.100 A 
ATOM      8  O   UNL d   1      13.014  11.779  -3.450  0.00  0.00    -0.267 OA
ENDROOT
BRANCH   1   9
ATOM      9  C   UNL d   1      13.803  12.242  -2.356  0.00  0.00     0.061 A 
ATOM     10  C   UNL d   1      13.342  12.270  -1.663  0.00  0.00     0.031 A 
ATOM     11  C   UNL d   1      13.695  12.134  -0.927  0.00  0.00     0.118 A 
ATOM     12  C   UNL d   1      14.501  11.972  -0.880  0.00  0.00     0.138 A 
ATOM     13  C   UNL d   1      14.957  11.944  -1.567  0.00  0.00     0.118 A 
ATOM     14  C   UNL d   1      14.612  12.079  -2.307  0.00  0.00     0.031 A 
BRANCH  11  15
ATOM     15  O   UNL d   1      13.235  12.163  -0.243  0.00  0.00    -0.326 OA
ATOM     16  C   UNL d   1      12.774  12.826  -0.078  0.00  0.00     0.181 C 
ENDBRANCH  11  15
BRANCH  12  17
ATOM     17  O   UNL d   1      14.850  11.838  -0.147  0.00  0.00    -0.324 OA
ATOM     18  C   UNL d   1      15.666  11.917  -0.058  0.00  0.00     0.182 C 
ENDBRANCH  12  17
BRANCH  13  19
ATOM     19  O   UNL d   1      15.774  11.780  -1.523  0.00  0.00    -0.326 OA
ATOM     20  C   UNL d   1      16.315  12.402  -1.533  0.00  0.00     0.181 C 
ENDBRANCH  13  19
ENDBRANCH   1   9
BRANCH   3  21
ATOM     21  C   UNL d   1      13.820  15.300  -4.580  0.00  0.00     0.064 A 
ATOM     22  C   UNL d   1      14.328  15.859  -4.261  0.00  0.00     0.016 A 
ATOM     23  C   UNL d   1      14.422  16.585  -4.627  0.00  0.00     0.001 A 
ATOM     24  C   UNL d   1      14.743  15.686  -3.570  0.00  0.00     0.002 C 
ATOM     25  C   UNL d   1      14.001  16.757  -5.325  0.00  0.00     0.000 A 
ATOM     26  C   UNL d   1      13.490  16.190  -5.643  0.00  0.00     0.002 A 
ATOM     27  C   UNL d   1      14.092  17.486  -5.697  0.00  0.00     0.000 C 
ATOM     28  C   UNL d   1      13.399  15.461  -5.271  0.00  0.00     0.018 A 
ENDBRANCH   3  21
TORSDOF 5
ENDMDL
