MODEL 1
REMARK VINA RESULT:      -5.7      0.000      0.000
REMARK  4 active torsions:
REMARK  status: ('A' for Active; 'I' for Inactive)
REMARK    1  A    between atoms: C_9  and  C_3 
REMARK    2  A    between atoms: C_6  and  C_10 
REMARK    3  A    between atoms: S_7  and  C_9 
REMARK    4  A    between atoms: C_10  and  S_7 
ROOT
ATOM      1  N   UNL d   1     -49.376  13.759  23.172  0.00  0.00    -0.218 NA
ATOM      2  N   UNL d   1     -48.740  14.897  22.958  0.00  0.00    -0.218 NA
ATOM      3  C   UNL d   1     -48.654  14.075  22.938  0.00  0.00     0.206 A 
ATOM      4  C   UNL d   1     -49.890  14.361  23.330  0.00  0.00     0.101 A 
ATOM      5  C   UNL d   1     -49.493  15.072  23.197  0.00  0.00     0.101 A 
ATOM      6  C   UNL d   1     -50.661  14.394  23.576  0.00  0.00     0.021 A 
ATOM      7  C   UNL d   1     -49.881  15.789  23.314  0.00  0.00     0.021 A 
ATOM      8  C   UNL d   1     -51.064  15.087  23.698  0.00  0.00     0.002 A 
ATOM      9  C   UNL d   1     -50.667  15.797  23.565  0.00  0.00     0.002 A 
ENDROOT
BRANCH   3  10
ATOM     10  C   UNL d   1     -47.976  13.656  22.726  0.00  0.00    -0.027 C 
BRANCH  10  11
ATOM     11  S   UNL d   1     -47.297  13.238  22.513  0.00  0.00    -0.041 SA
BRANCH  11  12
ATOM     12  C   UNL d   1     -46.565  13.449  22.830  0.00  0.00     0.043 C 
BRANCH  12  13
ATOM     13  C   UNL d   1     -45.898  12.991  22.670  0.00  0.00     0.007 C 
ATOM     14  C   UNL d   1     -45.838  12.227  22.983  0.00  0.00     0.001 C 
ATOM     15  C   UNL d   1     -45.293  13.296  22.197  0.00  0.00     0.001 C 
ENDBRANCH  12  13
ENDBRANCH  11  12
ENDBRANCH  10  11
ENDBRANCH   3  10
TORSDOF 4
ENDMDL
MODEL 2
REMARK VINA RESULT:      -5.3      1.504      1.989
REMARK  4 active torsions:
REMARK  status: ('A' for Active; 'I' for Inactive)
REMARK    1  A    between atoms: C_9  and  C_3 
REMARK    2  A    between atoms: C_6  and  C_10 
REMARK    3  A    between atoms: S_7  and  C_9 
REMARK    4  A    between atoms: C_10  and  S_7 
ROOT
ATOM      1  N   UNL d   1     -48.717  12.025  23.493  0.00  0.00    -0.218 NA
ATOM      2  N   UNL d   1     -48.950  13.311  23.300  0.00  0.00    -0.218 NA
ATOM      3  C   UNL d   1     -48.349  12.746  23.348  0.00  0.00     0.206 A 
ATOM      4  C   UNL d   1     -49.516  12.139  23.533  0.00  0.00     0.101 A 
ATOM      5  C   UNL d   1     -49.661  12.942  23.413  0.00  0.00     0.101 A 
ATOM      6  C   UNL d   1     -50.149  11.650  23.659  0.00  0.00     0.021 A 
ATOM      7  C   UNL d   1     -50.435  13.227  23.424  0.00  0.00     0.021 A 
ATOM      8  C   UNL d   1     -50.918  11.906  23.674  0.00  0.00     0.002 A 
ATOM      9  C   UNL d   1     -51.064  12.709  23.554  0.00  0.00     0.002 A 
ENDROOT
BRANCH   3  10
ATOM     10  C   UNL d   1     -47.540  12.880  23.266  0.00  0.00    -0.027 C 
BRANCH  10  11
ATOM     11  S   UNL d   1     -46.730  13.015  23.185  0.00  0.00    -0.041 SA
BRANCH  11  12
ATOM     12  C   UNL d   1     -46.375  12.958  22.442  0.00  0.00     0.043 C 
BRANCH  12  13
ATOM     13  C   UNL d   1     -45.663  13.349  22.293  0.00  0.00     0.007 C 
ATOM     14  C   UNL d   1     -45.565  14.134  22.540  0.00  0.00     0.001 C 
ATOM     15  C   UNL d   1     -45.052  12.957  21.900  0.00  0.00     0.001 C 
ENDBRANCH  12  13
ENDBRANCH  11  12
ENDBRANCH  10  11
ENDBRANCH   3  10
TORSDOF 4
ENDMDL
MODEL 3
REMARK VINA RESULT:      -5.0      1.128      1.436
REMARK  4 active torsions:
REMARK  status: ('A' for Active; 'I' for Inactive)
REMARK    1  A    between atoms: C_9  and  C_3 
REMARK    2  A    between atoms: C_6  and  C_10 
REMARK    3  A    between atoms: S_7  and  C_9 
REMARK    4  A    between atoms: C_10  and  S_7 
ROOT
ATOM      1  N   UNL d   1     -49.011  13.115  21.893  0.00  0.00    -0.218 NA
ATOM      2  N   UNL d   1     -48.992  13.991  22.882  0.00  0.00    -0.218 NA
ATOM      3  C   UNL d   1     -48.540  13.417  22.496  0.00  0.00     0.206 A 
ATOM      4  C   UNL d   1     -49.727  13.488  21.906  0.00  0.00     0.101 A 
ATOM      5  C   UNL d   1     -49.715  14.035  22.523  0.00  0.00     0.101 A 
ATOM      6  C   UNL d   1     -50.401  13.429  21.459  0.00  0.00     0.021 A 
ATOM      7  C   UNL d   1     -50.377  14.503  22.671  0.00  0.00     0.021 A 
ATOM      8  C   UNL d   1     -51.064  13.878  21.586  0.00  0.00     0.002 A 
ATOM      9  C   UNL d   1     -51.052  14.425  22.203  0.00  0.00     0.002 A 
ENDROOT
BRANCH   3  10
ATOM     10  C   UNL d   1     -47.768  13.192  22.680  0.00  0.00    -0.027 C 
BRANCH  10  11
ATOM     11  S   UNL d   1     -46.996  12.966  22.864  0.00  0.00    -0.041 SA
BRANCH  11  12
ATOM     12  C   UNL d   1     -46.361  13.287  22.445  0.00  0.00     0.043 C 
BRANCH  12  13
ATOM     13  C   UNL d   1     -45.623  12.920  22.470  0.00  0.00     0.007 C 
ATOM     14  C   UNL d   1     -44.984  13.251  22.060  0.00  0.00     0.001 C 
ATOM     15  C   UNL d   1     -45.523  12.224  22.903  0.00  0.00     0.001 C 
ENDBRANCH  12  13
ENDBRANCH  11  12
ENDBRANCH  10  11
ENDBRANCH   3  10
TORSDOF 4
ENDMDL
MODEL 4
REMARK VINA RESULT:      -4.7      1.119      1.461
REMARK  4 active torsions:
REMARK  status: ('A' for Active; 'I' for Inactive)
REMARK    1  A    between atoms: C_9  and  C_3 
REMARK    2  A    between atoms: C_6  and  C_10 
REMARK    3  A    between atoms: S_7  and  C_9 
REMARK    4  A    between atoms: C_10  and  S_7 
ROOT
ATOM      1  N   UNL d   1     -48.993  13.780  22.997  0.00  0.00    -0.218 NA
ATOM      2  N   UNL d   1     -48.936  13.150  21.836  0.00  0.00    -0.218 NA
ATOM      3  C   UNL d   1     -48.498  13.337  22.512  0.00  0.00     0.206 A 
ATOM      4  C   UNL d   1     -49.710  13.864  22.635  0.00  0.00     0.101 A 
ATOM      5  C   UNL d   1     -49.675  13.471  21.911  0.00  0.00     0.101 A 
ATOM      6  C   UNL d   1     -50.403  14.233  22.837  0.00  0.00     0.021 A 
ATOM      7  C   UNL d   1     -50.332  13.461  21.414  0.00  0.00     0.021 A 
ATOM      8  C   UNL d   1     -51.063  14.238  22.365  0.00  0.00     0.002 A 
ATOM      9  C   UNL d   1     -51.027  13.845  21.641  0.00  0.00     0.002 A 
ENDROOT
BRANCH   3  10
ATOM     10  C   UNL d   1     -47.717  13.121  22.668  0.00  0.00    -0.027 C 
BRANCH  10  11
ATOM     11  S   UNL d   1     -46.936  12.905  22.824  0.00  0.00    -0.041 SA
BRANCH  11  12
ATOM     12  C   UNL d   1     -46.345  13.067  22.271  0.00  0.00     0.043 C 
BRANCH  12  13
ATOM     13  C   UNL d   1     -45.557  12.899  22.448  0.00  0.00     0.007 C 
ATOM     14  C   UNL d   1     -45.374  12.270  22.957  0.00  0.00     0.001 C 
ATOM     15  C   UNL d   1     -44.954  13.356  22.119  0.00  0.00     0.001 C 
ENDBRANCH  12  13
ENDBRANCH  11  12
ENDBRANCH  10  11
ENDBRANCH   3  10
TORSDOF 4
ENDMDL
MODEL 5
REMARK VINA RESULT:      -4.7      8.369     10.835
REMARK  4 active torsions:
REMARK  status: ('A' for Active; 'I' for Inactive)
REMARK    1  A    between atoms: C_9  and  C_3 
REMARK    2  A    between atoms: C_6  and  C_10 
REMARK    3  A    between atoms: S_7  and  C_9 
REMARK    4  A    between atoms: C_10  and  S_7 
ROOT
ATOM      1  N   UNL d   1     -39.239  13.475  17.930  0.00  0.00    -0.218 NA
ATOM      2  N   UNL d   1     -39.592  14.608  17.350  0.00  0.00    -0.218 NA
ATOM      3  C   UNL d   1     -39.716  14.139  18.019  0.00  0.00     0.206 A 
ATOM      4  C   UNL d   1     -38.835  13.531  17.234  0.00  0.00     0.101 A 
ATOM      5  C   UNL d   1     -39.055  14.239  16.872  0.00  0.00     0.101 A 
ATOM      6  C   UNL d   1     -38.296  13.059  16.855  0.00  0.00     0.021 A 
ATOM      7  C   UNL d   1     -38.729  14.449  16.144  0.00  0.00     0.021 A 
ATOM      8  C   UNL d   1     -37.961  13.244  16.140  0.00  0.00     0.002 A 
ATOM      9  C   UNL d   1     -38.182  13.952  15.778  0.00  0.00     0.002 A 
ENDROOT
BRANCH   3  10
ATOM     10  C   UNL d   1     -40.221  14.305  18.650  0.00  0.00    -0.027 C 
BRANCH  10  11
ATOM     11  S   UNL d   1     -40.725  14.471  19.282  0.00  0.00    -0.041 SA
BRANCH  11  12
ATOM     12  C   UNL d   1     -40.436  14.862  19.949  0.00  0.00     0.043 C 
BRANCH  12  13
ATOM     13  C   UNL d   1     -40.937  15.016  20.586  0.00  0.00     0.007 C 
ATOM     14  C   UNL d   1     -41.158  15.797  20.757  0.00  0.00     0.001 C 
ATOM     15  C   UNL d   1     -41.217  14.394  21.051  0.00  0.00     0.001 C 
ENDBRANCH  12  13
ENDBRANCH  11  12
ENDBRANCH  10  11
ENDBRANCH   3  10
TORSDOF 4
ENDMDL
MODEL 6
REMARK VINA RESULT:      -4.5      9.082      9.539
REMARK  4 active torsions:
REMARK  status: ('A' for Active; 'I' for Inactive)
REMARK    1  A    between atoms: C_9  and  C_3 
REMARK    2  A    between atoms: C_6  and  C_10 
REMARK    3  A    between atoms: S_7  and  C_9 
REMARK    4  A    between atoms: C_10  and  S_7 
ROOT
ATOM      1  N   UNL d   1     -40.548  15.476  19.342  0.00  0.00    -0.218 NA
ATOM      2  N   UNL d   1     -40.078  14.296  18.981  0.00  0.00    -0.218 NA
ATOM      3  C   UNL d   1     -40.221  14.781  19.634  0.00  0.00     0.206 A 
ATOM      4  C   UNL d   1     -40.605  15.424  18.538  0.00  0.00     0.101 A 
ATOM      5  C   UNL d   1     -40.312  14.687  18.313  0.00  0.00     0.101 A 
ATOM      6  C   UNL d   1     -40.876  15.922  17.959  0.00  0.00     0.021 A 
ATOM      7  C   UNL d   1     -40.300  14.474  17.516  0.00  0.00     0.021 A 
ATOM      8  C   UNL d   1     -40.875  15.735  17.170  0.00  0.00     0.002 A 
ATOM      9  C   UNL d   1     -40.581  14.998  16.944  0.00  0.00     0.002 A 
ENDROOT
BRANCH   3  10
ATOM     10  C   UNL d   1     -40.066  14.601  20.424  0.00  0.00    -0.027 C 
BRANCH  10  11
ATOM     11  S   UNL d   1     -39.910  14.421  21.214  0.00  0.00    -0.041 SA
BRANCH  11  12
ATOM     12  C   UNL d   1     -39.131  14.340  21.474  0.00  0.00     0.043 C 
BRANCH  12  13
ATOM     13  C   UNL d   1     -38.974  14.190  22.270  0.00  0.00     0.007 C 
ATOM     14  C   UNL d   1     -38.959  13.409  22.547  0.00  0.00     0.001 C 
ATOM     15  C   UNL d   1     -38.834  14.817  22.787  0.00  0.00     0.001 C 
ENDBRANCH  12  13
ENDBRANCH  11  12
ENDBRANCH  10  11
ENDBRANCH   3  10
TORSDOF 4
ENDMDL
MODEL 7
REMARK VINA RESULT:      -4.3      8.435     10.042
REMARK  4 active torsions:
REMARK  status: ('A' for Active; 'I' for Inactive)
REMARK    1  A    between atoms: C_9  and  C_3 
REMARK    2  A    between atoms: C_6  and  C_10 
REMARK    3  A    between atoms: S_7  and  C_9 
REMARK    4  A    between atoms: C_10  and  S_7 
ROOT
ATOM      1  N   UNL d   1     -40.354  14.376  18.916  0.00  0.00    -0.218 NA
ATOM      2  N   UNL d   1     -39.854  15.597  18.963  0.00  0.00    -0.218 NA
ATOM      3  C   UNL d   1     -39.921  14.926  18.486  0.00  0.00     0.206 A 
ATOM      4  C   UNL d   1     -40.549  14.694  19.632  0.00  0.00     0.101 A 
ATOM      5  C   UNL d   1     -40.236  15.457  19.661  0.00  0.00     0.101 A 
ATOM      6  C   UNL d   1     -40.961  14.424  20.275  0.00  0.00     0.021 A 
ATOM      7  C   UNL d   1     -40.347  15.922  20.333  0.00  0.00     0.021 A 
ATOM      8  C   UNL d   1     -41.083  14.862  20.947  0.00  0.00     0.002 A 
ATOM      9  C   UNL d   1     -40.770  15.625  20.976  0.00  0.00     0.002 A 
ENDROOT
BRANCH   3  10
ATOM     10  C   UNL d   1     -39.612  14.829  17.727  0.00  0.00    -0.027 C 
BRANCH  10  11
ATOM     11  S   UNL d   1     -39.304  14.732  16.968  0.00  0.00    -0.041 SA
BRANCH  11  12
ATOM     12  C   UNL d   1     -38.638  14.258  16.850  0.00  0.00     0.043 C 
BRANCH  12  13
ATOM     13  C   UNL d   1     -38.293  14.210  16.102  0.00  0.00     0.007 C 
ATOM     14  C   UNL d   1     -38.040  13.476  15.812  0.00  0.00     0.001 C 
ATOM     15  C   UNL d   1     -38.200  14.892  15.647  0.00  0.00     0.001 C 
ENDBRANCH  12  13
ENDBRANCH  11  12
ENDBRANCH  10  11
ENDBRANCH   3  10
TORSDOF 4
ENDMDL
MODEL 8
REMARK VINA RESULT:      -4.3      1.168      1.493
REMARK  4 active torsions:
REMARK  status: ('A' for Active; 'I' for Inactive)
REMARK    1  A    between atoms: C_9  and  C_3 
REMARK    2  A    between atoms: C_6  and  C_10 
REMARK    3  A    between atoms: S_7  and  C_9 
REMARK    4  A    between atoms: C_10  and  S_7 
ROOT
ATOM      1  N   UNL d   1     -48.905  12.739  23.433  0.00  0.00    -0.218 NA
ATOM      2  N   UNL d   1     -48.314  13.838  23.003  0.00  0.00    -0.218 NA
ATOM      3  C   UNL d   1     -48.173  13.060  23.241  0.00  0.00     0.206 A 
ATOM      4  C   UNL d   1     -49.477  13.296  23.318  0.00  0.00     0.101 A 
ATOM      5  C   UNL d   1     -49.108  13.983  23.049  0.00  0.00     0.101 A 
ATOM      6  C   UNL d   1     -50.282  13.305  23.410  0.00  0.00     0.021 A 
ATOM      7  C   UNL d   1     -49.557  14.654  22.882  0.00  0.00     0.021 A 
ATOM      8  C   UNL d   1     -50.745  13.952  23.253  0.00  0.00     0.002 A 
ATOM      9  C   UNL d   1     -50.376  14.639  22.984  0.00  0.00     0.002 A 
ENDROOT
BRANCH   3  10
ATOM     10  C   UNL d   1     -47.441  12.682  23.279  0.00  0.00    -0.027 C 
BRANCH  10  11
ATOM     11  S   UNL d   1     -46.709  12.303  23.317  0.00  0.00    -0.041 SA
BRANCH  11  12
ATOM     12  C   UNL d   1     -46.668  11.502  23.514  0.00  0.00     0.043 C 
BRANCH  12  13
ATOM     13  C   UNL d   1     -45.941  11.112  23.508  0.00  0.00     0.007 C 
ATOM     14  C   UNL d   1     -45.904  10.307  23.698  0.00  0.00     0.001 C 
ATOM     15  C   UNL d   1     -45.254  11.526  23.313  0.00  0.00     0.001 C 
ENDBRANCH  12  13
ENDBRANCH  11  12
ENDBRANCH  10  11
ENDBRANCH   3  10
TORSDOF 4
ENDMDL
MODEL 9
REMARK VINA RESULT:      -4.2      9.375     10.187
REMARK  4 active torsions:
REMARK  status: ('A' for Active; 'I' for Inactive)
REMARK    1  A    between atoms: C_9  and  C_3 
REMARK    2  A    between atoms: C_6  and  C_10 
REMARK    3  A    between atoms: S_7  and  C_9 
REMARK    4  A    between atoms: C_10  and  S_7 
ROOT
ATOM      1  N   UNL d   1     -39.790  14.462  20.694  0.00  0.00    -0.218 NA
ATOM      2  N   UNL d   1     -38.673  14.076  20.104  0.00  0.00    -0.218 NA
ATOM      3  C   UNL d   1     -39.386  14.475  19.979  0.00  0.00     0.206 A 
ATOM      4  C   UNL d   1     -39.345  14.071  21.242  0.00  0.00     0.101 A 
ATOM      5  C   UNL d   1     -38.648  13.830  20.874  0.00  0.00     0.101 A 
ATOM      6  C   UNL d   1     -39.449  13.886  22.025  0.00  0.00     0.021 A 
ATOM      7  C   UNL d   1     -38.079  13.412  21.301  0.00  0.00     0.021 A 
ATOM      8  C   UNL d   1     -38.904  13.477  22.465  0.00  0.00     0.002 A 
ATOM      9  C   UNL d   1     -38.207  13.236  22.097  0.00  0.00     0.002 A 
ENDROOT
BRANCH   3  10
ATOM     10  C   UNL d   1     -39.641  14.817  19.273  0.00  0.00    -0.027 C 
BRANCH  10  11
ATOM     11  S   UNL d   1     -39.895  15.160  18.567  0.00  0.00    -0.041 SA
BRANCH  11  12
ATOM     12  C   UNL d   1     -40.231  14.690  17.977  0.00  0.00     0.043 C 
BRANCH  12  13
ATOM     13  C   UNL d   1     -40.350  14.999  17.221  0.00  0.00     0.007 C 
ATOM     14  C   UNL d   1     -39.783  14.872  16.630  0.00  0.00     0.001 C 
ATOM     15  C   UNL d   1     -41.033  15.432  17.056  0.00  0.00     0.001 C 
ENDBRANCH  12  13
ENDBRANCH  11  12
ENDBRANCH  10  11
ENDBRANCH   3  10
TORSDOF 4
ENDMDL
