MODEL 1
REMARK VINA RESULT:      -6.7      0.000      0.000
REMARK  6 active torsions:
REMARK  status: ('A' for Active; 'I' for Inactive)
REMARK    1  A    between atoms: C_11  and  N_4 
REMARK    2  A    between atoms: C_19  and  C_7 
REMARK    3  A    between atoms: C_17  and  C_11 
REMARK    4  A    between atoms: O_21  and  C_16 
REMARK    5  A    between atoms: C_20  and  C_17 
REMARK    6  A    between atoms: C_25  and  C_19 
ROOT
ATOM      1  C   UNL d   1      51.102  33.991  53.040  0.00  0.00     0.137 A 
ATOM      2  C   UNL d   1      51.010  33.399  52.469  0.00  0.00     0.192 A 
ATOM      3  C   UNL d   1      51.732  33.961  53.571  0.00  0.00     0.272 A 
ATOM      4  N   UNL d   1      52.271  33.341  53.532  0.00  0.00    -0.258 N 
ATOM      5  N   UNL d   1      51.546  32.781  52.429  0.00  0.00    -0.204 NA
ATOM      6  C   UNL d   1      50.559  34.613  53.078  0.00  0.00     0.205 A 
ATOM      7  C   UNL d   1      52.182  32.748  52.963  0.00  0.00     0.152 A 
ATOM      8  C   UNL d   1      49.937  34.643  52.554  0.00  0.00     0.062 A 
ATOM      9  O   UNL d   1      50.381  33.434  51.944  0.00  0.00    -0.289 OA
ATOM     10  C   UNL d   1      49.842  34.057  51.986  0.00  0.00     0.107 A 
ATOM     11  C   UNL d   1      49.205  34.089  51.451  0.00  0.00     0.049 A 
ATOM     12  C   UNL d   1      49.396  35.268  52.596  0.00  0.00     0.007 A 
ATOM     13  O   UNL d   1      51.820  34.552  54.138  0.00  0.00    -0.266 OA
ATOM     14  O   UNL d   1      50.654  35.199  53.646  0.00  0.00    -0.286 OA
ATOM     15  C   UNL d   1      48.670  34.711  51.495  0.00  0.00     0.096 A 
ATOM     16  C   UNL d   1      48.765  35.297  52.064  0.00  0.00     0.024 A 
ENDROOT
BRANCH   4  17
ATOM     17  C   UNL d   1      52.901  33.313  54.064  0.00  0.00     0.084 C 
BRANCH  17  18
ATOM     18  C   UNL d   1      53.481  33.913  54.062  0.00  0.00     0.019 C 
BRANCH  18  19
ATOM     19  C   UNL d   1      54.157  33.833  54.532  0.00  0.00     0.002 A 
ATOM     20  C   UNL d   1      54.907  33.917  54.182  0.00  0.00     0.000 A 
ATOM     21  C   UNL d   1      55.592  33.837  54.651  0.00  0.00     0.000 A 
ATOM     22  C   UNL d   1      55.525  33.676  55.462  0.00  0.00     0.000 A 
ATOM     23  C   UNL d   1      54.769  33.593  55.805  0.00  0.00     0.000 A 
ATOM     24  C   UNL d   1      54.092  33.673  55.336  0.00  0.00     0.000 A 
ENDBRANCH  18  19
ENDBRANCH  17  18
ENDBRANCH   4  17
BRANCH   7  25
ATOM     25  C   UNL d   1      52.721  32.125  52.921  0.00  0.00     0.038 C 
BRANCH  25  26
ATOM     26  C   UNL d   1      52.462  31.360  52.765  0.00  0.00     0.003 C 
ATOM     27  C   UNL d   1      52.997  30.741  52.774  0.00  0.00     0.000 C 
ENDBRANCH  25  26
ENDBRANCH   7  25
BRANCH  15  28
ATOM     28  O   UNL d   1      48.042  34.752  50.975  0.00  0.00    -0.328 OA
ATOM     29  C   UNL d   1      47.449  35.309  51.098  0.00  0.00     0.181 C 
ENDBRANCH  15  28
TORSDOF 6
ENDMDL
MODEL 2
REMARK VINA RESULT:      -6.4     10.035     10.811
REMARK  6 active torsions:
REMARK  status: ('A' for Active; 'I' for Inactive)
REMARK    1  A    between atoms: C_11  and  N_4 
REMARK    2  A    between atoms: C_19  and  C_7 
REMARK    3  A    between atoms: C_17  and  C_11 
REMARK    4  A    between atoms: O_21  and  C_16 
REMARK    5  A    between atoms: C_20  and  C_17 
REMARK    6  A    between atoms: C_25  and  C_19 
ROOT
ATOM      1  C   UNL d   1      44.609  28.313  58.267  0.00  0.00     0.137 A 
ATOM      2  C   UNL d   1      44.778  28.644  57.528  0.00  0.00     0.192 A 
ATOM      3  C   UNL d   1      44.482  28.799  58.921  0.00  0.00     0.272 A 
ATOM      4  N   UNL d   1      44.523  29.616  58.837  0.00  0.00    -0.258 N 
ATOM      5  N   UNL d   1      44.819  29.458  57.443  0.00  0.00    -0.204 NA
ATOM      6  C   UNL d   1      44.569  27.492  58.349  0.00  0.00     0.205 A 
ATOM      7  C   UNL d   1      44.691  29.951  58.100  0.00  0.00     0.152 A 
ATOM      8  C   UNL d   1      44.694  27.011  57.705  0.00  0.00     0.062 A 
ATOM      9  O   UNL d   1      44.904  28.155  56.882  0.00  0.00    -0.289 OA
ATOM     10  C   UNL d   1      44.862  27.336  56.969  0.00  0.00     0.107 A 
ATOM     11  C   UNL d   1      44.990  26.843  56.311  0.00  0.00     0.049 A 
ATOM     12  C   UNL d   1      44.652  26.189  57.792  0.00  0.00     0.007 A 
ATOM     13  O   UNL d   1      44.314  28.466  59.654  0.00  0.00    -0.266 OA
ATOM     14  O   UNL d   1      44.401  27.166  59.085  0.00  0.00    -0.286 OA
ATOM     15  C   UNL d   1      44.948  26.028  56.401  0.00  0.00     0.096 A 
ATOM     16  C   UNL d   1      44.780  25.702  57.137  0.00  0.00     0.024 A 
ENDROOT
BRANCH   4  17
ATOM     17  C   UNL d   1      44.395  30.102  59.492  0.00  0.00     0.084 C 
BRANCH  17  18
ATOM     18  C   UNL d   1      44.968  30.152  60.097  0.00  0.00     0.019 C 
BRANCH  18  19
ATOM     19  C   UNL d   1      44.791  30.552  60.799  0.00  0.00     0.002 A 
ATOM     20  C   UNL d   1      44.916  30.170  61.526  0.00  0.00     0.000 A 
ATOM     21  C   UNL d   1      44.739  30.570  62.238  0.00  0.00     0.000 A 
ATOM     22  C   UNL d   1      44.440  31.343  62.217  0.00  0.00     0.000 A 
ATOM     23  C   UNL d   1      44.317  31.719  61.482  0.00  0.00     0.000 A 
ATOM     24  C   UNL d   1      44.494  31.320  60.780  0.00  0.00     0.000 A 
ENDBRANCH  18  19
ENDBRANCH  17  18
ENDBRANCH   4  17
BRANCH   7  25
ATOM     25  C   UNL d   1      44.733  30.770  58.012  0.00  0.00     0.038 C 
BRANCH  25  26
ATOM     26  C   UNL d   1      44.671  31.113  57.268  0.00  0.00     0.003 C 
ATOM     27  C   UNL d   1      44.669  31.928  57.196  0.00  0.00     0.000 C 
ENDBRANCH  25  26
ENDBRANCH   7  25
BRANCH  15  28
ATOM     28  O   UNL d   1      45.072  25.536  55.761  0.00  0.00    -0.328 OA
ATOM     29  C   UNL d   1      44.450  25.083  55.470  0.00  0.00     0.181 C 
ENDBRANCH  15  28
TORSDOF 6
ENDMDL
MODEL 3
REMARK VINA RESULT:      -6.4      2.052      6.441
REMARK  6 active torsions:
REMARK  status: ('A' for Active; 'I' for Inactive)
REMARK    1  A    between atoms: C_11  and  N_4 
REMARK    2  A    between atoms: C_19  and  C_7 
REMARK    3  A    between atoms: C_17  and  C_11 
REMARK    4  A    between atoms: O_21  and  C_16 
REMARK    5  A    between atoms: C_20  and  C_17 
REMARK    6  A    between atoms: C_25  and  C_19 
ROOT
ATOM      1  C   UNL d   1      49.123  35.090  52.400  0.00  0.00     0.137 A 
ATOM      2  C   UNL d   1      49.302  35.312  53.176  0.00  0.00     0.192 A 
ATOM      3  C   UNL d   1      48.400  35.300  52.064  0.00  0.00     0.272 A 
ATOM      4  N   UNL d   1      47.855  35.732  52.503  0.00  0.00    -0.258 N 
ATOM      5  N   UNL d   1      48.760  35.741  53.615  0.00  0.00    -0.204 NA
ATOM      6  C   UNL d   1      49.672  34.657  51.960  0.00  0.00     0.205 A 
ATOM      7  C   UNL d   1      48.030  35.955  53.280  0.00  0.00     0.152 A 
ATOM      8  C   UNL d   1      50.386  34.448  52.290  0.00  0.00     0.062 A 
ATOM      9  O   UNL d   1      50.023  35.099  53.505  0.00  0.00    -0.289 OA
ATOM     10  C   UNL d   1      50.567  34.667  53.061  0.00  0.00     0.107 A 
ATOM     11  C   UNL d   1      51.297  34.453  53.397  0.00  0.00     0.049 A 
ATOM     12  C   UNL d   1      50.933  34.014  51.845  0.00  0.00     0.007 A 
ATOM     13  O   UNL d   1      48.225  35.078  51.291  0.00  0.00    -0.266 OA
ATOM     14  O   UNL d   1      49.490  34.438  51.188  0.00  0.00    -0.286 OA
ATOM     15  C   UNL d   1      51.838  34.022  52.953  0.00  0.00     0.096 A 
ATOM     16  C   UNL d   1      51.657  33.804  52.182  0.00  0.00     0.024 A 
ENDROOT
BRANCH   4  17
ATOM     17  C   UNL d   1      47.131  35.942  52.166  0.00  0.00     0.084 C 
BRANCH  17  18
ATOM     18  C   UNL d   1      46.597  35.352  51.914  0.00  0.00     0.019 C 
BRANCH  18  19
ATOM     19  C   UNL d   1      45.841  35.565  51.657  0.00  0.00     0.002 A 
ATOM     20  C   UNL d   1      45.177  35.215  52.014  0.00  0.00     0.000 A 
ATOM     21  C   UNL d   1      44.411  35.426  51.758  0.00  0.00     0.000 A 
ATOM     22  C   UNL d   1      44.314  35.982  51.151  0.00  0.00     0.000 A 
ATOM     23  C   UNL d   1      44.986  36.329  50.797  0.00  0.00     0.000 A 
ATOM     24  C   UNL d   1      45.743  36.117  51.053  0.00  0.00     0.000 A 
ENDBRANCH  18  19
ENDBRANCH  17  18
ENDBRANCH   4  17
BRANCH   7  25
ATOM     25  C   UNL d   1      47.486  36.388  53.723  0.00  0.00     0.038 C 
BRANCH  25  26
ATOM     26  C   UNL d   1      47.603  36.504  54.529  0.00  0.00     0.003 C 
ATOM     27  C   UNL d   1      46.971  36.710  55.005  0.00  0.00     0.000 C 
ENDBRANCH  25  26
ENDBRANCH   7  25
BRANCH  15  28
ATOM     28  O   UNL d   1      52.557  33.808  53.274  0.00  0.00    -0.328 OA
ATOM     29  C   UNL d   1      52.721  33.013  53.410  0.00  0.00     0.181 C 
ENDBRANCH  15  28
TORSDOF 6
ENDMDL
MODEL 4
REMARK VINA RESULT:      -6.0      1.708      5.188
REMARK  6 active torsions:
REMARK  status: ('A' for Active; 'I' for Inactive)
REMARK    1  A    between atoms: C_11  and  N_4 
REMARK    2  A    between atoms: C_19  and  C_7 
REMARK    3  A    between atoms: C_17  and  C_11 
REMARK    4  A    between atoms: O_21  and  C_16 
REMARK    5  A    between atoms: C_20  and  C_17 
REMARK    6  A    between atoms: C_25  and  C_19 
ROOT
ATOM      1  C   UNL d   1      51.909  32.422  53.347  0.00  0.00     0.137 A 
ATOM      2  C   UNL d   1      52.669  32.702  53.514  0.00  0.00     0.192 A 
ATOM      3  C   UNL d   1      51.285  32.950  53.246  0.00  0.00     0.272 A 
ATOM      4  N   UNL d   1      51.419  33.759  53.312  0.00  0.00    -0.258 N 
ATOM      5  N   UNL d   1      52.805  33.507  53.580  0.00  0.00    -0.204 NA
ATOM      6  C   UNL d   1      51.776  31.609  53.281  0.00  0.00     0.205 A 
ATOM      7  C   UNL d   1      52.178  34.043  53.479  0.00  0.00     0.152 A 
ATOM      8  C   UNL d   1      52.392  31.086  53.380  0.00  0.00     0.062 A 
ATOM      9  O   UNL d   1      53.286  32.170  53.613  0.00  0.00    -0.289 OA
ATOM     10  C   UNL d   1      53.148  31.360  53.546  0.00  0.00     0.107 A 
ATOM     11  C   UNL d   1      53.776  30.824  53.647  0.00  0.00     0.049 A 
ATOM     12  C   UNL d   1      52.254  30.272  53.313  0.00  0.00     0.007 A 
ATOM     13  O   UNL d   1      50.530  32.668  53.080  0.00  0.00    -0.266 OA
ATOM     14  O   UNL d   1      51.019  31.335  53.114  0.00  0.00    -0.286 OA
ATOM     15  C   UNL d   1      53.636  30.017  53.580  0.00  0.00     0.096 A 
ATOM     16  C   UNL d   1      52.879  29.743  53.413  0.00  0.00     0.024 A 
ENDROOT
BRANCH   4  17
ATOM     17  C   UNL d   1      50.794  34.288  53.211  0.00  0.00     0.084 C 
BRANCH  17  18
ATOM     18  C   UNL d   1      50.406  34.346  52.474  0.00  0.00     0.019 C 
BRANCH  18  19
ATOM     19  C   UNL d   1      49.687  34.751  52.418  0.00  0.00     0.002 A 
ATOM     20  C   UNL d   1      49.259  34.722  51.706  0.00  0.00     0.000 A 
ATOM     21  C   UNL d   1      48.533  35.128  51.645  0.00  0.00     0.000 A 
ATOM     22  C   UNL d   1      48.241  35.559  52.291  0.00  0.00     0.000 A 
ATOM     23  C   UNL d   1      48.677  35.583  53.002  0.00  0.00     0.000 A 
ATOM     24  C   UNL d   1      49.396  35.179  53.059  0.00  0.00     0.000 A 
ENDBRANCH  18  19
ENDBRANCH  17  18
ENDBRANCH   4  17
BRANCH   7  25
ATOM     25  C   UNL d   1      52.316  34.853  53.547  0.00  0.00     0.038 C 
BRANCH  25  26
ATOM     26  C   UNL d   1      53.009  35.131  53.891  0.00  0.00     0.003 C 
ATOM     27  C   UNL d   1      53.009  35.851  54.279  0.00  0.00     0.000 C 
ENDBRANCH  25  26
ENDBRANCH   7  25
BRANCH  15  28
ATOM     28  O   UNL d   1      54.246  29.483  53.677  0.00  0.00    -0.328 OA
ATOM     29  C   UNL d   1      54.142  28.833  54.171  0.00  0.00     0.181 C 
ENDBRANCH  15  28
TORSDOF 6
ENDMDL
MODEL 5
REMARK VINA RESULT:      -6.0     10.846     11.887
REMARK  6 active torsions:
REMARK  status: ('A' for Active; 'I' for Inactive)
REMARK    1  A    between atoms: C_11  and  N_4 
REMARK    2  A    between atoms: C_19  and  C_7 
REMARK    3  A    between atoms: C_17  and  C_11 
REMARK    4  A    between atoms: O_21  and  C_16 
REMARK    5  A    between atoms: C_20  and  C_17 
REMARK    6  A    between atoms: C_25  and  C_19 
ROOT
ATOM      1  C   UNL d   1      44.446  26.392  58.098  0.00  0.00     0.137 A 
ATOM      2  C   UNL d   1      44.505  26.101  58.870  0.00  0.00     0.192 A 
ATOM      3  C   UNL d   1      44.396  27.204  57.962  0.00  0.00     0.272 A 
ATOM      4  N   UNL d   1      44.404  27.726  58.598  0.00  0.00    -0.258 N 
ATOM      5  N   UNL d   1      44.513  26.619  59.504  0.00  0.00    -0.204 NA
ATOM      6  C   UNL d   1      44.439  25.867  57.460  0.00  0.00     0.205 A 
ATOM      7  C   UNL d   1      44.462  27.438  59.372  0.00  0.00     0.152 A 
ATOM      8  C   UNL d   1      44.489  25.065  57.592  0.00  0.00     0.062 A 
ATOM      9  O   UNL d   1      44.555  25.292  58.997  0.00  0.00    -0.289 OA
ATOM     10  C   UNL d   1      44.547  24.772  58.358  0.00  0.00     0.107 A 
ATOM     11  C   UNL d   1      44.598  23.952  58.491  0.00  0.00     0.049 A 
ATOM     12  C   UNL d   1      44.480  24.542  56.950  0.00  0.00     0.007 A 
ATOM     13  O   UNL d   1      44.338  27.490  57.193  0.00  0.00    -0.266 OA
ATOM     14  O   UNL d   1      44.380  26.160  56.694  0.00  0.00    -0.286 OA
ATOM     15  C   UNL d   1      44.590  23.436  57.852  0.00  0.00     0.096 A 
ATOM     16  C   UNL d   1      44.531  23.729  57.086  0.00  0.00     0.024 A 
ENDROOT
BRANCH   4  17
ATOM     17  C   UNL d   1      44.353  28.538  58.462  0.00  0.00     0.084 C 
BRANCH  17  18
ATOM     18  C   UNL d   1      44.977  28.941  58.080  0.00  0.00     0.019 C 
BRANCH  18  19
ATOM     19  C   UNL d   1      44.915  29.753  57.936  0.00  0.00     0.002 A 
ATOM     20  C   UNL d   1      45.183  30.289  58.512  0.00  0.00     0.000 A 
ATOM     21  C   UNL d   1      45.123  31.110  58.371  0.00  0.00     0.000 A 
ATOM     22  C   UNL d   1      44.797  31.387  57.660  0.00  0.00     0.000 A 
ATOM     23  C   UNL d   1      44.529  30.841  57.088  0.00  0.00     0.000 A 
ATOM     24  C   UNL d   1      44.591  30.029  57.231  0.00  0.00     0.000 A 
ENDBRANCH  18  19
ENDBRANCH  17  18
ENDBRANCH   4  17
BRANCH   7  25
ATOM     25  C   UNL d   1      44.471  27.959  60.011  0.00  0.00     0.038 C 
BRANCH  25  26
ATOM     26  C   UNL d   1      44.392  27.676  60.779  0.00  0.00     0.003 C 
ATOM     27  C   UNL d   1      44.340  28.204  61.402  0.00  0.00     0.000 C 
ENDBRANCH  25  26
ENDBRANCH   7  25
BRANCH  15  28
ATOM     28  O   UNL d   1      44.639  22.630  57.973  0.00  0.00    -0.328 OA
ATOM     29  C   UNL d   1      45.069  22.166  57.446  0.00  0.00     0.181 C 
ENDBRANCH  15  28
TORSDOF 6
ENDMDL
MODEL 6
REMARK VINA RESULT:      -6.0      1.383      2.582
REMARK  6 active torsions:
REMARK  status: ('A' for Active; 'I' for Inactive)
REMARK    1  A    between atoms: C_11  and  N_4 
REMARK    2  A    between atoms: C_19  and  C_7 
REMARK    3  A    between atoms: C_17  and  C_11 
REMARK    4  A    between atoms: O_21  and  C_16 
REMARK    5  A    between atoms: C_20  and  C_17 
REMARK    6  A    between atoms: C_25  and  C_19 
ROOT
ATOM      1  C   UNL d   1      50.340  34.389  52.585  0.00  0.00     0.137 A 
ATOM      2  C   UNL d   1      50.347  34.943  53.199  0.00  0.00     0.192 A 
ATOM      3  C   UNL d   1      50.970  33.865  52.492  0.00  0.00     0.272 A 
ATOM      4  N   UNL d   1      51.608  33.895  53.011  0.00  0.00    -0.258 N 
ATOM      5  N   UNL d   1      50.980  34.974  53.718  0.00  0.00    -0.204 NA
ATOM      6  C   UNL d   1      49.700  34.360  52.064  0.00  0.00     0.205 A 
ATOM      7  C   UNL d   1      51.617  34.448  53.626  0.00  0.00     0.152 A 
ATOM      8  C   UNL d   1      49.077  34.876  52.156  0.00  0.00     0.062 A 
ATOM      9  O   UNL d   1      49.716  35.461  53.287  0.00  0.00    -0.289 OA
ATOM     10  C   UNL d   1      49.079  35.428  52.764  0.00  0.00     0.107 A 
ATOM     11  C   UNL d   1      48.442  35.955  52.857  0.00  0.00     0.049 A 
ATOM     12  C   UNL d   1      48.437  34.844  51.631  0.00  0.00     0.007 A 
ATOM     13  O   UNL d   1      50.961  33.315  51.879  0.00  0.00    -0.266 OA
ATOM     14  O   UNL d   1      49.697  33.808  51.455  0.00  0.00    -0.286 OA
ATOM     15  C   UNL d   1      47.809  35.920  52.334  0.00  0.00     0.096 A 
ATOM     16  C   UNL d   1      47.806  35.368  51.725  0.00  0.00     0.024 A 
ENDROOT
BRANCH   4  17
ATOM     17  C   UNL d   1      52.238  33.371  52.917  0.00  0.00     0.084 C 
BRANCH  17  18
ATOM     18  C   UNL d   1      52.103  32.547  52.907  0.00  0.00     0.019 C 
BRANCH  18  19
ATOM     19  C   UNL d   1      52.732  32.026  53.032  0.00  0.00     0.002 A 
ATOM     20  C   UNL d   1      52.575  31.215  53.128  0.00  0.00     0.000 A 
ATOM     21  C   UNL d   1      53.206  30.684  53.254  0.00  0.00     0.000 A 
ATOM     22  C   UNL d   1      53.986  30.965  53.284  0.00  0.00     0.000 A 
ATOM     23  C   UNL d   1      54.136  31.781  53.186  0.00  0.00     0.000 A 
ATOM     24  C   UNL d   1      53.507  32.303  53.061  0.00  0.00     0.000 A 
ENDBRANCH  18  19
ENDBRANCH  17  18
ENDBRANCH   4  17
BRANCH   7  25
ATOM     25  C   UNL d   1      52.254  34.480  54.149  0.00  0.00     0.038 C 
BRANCH  25  26
ATOM     26  C   UNL d   1      52.500  35.199  54.462  0.00  0.00     0.003 C 
ATOM     27  C   UNL d   1      53.139  35.223  54.973  0.00  0.00     0.000 C 
ENDBRANCH  25  26
ENDBRANCH   7  25
BRANCH  15  28
ATOM     28  O   UNL d   1      47.178  36.433  52.416  0.00  0.00    -0.328 OA
ATOM     29  C   UNL d   1      46.440  36.219  52.124  0.00  0.00     0.181 C 
ENDBRANCH  15  28
TORSDOF 6
ENDMDL
MODEL 7
REMARK VINA RESULT:      -5.8      1.098      2.849
REMARK  6 active torsions:
REMARK  status: ('A' for Active; 'I' for Inactive)
REMARK    1  A    between atoms: C_11  and  N_4 
REMARK    2  A    between atoms: C_19  and  C_7 
REMARK    3  A    between atoms: C_17  and  C_11 
REMARK    4  A    between atoms: O_21  and  C_16 
REMARK    5  A    between atoms: C_20  and  C_17 
REMARK    6  A    between atoms: C_25  and  C_19 
ROOT
ATOM      1  C   UNL d   1      51.624  33.323  53.142  0.00  0.00     0.137 A 
ATOM      2  C   UNL d   1      51.825  33.875  53.724  0.00  0.00     0.192 A 
ATOM      3  C   UNL d   1      52.103  32.666  53.009  0.00  0.00     0.272 A 
ATOM      4  N   UNL d   1      52.785  32.560  53.456  0.00  0.00    -0.258 N 
ATOM      5  N   UNL d   1      52.504  33.771  54.171  0.00  0.00    -0.204 NA
ATOM      6  C   UNL d   1      50.938  33.431  52.693  0.00  0.00     0.205 A 
ATOM      7  C   UNL d   1      52.990  33.110  54.039  0.00  0.00     0.152 A 
ATOM      8  C   UNL d   1      50.464  34.080  52.824  0.00  0.00     0.062 A 
ATOM      9  O   UNL d   1      51.344  34.527  53.852  0.00  0.00    -0.289 OA
ATOM     10  C   UNL d   1      50.661  34.631  53.401  0.00  0.00     0.107 A 
ATOM     11  C   UNL d   1      50.175  35.293  53.533  0.00  0.00     0.049 A 
ATOM     12  C   UNL d   1      49.778  34.184  52.372  0.00  0.00     0.007 A 
ATOM     13  O   UNL d   1      51.899  32.119  52.429  0.00  0.00    -0.266 OA
ATOM     14  O   UNL d   1      50.741  32.881  52.116  0.00  0.00    -0.286 OA
ATOM     15  C   UNL d   1      49.495  35.393  53.083  0.00  0.00     0.096 A 
ATOM     16  C   UNL d   1      49.298  34.842  52.506  0.00  0.00     0.024 A 
ENDROOT
BRANCH   4  17
ATOM     17  C   UNL d   1      53.265  31.902  53.322  0.00  0.00     0.084 C 
BRANCH  17  18
ATOM     18  C   UNL d   1      52.924  31.160  53.148  0.00  0.00     0.019 C 
BRANCH  18  19
ATOM     19  C   UNL d   1      53.275  30.468  53.433  0.00  0.00     0.002 A 
ATOM     20  C   UNL d   1      52.843  29.972  53.941  0.00  0.00     0.000 A 
ATOM     21  C   UNL d   1      53.193  29.273  54.231  0.00  0.00     0.000 A 
ATOM     22  C   UNL d   1      53.969  29.074  54.014  0.00  0.00     0.000 A 
ATOM     23  C   UNL d   1      54.396  29.578  53.503  0.00  0.00     0.000 A 
ATOM     24  C   UNL d   1      54.045  30.271  53.218  0.00  0.00     0.000 A 
ENDBRANCH  18  19
ENDBRANCH  17  18
ENDBRANCH   4  17
BRANCH   7  25
ATOM     25  C   UNL d   1      53.673  33.007  54.490  0.00  0.00     0.038 C 
BRANCH  25  26
ATOM     26  C   UNL d   1      53.979  33.629  54.932  0.00  0.00     0.003 C 
ATOM     27  C   UNL d   1      54.691  33.537  55.324  0.00  0.00     0.000 C 
ENDBRANCH  25  26
ENDBRANCH   7  25
BRANCH  15  28
ATOM     28  O   UNL d   1      49.012  36.040  53.205  0.00  0.00    -0.328 OA
ATOM     29  C   UNL d   1      48.227  35.924  53.424  0.00  0.00     0.181 C 
ENDBRANCH  15  28
TORSDOF 6
ENDMDL
MODEL 8
REMARK VINA RESULT:      -5.7     10.693     11.873
REMARK  6 active torsions:
REMARK  status: ('A' for Active; 'I' for Inactive)
REMARK    1  A    between atoms: C_11  and  N_4 
REMARK    2  A    between atoms: C_19  and  C_7 
REMARK    3  A    between atoms: C_17  and  C_11 
REMARK    4  A    between atoms: O_21  and  C_16 
REMARK    5  A    between atoms: C_20  and  C_17 
REMARK    6  A    between atoms: C_25  and  C_19 
ROOT
ATOM      1  C   UNL d   1      44.715  26.450  57.082  0.00  0.00     0.137 A 
ATOM      2  C   UNL d   1      44.748  26.274  57.890  0.00  0.00     0.192 A 
ATOM      3  C   UNL d   1      44.607  25.847  56.530  0.00  0.00     0.272 A 
ATOM      4  N   UNL d   1      44.531  25.068  56.785  0.00  0.00    -0.258 N 
ATOM      5  N   UNL d   1      44.672  25.500  58.145  0.00  0.00    -0.204 NA
ATOM      6  C   UNL d   1      44.792  27.232  56.828  0.00  0.00     0.205 A 
ATOM      7  C   UNL d   1      44.563  24.889  57.592  0.00  0.00     0.152 A 
ATOM      8  C   UNL d   1      44.899  27.828  57.372  0.00  0.00     0.062 A 
ATOM      9  O   UNL d   1      44.856  26.879  58.434  0.00  0.00    -0.289 OA
ATOM     10  C   UNL d   1      44.932  27.658  58.175  0.00  0.00     0.107 A 
ATOM     11  C   UNL d   1      45.041  28.269  58.730  0.00  0.00     0.049 A 
ATOM     12  C   UNL d   1      44.976  28.611  57.113  0.00  0.00     0.007 A 
ATOM     13  O   UNL d   1      44.575  26.025  55.727  0.00  0.00    -0.266 OA
ATOM     14  O   UNL d   1      44.760  27.402  56.025  0.00  0.00    -0.286 OA
ATOM     15  C   UNL d   1      45.117  29.044  58.470  0.00  0.00     0.096 A 
ATOM     16  C   UNL d   1      45.084  29.215  57.666  0.00  0.00     0.024 A 
ENDROOT
BRANCH   4  17
ATOM     17  C   UNL d   1      44.422  24.466  56.232  0.00  0.00     0.084 C 
BRANCH  17  18
ATOM     18  C   UNL d   1      44.993  24.331  55.638  0.00  0.00     0.019 C 
BRANCH  18  19
ATOM     19  C   UNL d   1      44.937  23.660  55.157  0.00  0.00     0.002 A 
ATOM     20  C   UNL d   1      44.381  23.649  54.540  0.00  0.00     0.000 A 
ATOM     21  C   UNL d   1      44.319  22.975  54.052  0.00  0.00     0.000 A 
ATOM     22  C   UNL d   1      44.812  22.320  54.183  0.00  0.00     0.000 A 
ATOM     23  C   UNL d   1      45.368  22.340  54.806  0.00  0.00     0.000 A 
ATOM     24  C   UNL d   1      45.425  23.010  55.287  0.00  0.00     0.000 A 
ENDBRANCH  18  19
ENDBRANCH  17  18
ENDBRANCH   4  17
BRANCH   7  25
ATOM     25  C   UNL d   1      44.486  24.110  57.850  0.00  0.00     0.038 C 
BRANCH  25  26
ATOM     26  C   UNL d   1      44.339  23.946  58.642  0.00  0.00     0.003 C 
ATOM     27  C   UNL d   1      44.314  23.169  58.898  0.00  0.00     0.000 C 
ENDBRANCH  25  26
ENDBRANCH   7  25
BRANCH  15  28
ATOM     28  O   UNL d   1      45.224  29.650  59.006  0.00  0.00    -0.328 OA
ATOM     29  C   UNL d   1      44.570  29.997  59.364  0.00  0.00     0.181 C 
ENDBRANCH  15  28
TORSDOF 6
ENDMDL
MODEL 9
REMARK VINA RESULT:      -5.3     11.034     11.496
REMARK  6 active torsions:
REMARK  status: ('A' for Active; 'I' for Inactive)
REMARK    1  A    between atoms: C_11  and  N_4 
REMARK    2  A    between atoms: C_19  and  C_7 
REMARK    3  A    between atoms: C_17  and  C_11 
REMARK    4  A    between atoms: O_21  and  C_16 
REMARK    5  A    between atoms: C_20  and  C_17 
REMARK    6  A    between atoms: C_25  and  C_19 
ROOT
ATOM      1  C   UNL d   1      44.778  29.256  59.758  0.00  0.00     0.137 A 
ATOM      2  C   UNL d   1      44.560  28.481  59.947  0.00  0.00     0.192 A 
ATOM      3  C   UNL d   1      44.870  29.819  60.353  0.00  0.00     0.272 A 
ATOM      4  N   UNL d   1      44.744  29.609  61.138  0.00  0.00    -0.258 N 
ATOM      5  N   UNL d   1      44.435  28.270  60.729  0.00  0.00    -0.204 NA
ATOM      6  C   UNL d   1      44.904  29.465  58.968  0.00  0.00     0.205 A 
ATOM      7  C   UNL d   1      44.527  28.835  61.332  0.00  0.00     0.152 A 
ATOM      8  C   UNL d   1      44.814  28.911  58.380  0.00  0.00     0.062 A 
ATOM      9  O   UNL d   1      44.471  27.925  59.351  0.00  0.00    -0.289 OA
ATOM     10  C   UNL d   1      44.597  28.139  58.565  0.00  0.00     0.107 A 
ATOM     11  C   UNL d   1      44.506  27.573  57.962  0.00  0.00     0.049 A 
ATOM     12  C   UNL d   1      44.941  29.125  57.590  0.00  0.00     0.007 A 
ATOM     13  O   UNL d   1      45.087  30.589  60.160  0.00  0.00    -0.266 OA
ATOM     14  O   UNL d   1      45.120  30.237  58.784  0.00  0.00    -0.286 OA
ATOM     15  C   UNL d   1      44.632  27.789  57.179  0.00  0.00     0.096 A 
ATOM     16  C   UNL d   1      44.849  28.560  56.995  0.00  0.00     0.024 A 
ENDROOT
BRANCH   4  17
ATOM     17  C   UNL d   1      44.836  30.173  61.733  0.00  0.00     0.084 C 
BRANCH  17  18
ATOM     18  C   UNL d   1      44.316  30.824  61.780  0.00  0.00     0.019 C 
BRANCH  18  19
ATOM     19  C   UNL d   1      44.317  31.304  62.454  0.00  0.00     0.002 A 
ATOM     20  C   UNL d   1      44.320  30.948  63.205  0.00  0.00     0.000 A 
ATOM     21  C   UNL d   1      44.321  31.427  63.888  0.00  0.00     0.000 A 
ATOM     22  C   UNL d   1      44.319  32.254  63.817  0.00  0.00     0.000 A 
ATOM     23  C   UNL d   1      44.316  32.603  63.059  0.00  0.00     0.000 A 
ATOM     24  C   UNL d   1      44.315  32.124  62.384  0.00  0.00     0.000 A 
ENDBRANCH  18  19
ENDBRANCH  17  18
ENDBRANCH   4  17
BRANCH   7  25
ATOM     25  C   UNL d   1      44.400  28.621  62.118  0.00  0.00     0.038 C 
BRANCH  25  26
ATOM     26  C   UNL d   1      44.438  27.832  62.346  0.00  0.00     0.003 C 
ATOM     27  C   UNL d   1      44.316  27.629  63.129  0.00  0.00     0.000 C 
ENDBRANCH  25  26
ENDBRANCH   7  25
BRANCH  15  28
ATOM     28  O   UNL d   1      44.545  27.241  56.581  0.00  0.00    -0.328 OA
ATOM     29  C   UNL d   1      45.086  26.625  56.512  0.00  0.00     0.181 C 
ENDBRANCH  15  28
TORSDOF 6
ENDMDL
