MODEL 1
REMARK VINA RESULT:      -4.1      0.000      0.000
REMARK  4 active torsions:
REMARK  status: ('A' for Active; 'I' for Inactive)
REMARK    1  A    between atoms: C_7  and  C_1 
REMARK       I    between atoms: C_6  and  N_8 
REMARK    2  A    between atoms: C_14  and  C_6 
REMARK    3  A    between atoms: N_8  and  C_15 
REMARK    4  A    between atoms: C_20  and  C_14 
ROOT
ATOM      1  C   UNL d   1      32.974  19.149 -22.832  0.00  0.00     0.024 A 
ATOM      2  C   UNL d   1      32.769  19.145 -23.623  0.00  0.00     0.004 A 
ATOM      3  C   UNL d   1      33.214  18.452 -22.445  0.00  0.00     0.004 A 
ATOM      4  C   UNL d   1      33.035  17.737 -23.680  0.00  0.00     0.085 A 
ATOM      5  C   UNL d   1      32.798  18.431 -24.059  0.00  0.00     0.019 A 
ATOM      6  C   UNL d   1      33.240  17.744 -22.886  0.00  0.00     0.019 A 
ENDROOT
BRANCH   1   7
ATOM      7  C   UNL d   1      32.941  19.854 -22.420  0.00  0.00     0.111 A 
ATOM      8  N   UNL d   1      32.595  19.944 -21.694  0.00  0.00    -0.239 NA
ATOM      9  C   UNL d   1      32.664  20.723 -21.447  0.00  0.00     0.088 A 
ATOM     10  C   UNL d   1      32.424  21.122 -20.777  0.00  0.00     0.020 A 
ATOM     11  C   UNL d   1      33.072  21.130 -22.052  0.00  0.00     0.049 A 
ATOM     12  C   UNL d   1      32.585  21.912 -20.707  0.00  0.00     0.002 A 
ATOM     13  C   UNL d   1      32.994  22.318 -21.312  0.00  0.00     0.001 A 
ATOM     14  C   UNL d   1      33.236  21.934 -21.979  0.00  0.00     0.008 A 
ATOM     15  C   UNL d   1      33.148  23.125 -21.220  0.00  0.00     0.000 C 
ATOM     16  S   UNL d   1      33.241  20.594 -22.648  0.00  0.00    -0.066 SA
ENDBRANCH   1   7
BRANCH   4  17
ATOM     17  N   UNL d   1      33.068  17.042 -24.089  0.00  0.00    -0.208 NA
ATOM     18  C   UNL d   1      32.452  16.590 -24.135  0.00  0.00     0.279 C 
ATOM     19  O   UNL d   1      32.480  15.839 -24.574  0.00  0.00    -0.265 OA
BRANCH  18  20
ATOM     20  C   UNL d   1      31.804  16.893 -23.738  0.00  0.00     0.062 C 
BRANCH  20  21
ATOM     21  C   UNL d   1      31.100  16.489 -23.748  0.00  0.00     0.005 A 
ATOM     22  C   UNL d   1      30.983  15.884 -23.209  0.00  0.00     0.000 A 
ATOM     23  C   UNL d   1      30.266  15.455 -23.203  0.00  0.00     0.000 A 
ATOM     24  C   UNL d   1      29.676  15.650 -23.748  0.00  0.00     0.000 A 
ATOM     25  C   UNL d   1      29.805  16.264 -24.289  0.00  0.00     0.000 A 
ATOM     26  C   UNL d   1      30.506  16.684 -24.297  0.00  0.00     0.000 A 
ENDBRANCH  20  21
ENDBRANCH  18  20
ENDBRANCH   4  17
TORSDOF 4
ENDMDL
MODEL 2
REMARK VINA RESULT:      -1.8      1.119      1.698
REMARK  4 active torsions:
REMARK  status: ('A' for Active; 'I' for Inactive)
REMARK    1  A    between atoms: C_7  and  C_1 
REMARK       I    between atoms: C_6  and  N_8 
REMARK    2  A    between atoms: C_14  and  C_6 
REMARK    3  A    between atoms: N_8  and  C_15 
REMARK    4  A    between atoms: C_20  and  C_14 
ROOT
ATOM      1  C   UNL d   1      32.910  20.233 -22.236  0.00  0.00     0.024 A 
ATOM      2  C   UNL d   1      33.105  20.339 -23.022  0.00  0.00     0.004 A 
ATOM      3  C   UNL d   1      32.821  19.470 -21.913  0.00  0.00     0.004 A 
ATOM      4  C   UNL d   1      33.132  18.917 -23.204  0.00  0.00     0.085 A 
ATOM      5  C   UNL d   1      33.219  19.674 -23.519  0.00  0.00     0.019 A 
ATOM      6  C   UNL d   1      32.937  18.812 -22.414  0.00  0.00     0.019 A 
ENDROOT
BRANCH   1   7
ATOM      7  C   UNL d   1      32.802  20.890 -21.764  0.00  0.00     0.111 A 
ATOM      8  N   UNL d   1      32.548  21.611 -22.032  0.00  0.00    -0.239 NA
ATOM      9  C   UNL d   1      32.503  22.140 -21.408  0.00  0.00     0.088 A 
ATOM     10  C   UNL d   1      32.286  22.926 -21.353  0.00  0.00     0.020 A 
ATOM     11  C   UNL d   1      32.742  21.724 -20.724  0.00  0.00     0.049 A 
ATOM     12  C   UNL d   1      32.305  23.292 -20.632  0.00  0.00     0.002 A 
ATOM     13  C   UNL d   1      32.544  22.876 -19.949  0.00  0.00     0.001 A 
ATOM     14  C   UNL d   1      32.761  22.100 -19.990  0.00  0.00     0.008 A 
ATOM     15  C   UNL d   1      32.556  23.270 -19.223  0.00  0.00     0.000 C 
ATOM     16  S   UNL d   1      32.925  20.958 -20.945  0.00  0.00    -0.066 SA
ENDBRANCH   1   7
BRANCH   4  17
ATOM     17  N   UNL d   1      33.239  18.268 -23.671  0.00  0.00    -0.208 NA
ATOM     18  C   UNL d   1      32.637  17.888 -23.952  0.00  0.00     0.279 C 
ATOM     19  O   UNL d   1      32.744  17.187 -24.457  0.00  0.00    -0.265 OA
BRANCH  18  20
ATOM     20  C   UNL d   1      31.921  18.212 -23.724  0.00  0.00     0.062 C 
BRANCH  20  21
ATOM     21  C   UNL d   1      31.240  17.998 -24.109  0.00  0.00     0.005 A 
ATOM     22  C   UNL d   1      30.865  18.548 -24.586  0.00  0.00     0.000 A 
ATOM     23  C   UNL d   1      30.163  18.347 -24.992  0.00  0.00     0.000 A 
ATOM     24  C   UNL d   1      29.852  17.586 -24.906  0.00  0.00     0.000 A 
ATOM     25  C   UNL d   1      30.240  17.037 -24.421  0.00  0.00     0.000 A 
ATOM     26  C   UNL d   1      30.927  17.232 -24.024  0.00  0.00     0.000 A 
ENDBRANCH  20  21
ENDBRANCH  18  20
ENDBRANCH   4  17
TORSDOF 4
ENDMDL
