MODEL 1
REMARK VINA RESULT:      11.7      0.000      0.000
REMARK  4 active torsions:
REMARK  status: ('A' for Active; 'I' for Inactive)
REMARK    1  A    between atoms: C_2  and  N_1 
REMARK       I    between atoms: C_3  and  N_1 
REMARK    2  A    between atoms: C_6  and  C_3 
REMARK    3  A    between atoms: O_7  and  C_6 
REMARK    4  A    between atoms: C_9  and  O_7 
ROOT
ATOM      1  C   UNL d   1      24.230  12.259  -2.815  0.00  0.00     0.158 C 
ATOM      2  C   UNL d   1      24.766  11.779  -2.430  0.00  0.00     0.032 C 
ENDROOT
BRANCH   1   3
ATOM      3  C   UNL d   1      24.423  12.592  -3.544  0.00  0.00     0.304 C 
ATOM      4  N   UNL d   1      24.276  12.183  -4.238  0.00  0.00    -0.181 NA
ATOM      5  O   UNL d   1      24.765  13.343  -3.573  0.00  0.00    -0.263 OA
BRANCH   4   6
ATOM      6  C   UNL d   1      24.468  12.516  -4.966  0.00  0.00     0.197 A 
ATOM      7  N   UNL d   1      24.581  13.324  -5.116  0.00  0.00    -0.219 NA
ATOM      8  C   UNL d   1      24.764  13.412  -5.913  0.00  0.00     0.108 A 
ATOM      9  C   UNL d   1      24.766  12.655  -6.263  0.00  0.00     0.059 A 
ATOM     10  S   UNL d   1      24.583  12.106  -5.676  0.00  0.00    -0.046 SA
ENDBRANCH   4   6
ENDBRANCH   1   3
BRANCH   1  11
ATOM     11  O   UNL d   1      23.495  12.408  -2.472  0.00  0.00    -0.302 OA
BRANCH  11  12
ATOM     12  C   UNL d   1      23.430  12.501  -1.656  0.00  0.00     0.100 A 
ATOM     13  C   UNL d   1      23.207  13.235  -1.337  0.00  0.00     0.025 A 
ATOM     14  C   UNL d   1      23.144  13.321  -0.516  0.00  0.00     0.002 A 
ATOM     15  C   UNL d   1      23.300  12.685  -0.014  0.00  0.00     0.000 A 
ATOM     16  C   UNL d   1      23.521  11.956  -0.327  0.00  0.00     0.002 A 
ATOM     17  C   UNL d   1      23.588  11.859  -1.149  0.00  0.00     0.025 A 
ENDBRANCH  11  12
ENDBRANCH   1  11
TORSDOF 4
ENDMDL
