MODEL 1
REMARK VINA RESULT:       8.5      0.000      0.000
REMARK  5 active torsions:
REMARK  status: ('A' for Active; 'I' for Inactive)
REMARK    1  A    between atoms: C_2  and  C_1 
REMARK    2  A    between atoms: C_6  and  C_2 
REMARK    3  A    between atoms: C_3  and  O_5 
REMARK    4  A    between atoms: C_11  and  C_3 
REMARK    5  A    between atoms: O_5  and  C_6 
ROOT
ATOM      1  O   UNL d   1      46.059 -16.540  44.299  0.00  0.00    -0.268 OA
ENDROOT
BRANCH   1   2
ATOM      2  C   UNL d   1      45.465 -16.061  44.624  0.00  0.00     0.300 C 
ATOM      3  O   UNL d   1      44.811 -16.412  44.955  0.00  0.00    -0.259 OA
BRANCH   2   4
ATOM      4  C   UNL d   1      45.534 -15.245  44.615  0.00  0.00     0.064 A 
ATOM      5  C   UNL d   1      44.916 -14.779  44.350  0.00  0.00     0.005 A 
ATOM      6  C   UNL d   1      44.988 -13.966  44.341  0.00  0.00     0.000 A 
ATOM      7  C   UNL d   1      45.676 -13.609  44.597  0.00  0.00     0.000 A 
ATOM      8  C   UNL d   1      46.302 -14.074  44.864  0.00  0.00     0.000 A 
ATOM      9  C   UNL d   1      46.235 -14.894  44.875  0.00  0.00     0.005 A 
ENDBRANCH   2   4
ENDBRANCH   1   2
BRANCH   1  10
ATOM     10  C   UNL d   1      45.977 -17.373  44.334  0.00  0.00     0.168 C 
BRANCH  10  11
ATOM     11  C   UNL d   1      46.323 -17.859  43.772  0.00  0.00     0.226 C 
ATOM     12  O   UNL d   1      46.569 -17.575  43.038  0.00  0.00    -0.284 OA
BRANCH  11  13
ATOM     13  C   UNL d   1      46.425 -18.692  43.977  0.00  0.00     0.070 A 
ATOM     14  S   UNL d   1      46.472 -19.349  43.427  0.00  0.00    -0.083 SA
ATOM     15  C   UNL d   1      46.574 -20.079  43.881  0.00  0.00     0.035 A 
ATOM     16  C   UNL d   1      46.590 -19.871  44.720  0.00  0.00     0.008 A 
ATOM     17  C   UNL d   1      46.498 -19.016  44.783  0.00  0.00     0.010 A 
ENDBRANCH  11  13
ENDBRANCH  10  11
ENDBRANCH   1  10
TORSDOF 5
ENDMDL
MODEL 2
REMARK VINA RESULT:       8.7      1.353      4.421
REMARK  5 active torsions:
REMARK  status: ('A' for Active; 'I' for Inactive)
REMARK    1  A    between atoms: C_2  and  C_1 
REMARK    2  A    between atoms: C_6  and  C_2 
REMARK    3  A    between atoms: C_3  and  O_5 
REMARK    4  A    between atoms: C_11  and  C_3 
REMARK    5  A    between atoms: O_5  and  C_6 
ROOT
ATOM      1  O   UNL d   1      45.863 -17.256  44.298  0.00  0.00    -0.268 OA
ENDROOT
BRANCH   1   2
ATOM      2  C   UNL d   1      46.267 -17.725  43.746  0.00  0.00     0.300 C 
ATOM      3  O   UNL d   1      46.559 -17.379  43.071  0.00  0.00    -0.259 OA
BRANCH   2   4
ATOM      4  C   UNL d   1      46.370 -18.527  43.875  0.00  0.00     0.064 A 
ATOM      5  C   UNL d   1      46.543 -18.808  44.623  0.00  0.00     0.005 A 
ATOM      6  C   UNL d   1      46.645 -19.608  44.750  0.00  0.00     0.000 A 
ATOM      7  C   UNL d   1      46.577 -20.136  44.130  0.00  0.00     0.000 A 
ATOM      8  C   UNL d   1      46.403 -19.859  43.374  0.00  0.00     0.000 A 
ATOM      9  C   UNL d   1      46.299 -19.053  43.242  0.00  0.00     0.005 A 
ENDBRANCH   2   4
ENDBRANCH   1   2
BRANCH   1  10
ATOM     10  C   UNL d   1      45.920 -16.421  44.244  0.00  0.00     0.168 C 
BRANCH  10  11
ATOM     11  C   UNL d   1      45.380 -15.933  44.618  0.00  0.00     0.226 C 
ATOM     12  O   UNL d   1      44.685 -16.224  44.955  0.00  0.00    -0.284 OA
BRANCH  11  13
ATOM     13  C   UNL d   1      45.563 -15.089  44.650  0.00  0.00     0.070 A 
ATOM     14  S   UNL d   1      45.020 -14.458  44.858  0.00  0.00    -0.083 SA
ATOM     15  C   UNL d   1      45.446 -13.706  44.815  0.00  0.00     0.035 A 
ATOM     16  C   UNL d   1      46.261 -13.873  44.579  0.00  0.00     0.008 A 
ATOM     17  C   UNL d   1      46.337 -14.727  44.476  0.00  0.00     0.010 A 
ENDBRANCH  11  13
ENDBRANCH  10  11
ENDBRANCH   1  10
TORSDOF 5
ENDMDL
MODEL 3
REMARK VINA RESULT:       9.2      0.806      1.242
REMARK  5 active torsions:
REMARK  status: ('A' for Active; 'I' for Inactive)
REMARK    1  A    between atoms: C_2  and  C_1 
REMARK    2  A    between atoms: C_6  and  C_2 
REMARK    3  A    between atoms: C_3  and  O_5 
REMARK    4  A    between atoms: C_11  and  C_3 
REMARK    5  A    between atoms: O_5  and  C_6 
ROOT
ATOM      1  O   UNL d   1      46.016 -16.439  44.396  0.00  0.00    -0.268 OA
ENDROOT
BRANCH   1   2
ATOM      2  C   UNL d   1      45.433 -15.914  44.666  0.00  0.00     0.300 C 
ATOM      3  O   UNL d   1      44.734 -16.213  44.955  0.00  0.00    -0.259 OA
BRANCH   2   4
ATOM      4  C   UNL d   1      45.556 -15.104  44.643  0.00  0.00     0.064 A 
ATOM      5  C   UNL d   1      46.259 -14.784  44.911  0.00  0.00     0.005 A 
ATOM      6  C   UNL d   1      46.379 -13.977  44.887  0.00  0.00     0.000 A 
ATOM      7  C   UNL d   1      45.799 -13.481  44.595  0.00  0.00     0.000 A 
ATOM      8  C   UNL d   1      45.089 -13.799  44.324  0.00  0.00     0.000 A 
ATOM      9  C   UNL d   1      44.963 -14.612  44.346  0.00  0.00     0.005 A 
ENDBRANCH   2   4
ENDBRANCH   1   2
BRANCH   1  10
ATOM     10  C   UNL d   1      45.787 -17.194  44.114  0.00  0.00     0.168 C 
BRANCH  10  11
ATOM     11  C   UNL d   1      46.258 -17.853  44.233  0.00  0.00     0.226 C 
ATOM     12  O   UNL d   1      46.627 -18.005  44.955  0.00  0.00    -0.284 OA
BRANCH  11  13
ATOM     13  C   UNL d   1      46.358 -18.395  43.567  0.00  0.00     0.070 A 
ATOM     14  S   UNL d   1      46.408 -19.250  43.610  0.00  0.00    -0.083 SA
ATOM     15  C   UNL d   1      46.507 -19.559  42.807  0.00  0.00     0.035 A 
ATOM     16  C   UNL d   1      46.517 -18.887  42.262  0.00  0.00     0.008 A 
ATOM     17  C   UNL d   1      46.425 -18.167  42.728  0.00  0.00     0.010 A 
ENDBRANCH  11  13
ENDBRANCH  10  11
ENDBRANCH   1  10
TORSDOF 5
ENDMDL
