MODEL 1
REMARK VINA RESULT:      52.2      0.000      0.000
REMARK  5 active torsions:
REMARK  status: ('A' for Active; 'I' for Inactive)
REMARK    1  A    between atoms: N_2  and  C_1 
REMARK    2  A    between atoms: C_9  and  C_5 
REMARK       I    between atoms: N_6  and  C_7 
REMARK    3  A    between atoms: C_11  and  N_6 
REMARK    4  A    between atoms: C_7  and  C_10 
REMARK    5  A    between atoms: C_10  and  C_9 
ROOT
ATOM      1  N   UNL d   1     -54.712-101.840 -41.185  0.00  0.00    -0.208 NA
ATOM      2  C   UNL d   1     -55.280-101.719 -40.634  0.00  0.00     0.279 C 
ATOM      3  O   UNL d   1     -56.055-101.573 -40.846  0.00  0.00    -0.265 OA
ENDROOT
BRANCH   2   4
ATOM      4  C   UNL d   1     -55.081-101.740 -39.831  0.00  0.00     0.063 C 
BRANCH   4   5
ATOM      5  C   UNL d   1     -55.654-101.914 -39.249  0.00  0.00     0.011 C 
BRANCH   5   6
ATOM      6  C   UNL d   1     -55.437-102.105 -38.493  0.00  0.00     0.031 A 
ATOM      7  S   UNL d   1     -55.457-101.681 -37.786  0.00  0.00    -0.064 SA
ATOM      8  C   UNL d   1     -55.167-102.165 -37.211  0.00  0.00     0.156 A 
ATOM      9  C   UNL d   1     -54.968-102.879 -37.541  0.00  0.00     0.031 A 
ATOM     10  C   UNL d   1     -55.129-102.853 -38.327  0.00  0.00     0.009 A 
BRANCH   8  11
ATOM     11  N   UNL d   1     -55.094-101.942 -36.407  0.00  0.00    -0.107 N 
ATOM     12  O   UNL d   1     -54.719-101.261 -36.181  0.00  0.00    -0.531 OA
ATOM     13  O   UNL d   1     -55.423-102.446 -35.830  0.00  0.00    -0.531 OA
ENDBRANCH   8  11
ENDBRANCH   5   6
ENDBRANCH   4   5
ENDBRANCH   2   4
BRANCH   1  14
ATOM     14  C   UNL d   1     -54.910-101.819 -41.984  0.00  0.00     0.085 A 
ATOM     15  C   UNL d   1     -54.966-101.091 -42.377  0.00  0.00     0.018 A 
ATOM     16  C   UNL d   1     -54.824-100.392 -41.967  0.00  0.00     0.002 C 
ATOM     17  C   UNL d   1     -55.163-101.070 -43.173  0.00  0.00     0.002 A 
ATOM     18  C   UNL d   1     -55.307-101.777 -43.589  0.00  0.00     0.000 A 
ATOM     19  C   UNL d   1     -55.249-102.500 -43.190  0.00  0.00     0.002 A 
ATOM     20  C   UNL d   1     -55.052-102.521 -42.394  0.00  0.00     0.019 A 
ENDBRANCH   1  14
TORSDOF 5
ENDMDL
MODEL 2
REMARK VINA RESULT:      54.6      2.230      5.233
REMARK  5 active torsions:
REMARK  status: ('A' for Active; 'I' for Inactive)
REMARK    1  A    between atoms: N_2  and  C_1 
REMARK    2  A    between atoms: C_9  and  C_5 
REMARK       I    between atoms: N_6  and  C_7 
REMARK    3  A    between atoms: C_11  and  N_6 
REMARK    4  A    between atoms: C_7  and  C_10 
REMARK    5  A    between atoms: C_10  and  C_9 
ROOT
ATOM      1  N   UNL d   1     -55.421-101.195 -39.813  0.00  0.00    -0.208 NA
ATOM      2  C   UNL d   1     -55.188-101.471 -40.528  0.00  0.00     0.279 C 
ATOM      3  O   UNL d   1     -54.841-102.207 -40.608  0.00  0.00    -0.265 OA
ENDROOT
BRANCH   2   4
ATOM      4  C   UNL d   1     -55.298-101.004 -41.202  0.00  0.00     0.063 C 
BRANCH   4   5
ATOM      5  C   UNL d   1     -54.719-100.971 -41.803  0.00  0.00     0.011 C 
BRANCH   5   6
ATOM      6  C   UNL d   1     -54.928-100.922 -42.583  0.00  0.00     0.031 A 
ATOM      7  S   UNL d   1     -54.985-101.489 -43.179  0.00  0.00    -0.064 SA
ATOM      8  C   UNL d   1     -55.223-101.107 -43.848  0.00  0.00     0.156 A 
ATOM      9  C   UNL d   1     -55.314-100.318 -43.684  0.00  0.00     0.031 A 
ATOM     10  C   UNL d   1     -55.136-100.194 -42.911  0.00  0.00     0.009 A 
BRANCH   8  11
ATOM     11  N   UNL d   1     -55.347-101.489 -44.582  0.00  0.00    -0.107 N 
ATOM     12  O   UNL d   1     -55.662-101.104 -45.221  0.00  0.00    -0.531 OA
ATOM     13  O   UNL d   1     -55.135-102.294 -44.646  0.00  0.00    -0.531 OA
ENDBRANCH   8  11
ENDBRANCH   5   6
ENDBRANCH   4   5
ENDBRANCH   2   4
BRANCH   1  14
ATOM     14  C   UNL d   1     -55.311-101.659 -39.143  0.00  0.00     0.085 A 
ATOM     15  C   UNL d   1     -55.675-102.403 -39.090  0.00  0.00     0.018 A 
ATOM     16  C   UNL d   1     -56.145-102.674 -39.708  0.00  0.00     0.002 C 
ATOM     17  C   UNL d   1     -55.566-102.865 -38.421  0.00  0.00     0.002 A 
ATOM     18  C   UNL d   1     -55.090-102.592 -37.795  0.00  0.00     0.000 A 
ATOM     19  C   UNL d   1     -54.730-101.848 -37.854  0.00  0.00     0.002 A 
ATOM     20  C   UNL d   1     -54.839-101.386 -38.523  0.00  0.00     0.019 A 
ENDBRANCH   1  14
TORSDOF 5
ENDMDL
