MODEL 1
REMARK VINA RESULT:      60.8      0.000      0.000
REMARK  3 active torsions:
REMARK  status: ('A' for Active; 'I' for Inactive)
REMARK    1  A    between atoms: C_12  and  C_4 
REMARK    2  A    between atoms: S_8  and  C_12 
REMARK    3  A    between atoms: C_11  and  S_8 
ROOT
ATOM      1  N   UNL d   1      57.269  49.468  51.087  0.00  0.00    -0.289 N 
ATOM      2  C   UNL d   1      58.049  49.448  51.414  0.00  0.00     0.148 A 
ATOM      3  N   UNL d   1      57.977  49.505  52.251  0.00  0.00    -0.226 NA
ATOM      4  C   UNL d   1      57.171  49.558  52.405  0.00  0.00     0.107 A 
ATOM      5  C   UNL d   1      56.749  49.537  51.736  0.00  0.00     0.101 A 
ATOM      6  C   UNL d   1      57.180  49.422  50.281  0.00  0.00     0.066 A 
ATOM      7  C   UNL d   1      58.708  49.382  50.922  0.00  0.00     0.037 A 
ATOM      8  C   UNL d   1      58.597  49.335  50.101  0.00  0.00     0.005 A 
ATOM      9  C   UNL d   1      57.849  49.355  49.788  0.00  0.00     0.018 A 
ATOM     10  C   UNL d   1      56.404  49.442  49.955  0.00  0.00     0.019 C 
ENDROOT
BRANCH   4  11
ATOM     11  C   UNL d   1      56.881  49.623  53.193  0.00  0.00     0.056 C 
BRANCH  11  12
ATOM     12  S   UNL d   1      57.366  49.341  53.795  0.00  0.00    -0.083 SA
BRANCH  12  13
ATOM     13  C   UNL d   1      57.105  49.392  54.599  0.00  0.00     0.049 A 
ATOM     14  C   UNL d   1      57.634  49.254  55.212  0.00  0.00     0.109 A 
ATOM     15  N   UNL d   1      58.457  49.057  55.035  0.00  0.00    -0.148 N 
ATOM     16  C   UNL d   1      57.380  49.303  55.994  0.00  0.00     0.021 A 
ATOM     17  C   UNL d   1      56.600  49.489  56.155  0.00  0.00     0.002 A 
ATOM     18  C   UNL d   1      56.091  49.622  55.579  0.00  0.00     0.001 A 
ATOM     19  C   UNL d   1      56.319  49.579  54.764  0.00  0.00     0.008 A 
ENDBRANCH  12  13
ENDBRANCH  11  12
ENDBRANCH   4  11
TORSDOF 3
ENDMDL
