MODEL 1
REMARK VINA RESULT:      64.3      0.000      0.000
REMARK  6 active torsions:
REMARK  status: ('A' for Active; 'I' for Inactive)
REMARK    1  A    between atoms: C_9  and  N_1 
REMARK    2  A    between atoms: C_3  and  C_2 
REMARK    3  A    between atoms: C_12  and  C_9 
REMARK    4  A    between atoms: C_15  and  C_9 
REMARK    5  A    between atoms: C_20  and  C_15 
REMARK    6  A    between atoms: C_17  and  C_20 
ROOT
ATOM      1  N   UNL d   1      60.049  48.576  50.866  0.00  0.00    -0.254 N 
ATOM      2  C   UNL d   1      58.932  49.181  50.754  0.00  0.00     0.093 A 
ATOM      3  C   UNL d   1      60.241  49.311  50.796  0.00  0.00     0.153 A 
ATOM      4  C   UNL d   1      59.252  48.454  50.844  0.00  0.00     0.272 A 
ATOM      5  S   UNL d   1      59.543  49.707  50.724  0.00  0.00    -0.053 SA
ATOM      6  S   UNL d   1      61.021  49.597  50.799  0.00  0.00    -0.052 SA
ATOM      7  O   UNL d   1      58.843  47.756  50.901  0.00  0.00    -0.266 OA
ENDROOT
BRANCH   2   8
ATOM      8  C   UNL d   1      58.127  49.352  50.701  0.00  0.00     0.070 A 
ATOM      9  C   UNL d   1      57.752  49.553  51.391  0.00  0.00     0.280 A 
ATOM     10  N   UNL d   1      56.946  49.707  51.233  0.00  0.00    -0.208 NA
ATOM     11  O   UNL d   1      58.107  49.602  52.137  0.00  0.00    -0.265 OA
ATOM     12  C   UNL d   1      56.832  49.594  50.426  0.00  0.00     0.085 A 
ATOM     13  C   UNL d   1      57.554  49.375  50.087  0.00  0.00     0.023 A 
ATOM     14  C   UNL d   1      56.154  49.663  49.942  0.00  0.00     0.019 A 
ATOM     15  C   UNL d   1      57.607  49.230  49.310  0.00  0.00     0.002 A 
ATOM     16  C   UNL d   1      56.968  49.292  48.836  0.00  0.00     0.000 A 
ATOM     17  C   UNL d   1      56.201  49.516  49.142  0.00  0.00     0.002 A 
ENDBRANCH   2   8
BRANCH   1  18
ATOM     18  C   UNL d   1      60.666  47.977  50.956  0.00  0.00     0.133 C 
BRANCH  18  19
ATOM     19  C   UNL d   1      61.054  47.947  51.695  0.00  0.00     0.228 C 
ATOM     20  O   UNL d   1      60.673  47.757  52.368  0.00  0.00    -0.643 OA
ATOM     21  O   UNL d   1      61.877  48.130  51.691  0.00  0.00    -0.643 OA
ENDBRANCH  18  19
BRANCH  18  22
ATOM     22  C   UNL d   1      60.851  47.478  50.354  0.00  0.00     0.030 C 
BRANCH  22  23
ATOM     23  C   UNL d   1      61.627  47.201  50.328  0.00  0.00     0.072 C 
BRANCH  23  24
ATOM     24  C   UNL d   1      61.775  46.593  49.742  0.00  0.00     0.211 C 
ATOM     25  O   UNL d   1      61.259  45.966  49.644  0.00  0.00    -0.644 OA
ATOM     26  O   UNL d   1      62.448  46.676  49.297  0.00  0.00    -0.644 OA
ENDBRANCH  23  24
ENDBRANCH  22  23
ENDBRANCH  18  22
ENDBRANCH   1  18
TORSDOF 6
ENDMDL
