MODEL 1
REMARK VINA RESULT:      96.5      0.000      0.000
REMARK  5 active torsions:
REMARK  status: ('A' for Active; 'I' for Inactive)
REMARK    1  A    between atoms: N_2  and  S_1 
REMARK    2  A    between atoms: C_14  and  S_1 
REMARK    3  A    between atoms: C_4  and  N_2 
REMARK    4  A    between atoms: S_6  and  C_3 
REMARK    5  A    between atoms: C_10  and  S_6 
ROOT
ATOM      1  C   UNL d   1     -51.191  26.459  35.527  0.00  0.00     0.070 A 
ATOM      2  C   UNL d   1     -51.195  26.361  34.105  0.00  0.00     0.095 A 
ATOM      3  C   UNL d   1     -50.510  26.922  35.493  0.00  0.00     0.202 A 
ATOM      4  C   UNL d   1     -51.535  26.178  34.832  0.00  0.00     0.030 A 
ATOM      5  C   UNL d   1     -50.171  27.105  34.765  0.00  0.00     0.041 A 
ATOM      6  C   UNL d   1     -50.513  26.824  34.072  0.00  0.00     0.022 A 
ATOM      7  O   UNL d   1     -50.156  27.210  36.199  0.00  0.00    -0.286 OA
ATOM      8  C   UNL d   1     -49.482  27.573  34.731  0.00  0.00     0.003 A 
ATOM      9  C   UNL d   1     -50.175  27.007  33.340  0.00  0.00     0.002 A 
ATOM     10  C   UNL d   1     -49.143  27.755  34.004  0.00  0.00     0.000 A 
ATOM     11  C   UNL d   1     -49.486  27.475  33.305  0.00  0.00     0.000 A 
ENDROOT
BRANCH   1  12
ATOM     12  S   UNL d   1     -51.531  26.276  36.254  0.00  0.00    -0.082 SA
BRANCH  12  13
ATOM     13  C   UNL d   1     -51.873  26.090  36.982  0.00  0.00     0.047 A 
ATOM     14  C   UNL d   1     -51.586  26.431  37.677  0.00  0.00     0.087 A 
ATOM     15  N   UNL d   1     -50.954  26.960  37.640  0.00  0.00    -0.244 NA
ATOM     16  C   UNL d   1     -51.930  26.244  38.400  0.00  0.00     0.018 A 
ATOM     17  C   UNL d   1     -50.667  27.301  38.335  0.00  0.00     0.099 A 
ATOM     18  C   UNL d   1     -51.014  27.112  39.061  0.00  0.00     0.021 A 
ATOM     19  C   UNL d   1     -51.640  26.589  39.101  0.00  0.00     0.003 A 
ATOM     20  C   UNL d   1     -52.558  25.719  38.438  0.00  0.00     0.002 A 
ATOM     21  C   UNL d   1     -52.853  25.372  37.750  0.00  0.00     0.001 A 
ATOM     22  C   UNL d   1     -52.510  25.557  37.017  0.00  0.00     0.008 A 
ENDBRANCH  12  13
ENDBRANCH   1  12
BRANCH   2  23
ATOM     23  N   UNL d   1     -51.548  26.073  33.399  0.00  0.00    -0.158 NA
BRANCH  23  24
ATOM     24  S   UNL d   1     -51.959  25.355  33.410  0.00  0.00     0.285 S 
ATOM     25  O   UNL d   1     -52.679  25.765  33.514  0.00  0.00    -0.198 OA
ATOM     26  O   UNL d   1     -51.249  24.946  33.307  0.00  0.00    -0.198 OA
BRANCH  24  27
ATOM     27  C   UNL d   1     -52.371  24.633  33.420  0.00  0.00     0.105 A 
ATOM     28  C   UNL d   1     -53.186  24.622  33.306  0.00  0.00     0.013 A 
ATOM     29  C   UNL d   1     -53.604  23.902  33.315  0.00  0.00     0.001 A 
ATOM     30  C   UNL d   1     -53.194  23.191  33.440  0.00  0.00     0.000 A 
ATOM     31  C   UNL d   1     -52.368  23.211  33.555  0.00  0.00     0.001 A 
ATOM     32  C   UNL d   1     -51.964  23.927  33.545  0.00  0.00     0.013 A 
ENDBRANCH  24  27
ENDBRANCH  23  24
ENDBRANCH   2  23
TORSDOF 5
ENDMDL
