MODEL 1
REMARK VINA RESULT:      68.2      0.000      0.000
REMARK  5 active torsions:
REMARK  status: ('A' for Active; 'I' for Inactive)
REMARK    1  A    between atoms: N_2  and  C_1 
REMARK    2  A    between atoms: N_3  and  C_1 
REMARK       I    between atoms: C_4  and  N_3 
REMARK    3  A    between atoms: C_11  and  C_4 
REMARK    4  A    between atoms: O_7  and  C_11 
REMARK    5  A    between atoms: C_8  and  O_7 
ROOT
ATOM      1  N   UNL d   1     -49.461  27.543  35.060  0.00  0.00    -0.178 NA
ATOM      2  C   UNL d   1     -49.016  28.175  35.365  0.00  0.00     0.304 C 
ATOM      3  O   UNL d   1     -48.897  28.243  36.175  0.00  0.00    -0.263 OA
ENDROOT
BRANCH   2   4
ATOM      4  C   UNL d   1     -48.691  28.739  34.854  0.00  0.00     0.158 C 
ATOM      5  C   UNL d   1     -49.132  29.015  34.219  0.00  0.00     0.032 C 
BRANCH   4   6
ATOM      6  O   UNL d   1     -47.928  29.022  34.982  0.00  0.00    -0.301 OA
BRANCH   6   7
ATOM      7  C   UNL d   1     -47.783  29.827  35.024  0.00  0.00     0.111 A 
ATOM      8  C   UNL d   1     -47.239  30.136  35.564  0.00  0.00     0.081 A 
ATOM      9  C   UNL d   1     -47.099  30.948  35.600  0.00  0.00     0.025 A 
ATOM     10 CL   UNL d   1     -46.833  29.629  36.072  0.00  0.00    -0.080 Cl
ATOM     11  C   UNL d   1     -47.500  31.455  35.097  0.00  0.00     0.059 A 
ATOM     12  C   UNL d   1     -48.049  31.150  34.551  0.00  0.00     0.013 A 
ATOM     13 CL   UNL d   1     -47.360  32.284  35.130  0.00  0.00    -0.082 Cl
ATOM     14  C   UNL d   1     -48.189  30.341  34.516  0.00  0.00     0.026 A 
ENDBRANCH   6   7
ENDBRANCH   4   6
ENDBRANCH   2   4
BRANCH   1  15
ATOM     15  C   UNL d   1     -49.580  27.475  34.249  0.00  0.00     0.209 C 
ATOM     16  S   UNL d   1     -49.495  28.141  33.762  0.00  0.00    -0.038 SA
BRANCH  15  17
ATOM     17  N   UNL d   1     -49.782  26.748  33.914  0.00  0.00    -0.282 N 
ATOM     18  C   UNL d   1     -50.534  26.445  33.825  0.00  0.00     0.066 A 
ATOM     19  C   UNL d   1     -50.476  25.707  33.464  0.00  0.00     0.018 A 
ATOM     20  C   UNL d   1     -51.276  26.753  34.031  0.00  0.00     0.018 A 
ATOM     21  C   UNL d   1     -51.158  25.270  33.306  0.00  0.00     0.002 A 
ATOM     22  C   UNL d   1     -49.688  25.553  33.330  0.00  0.00     0.021 A 
ATOM     23  C   UNL d   1     -51.907  25.572  33.508  0.00  0.00     0.000 A 
ATOM     24  C   UNL d   1     -51.965  26.310  33.869  0.00  0.00     0.002 A 
ATOM     25  C   UNL d   1     -49.249  26.194  33.606  0.00  0.00     0.082 A 
ENDBRANCH  15  17
ENDBRANCH   1  15
TORSDOF 5
ENDMDL
MODEL 2
REMARK VINA RESULT:      68.2      0.932      1.497
REMARK  5 active torsions:
REMARK  status: ('A' for Active; 'I' for Inactive)
REMARK    1  A    between atoms: N_2  and  C_1 
REMARK    2  A    between atoms: N_3  and  C_1 
REMARK       I    between atoms: C_4  and  N_3 
REMARK    3  A    between atoms: C_11  and  C_4 
REMARK    4  A    between atoms: O_7  and  C_11 
REMARK    5  A    between atoms: C_8  and  O_7 
ROOT
ATOM      1  N   UNL d   1     -49.851  27.023  34.945  0.00  0.00    -0.178 NA
ATOM      2  C   UNL d   1     -49.303  27.591  35.205  0.00  0.00     0.304 C 
ATOM      3  O   UNL d   1     -49.154  27.684  36.008  0.00  0.00    -0.263 OA
ENDROOT
BRANCH   2   4
ATOM      4  C   UNL d   1     -48.905  28.066  34.657  0.00  0.00     0.158 C 
ATOM      5  C   UNL d   1     -48.379  27.723  34.128  0.00  0.00     0.032 C 
BRANCH   4   6
ATOM      6  O   UNL d   1     -49.036  28.879  34.641  0.00  0.00    -0.301 OA
BRANCH   6   7
ATOM      7  C   UNL d   1     -48.463  29.399  34.911  0.00  0.00     0.111 A 
ATOM      8  C   UNL d   1     -48.485  30.201  34.711  0.00  0.00     0.081 A 
ATOM      9  C   UNL d   1     -47.905  30.718  34.987  0.00  0.00     0.025 A 
ATOM     10 CL   UNL d   1     -49.092  30.486  34.231  0.00  0.00    -0.080 Cl
ATOM     11  C   UNL d   1     -47.302  30.438  35.463  0.00  0.00     0.059 A 
ATOM     12  C   UNL d   1     -47.274  29.632  35.669  0.00  0.00     0.013 A 
ATOM     13 CL   UNL d   1     -46.708  30.963  35.747  0.00  0.00    -0.082 Cl
ATOM     14  C   UNL d   1     -47.851  29.117  35.394  0.00  0.00     0.026 A 
ENDBRANCH   6   7
ENDBRANCH   4   6
ENDBRANCH   2   4
BRANCH   1  15
ATOM     15  C   UNL d   1     -49.999  26.930  34.142  0.00  0.00     0.209 C 
ATOM     16  S   UNL d   1     -49.435  27.176  33.586  0.00  0.00    -0.038 SA
BRANCH  15  17
ATOM     17  N   UNL d   1     -50.707  26.594  33.882  0.00  0.00    -0.282 N 
ATOM     18  C   UNL d   1     -50.848  25.803  33.740  0.00  0.00     0.066 A 
ATOM     19  C   UNL d   1     -51.629  25.719  33.489  0.00  0.00     0.018 A 
ATOM     20  C   UNL d   1     -50.357  25.139  33.810  0.00  0.00     0.018 A 
ATOM     21  C   UNL d   1     -51.924  24.971  33.306  0.00  0.00     0.002 A 
ATOM     22  C   UNL d   1     -51.971  26.458  33.475  0.00  0.00     0.021 A 
ATOM     23  C   UNL d   1     -51.438  24.299  33.373  0.00  0.00     0.000 A 
ATOM     24  C   UNL d   1     -50.658  24.382  33.624  0.00  0.00     0.002 A 
ATOM     25  C   UNL d   1     -51.406  27.008  33.717  0.00  0.00     0.082 A 
ENDBRANCH  15  17
ENDBRANCH   1  15
TORSDOF 5
ENDMDL
