MODEL 1
REMARK VINA RESULT:      42.6      0.000      0.000
REMARK  4 active torsions:
REMARK  status: ('A' for Active; 'I' for Inactive)
REMARK    1  A    between atoms: C_9  and  N_1 
REMARK    2  A    between atoms: C_2  and  N_5 
REMARK    3  A    between atoms: N_5  and  O_12 
REMARK    4  A    between atoms: O_12  and  C_16 
ROOT
ATOM      1  N   UNL d   1     -50.709  25.825  33.401  0.00  0.00    -0.126 NA
ENDROOT
BRANCH   1   2
ATOM      2  C   UNL d   1     -51.206  25.167  33.380  0.00  0.00     0.108 A 
ATOM      3  C   UNL d   1     -52.034  25.278  33.377  0.00  0.00     0.023 A 
ATOM      4  C   UNL d   1     -52.519  24.637  33.357  0.00  0.00     0.044 A 
ATOM      5  C   UNL d   1     -52.373  26.082  33.395  0.00  0.00     0.002 C 
ATOM      6  C   UNL d   1     -52.191  23.863  33.339  0.00  0.00     0.196 A 
ATOM      7  C   UNL d   1     -51.383  23.780  33.342  0.00  0.00     0.044 A 
ATOM      8  O   UNL d   1     -52.688  23.205  33.318  0.00  0.00    -0.287 OA
ATOM      9  C   UNL d   1     -50.886  24.438  33.363  0.00  0.00     0.023 A 
ATOM     10  C   UNL d   1     -50.128  24.331  33.366  0.00  0.00     0.002 C 
ENDBRANCH   1   2
BRANCH   1  11
ATOM     11  O   UNL d   1     -50.852  26.443  33.907  0.00  0.00    -0.211 OA
BRANCH  11  12
ATOM     12  C   UNL d   1     -50.249  26.909  34.179  0.00  0.00     0.125 A 
ATOM     13  C   UNL d   1     -49.692  27.231  33.645  0.00  0.00     0.029 A 
ATOM     14  C   UNL d   1     -49.077  27.706  33.922  0.00  0.00     0.026 A 
ATOM     15  C   UNL d   1     -49.011  27.866  34.737  0.00  0.00     0.127 A 
ATOM     16  C   UNL d   1     -49.560  27.549  35.263  0.00  0.00     0.026 A 
ATOM     17  C   UNL d   1     -50.188  27.064  34.980  0.00  0.00     0.029 A 
BRANCH  15  18
ATOM     18  N   UNL d   1     -48.405  28.335  35.010  0.00  0.00    -0.114 N 
ATOM     19  O   UNL d   1     -47.856  28.731  34.542  0.00  0.00    -0.532 OA
ATOM     20  O   UNL d   1     -48.260  28.475  35.797  0.00  0.00    -0.532 OA
ENDBRANCH  15  18
ENDBRANCH  11  12
ENDBRANCH   1  11
TORSDOF 4
ENDMDL
MODEL 2
REMARK VINA RESULT:      44.3      0.469      1.208
REMARK  4 active torsions:
REMARK  status: ('A' for Active; 'I' for Inactive)
REMARK    1  A    between atoms: C_9  and  N_1 
REMARK    2  A    between atoms: C_2  and  N_5 
REMARK    3  A    between atoms: N_5  and  O_12 
REMARK    4  A    between atoms: O_12  and  C_16 
ROOT
ATOM      1  N   UNL d   1     -50.772  25.986  33.337  0.00  0.00    -0.126 NA
ENDROOT
BRANCH   1   2
ATOM      2  C   UNL d   1     -51.204  25.283  33.329  0.00  0.00     0.108 A 
ATOM      3  C   UNL d   1     -50.798  24.553  33.333  0.00  0.00     0.023 A 
ATOM      4  C   UNL d   1     -51.219  23.868  33.325  0.00  0.00     0.044 A 
ATOM      5  C   UNL d   1     -49.926  24.530  33.345  0.00  0.00     0.002 C 
ATOM      6  C   UNL d   1     -52.059  23.891  33.313  0.00  0.00     0.196 A 
ATOM      7  C   UNL d   1     -52.431  24.613  33.310  0.00  0.00     0.044 A 
ATOM      8  O   UNL d   1     -52.491  23.189  33.306  0.00  0.00    -0.287 OA
ATOM      9  C   UNL d   1     -51.999  25.316  33.318  0.00  0.00     0.023 A 
ATOM     10  C   UNL d   1     -52.374  25.983  33.314  0.00  0.00     0.002 C 
ENDBRANCH   1   2
BRANCH   1  11
ATOM     11  O   UNL d   1     -50.736  26.450  34.002  0.00  0.00    -0.211 OA
BRANCH  11  12
ATOM     12  C   UNL d   1     -50.135  26.980  34.111  0.00  0.00     0.125 A 
ATOM     13  C   UNL d   1     -49.912  27.497  33.493  0.00  0.00     0.029 A 
ATOM     14  C   UNL d   1     -49.299  28.037  33.604  0.00  0.00     0.026 A 
ATOM     15  C   UNL d   1     -48.900  28.068  34.335  0.00  0.00     0.127 A 
ATOM     16  C   UNL d   1     -49.120  27.559  34.944  0.00  0.00     0.026 A 
ATOM     17  C   UNL d   1     -49.745  27.007  34.831  0.00  0.00     0.029 A 
BRANCH  15  18
ATOM     18  N   UNL d   1     -48.295  28.602  34.445  0.00  0.00    -0.114 N 
ATOM     19  O   UNL d   1     -48.385  29.409  34.579  0.00  0.00    -0.532 OA
ATOM     20  O   UNL d   1     -47.508  28.402  34.435  0.00  0.00    -0.532 OA
ENDBRANCH  15  18
ENDBRANCH  11  12
ENDBRANCH   1  11
TORSDOF 4
ENDMDL
