MODEL 1
REMARK VINA RESULT:      55.1      0.000      0.000
REMARK  5 active torsions:
REMARK  status: ('A' for Active; 'I' for Inactive)
REMARK    1  A    between atoms: N_6  and  C_1 
REMARK    2  A    between atoms: C_11  and  C_5 
REMARK       I    between atoms: C_7  and  N_8 
REMARK    3  A    between atoms: C_10  and  C_7 
REMARK    4  A    between atoms: O_27  and  C_14 
REMARK    5  A    between atoms: O_28  and  C_21 
ROOT
ATOM      1  C   UNL d   1      45.513 -17.678  39.956  0.00  0.00     0.197 A 
ATOM      2  C   UNL d   1      44.679 -17.673  39.904  0.00  0.00     0.191 A 
ATOM      3  O   UNL d   1      45.812 -17.219  39.332  0.00  0.00    -0.270 OA
ATOM      4  N   UNL d   1      44.488 -17.214  39.254  0.00  0.00    -0.208 NA
ATOM      5  C   UNL d   1      45.152 -16.947  38.918  0.00  0.00     0.185 A 
ATOM      6  C   UNL d   1      44.136 -18.070  40.427  0.00  0.00     0.124 C 
ATOM      7  N   UNL d   1      43.590 -18.451  40.928  0.00  0.00    -0.190 NA
ENDROOT
BRANCH   1   8
ATOM      8  N   UNL d   1      45.752 -18.138  40.610  0.00  0.00    -0.280 N 
ATOM      9  C   UNL d   1      45.925 -18.955  40.483  0.00  0.00     0.101 A 
ATOM     10  C   UNL d   1      46.164 -19.415  41.137  0.00  0.00     0.102 A 
ATOM     11  N   UNL d   1      46.229 -19.067  41.903  0.00  0.00    -0.267 N 
ATOM     12  C   UNL d   1      46.468 -19.527  42.557  0.00  0.00     0.288 C 
ATOM     13  C   UNL d   1      46.055 -18.264  42.008  0.00  0.00     0.102 A 
ATOM     14  O   UNL d   1      46.642 -20.329  42.453  0.00  0.00    -0.264 OA
ATOM     15  C   UNL d   1      45.815 -17.810  41.345  0.00  0.00     0.101 A 
BRANCH  12  16
ATOM     16  C   UNL d   1      46.533 -19.181  43.320  0.00  0.00     0.156 A 
ATOM     17  O   UNL d   1      46.589 -18.395  43.574  0.00  0.00    -0.300 OA
ATOM     18  C   UNL d   1      46.638 -18.401  44.381  0.00  0.00     0.123 A 
ATOM     19  C   UNL d   1      46.616 -19.171  44.662  0.00  0.00     0.029 A 
ATOM     20  C   UNL d   1      46.550 -19.661  44.002  0.00  0.00     0.032 A 
ENDBRANCH  12  16
ENDBRANCH   1   8
BRANCH   5  21
ATOM     21  C   UNL d   1      44.959 -16.501  38.286  0.00  0.00     0.043 A 
ATOM     22  C   UNL d   1      45.510 -16.042  37.915  0.00  0.00     0.030 A 
ATOM     23  C   UNL d   1      45.318 -15.582  37.266  0.00  0.00     0.116 A 
ATOM     24  C   UNL d   1      44.551 -15.585  36.984  0.00  0.00     0.116 A 
ATOM     25  C   UNL d   1      44.000 -16.047  37.360  0.00  0.00     0.026 A 
ATOM     26  C   UNL d   1      44.191 -16.506  38.008  0.00  0.00     0.006 A 
BRANCH  23  27
ATOM     27  O   UNL d   1      45.921 -15.113  36.901  0.00  0.00    -0.326 OA
ATOM     28  C   UNL d   1      46.239 -14.460  37.277  0.00  0.00     0.181 C 
ENDBRANCH  23  27
BRANCH  24  29
ATOM     29  O   UNL d   1      44.339 -15.127  36.331  0.00  0.00    -0.326 OA
ATOM     30  C   UNL d   1      43.655 -14.682  36.341  0.00  0.00     0.181 C 
ENDBRANCH  24  29
ENDBRANCH   5  21
TORSDOF 5
ENDMDL
