MODEL 1
REMARK VINA RESULT:      -9.4      0.000      0.000
REMARK  5 active torsions:
REMARK  status: ('A' for Active; 'I' for Inactive)
REMARK    1  A    between atoms: O_8  and  C_2 
REMARK    2  A    between atoms: C_9  and  C_5 
REMARK    3  A    between atoms: C_14  and  O_8 
REMARK    4  A    between atoms: N_11  and  C_9 
REMARK    5  A    between atoms: O_20  and  C_17 
ROOT
ATOM      1  C   UNL d   1      53.001  33.504  53.590  0.00  0.00     0.108 A 
ATOM      2  C   UNL d   1      53.668  31.978  53.579  0.00  0.00     0.161 A 
ATOM      3  C   UNL d   1      53.429  33.226  54.257  0.00  0.00     0.064 A 
ATOM      4  C   UNL d   1      53.760  32.465  54.248  0.00  0.00     0.222 A 
ATOM      5  C   UNL d   1      52.674  34.252  53.595  0.00  0.00     0.079 A 
ATOM      6  O   UNL d   1      52.911  33.015  52.924  0.00  0.00    -0.305 OA
ATOM      7  C   UNL d   1      53.244  32.252  52.918  0.00  0.00     0.126 A 
ATOM      8  C   UNL d   1      53.510  33.721  54.910  0.00  0.00     0.009 A 
ATOM      9  C   UNL d   1      52.758  34.741  54.250  0.00  0.00     0.199 A 
ATOM     10  O   UNL d   1      54.181  32.193  54.906  0.00  0.00    -0.284 OA
ATOM     11  C   UNL d   1      53.178  34.472  54.908  0.00  0.00     0.042 A 
ATOM     12  O   UNL d   1      52.426  35.496  54.251  0.00  0.00    -0.286 OA
ATOM     13  C   UNL d   1      53.152  31.769  52.251  0.00  0.00     0.029 C 
ENDROOT
BRANCH   2  14
ATOM     14  O   UNL d   1      54.000  31.223  53.578  0.00  0.00    -0.302 OA
BRANCH  14  15
ATOM     15  C   UNL d   1      53.528  30.555  53.693  0.00  0.00     0.102 A 
ATOM     16  C   UNL d   1      53.593  30.123  54.386  0.00  0.00     0.049 A 
ATOM     17  C   UNL d   1      53.119  29.455  54.498  0.00  0.00     0.096 A 
ATOM     18  C   UNL d   1      52.580  29.222  53.913  0.00  0.00     0.024 A 
ATOM     19  C   UNL d   1      52.520  29.665  53.215  0.00  0.00     0.004 A 
ATOM     20  C   UNL d   1      52.993  30.329  53.107  0.00  0.00     0.025 A 
BRANCH  17  21
ATOM     21  O   UNL d   1      53.185  29.024  55.191  0.00  0.00    -0.328 OA
ATOM     22  C   UNL d   1      53.569  28.291  55.192  0.00  0.00     0.181 C 
ENDBRANCH  17  21
ENDBRANCH  14  15
ENDBRANCH   2  14
BRANCH   5  23
ATOM     23  C   UNL d   1      52.260  34.517  52.946  0.00  0.00     0.085 C 
BRANCH  23  24
ATOM     24  N   UNL d   1      51.454  34.466  52.832  0.00  0.00    -0.302 N 
ATOM     25  C   UNL d   1      51.074  34.399  52.116  0.00  0.00     0.080 A 
ATOM     26  C   UNL d   1      50.283  34.366  52.257  0.00  0.00     0.021 A 
ATOM     27  C   UNL d   1      50.165  34.411  53.044  0.00  0.00     0.021 A 
ATOM     28  C   UNL d   1      50.898  34.475  53.410  0.00  0.00     0.080 A 
ENDBRANCH  23  24
ENDBRANCH   5  23
TORSDOF 5
ENDMDL
MODEL 2
REMARK VINA RESULT:      -8.8      1.741      4.738
REMARK  5 active torsions:
REMARK  status: ('A' for Active; 'I' for Inactive)
REMARK    1  A    between atoms: O_8  and  C_2 
REMARK    2  A    between atoms: C_9  and  C_5 
REMARK    3  A    between atoms: C_14  and  O_8 
REMARK    4  A    between atoms: N_11  and  C_9 
REMARK    5  A    between atoms: O_20  and  C_17 
ROOT
ATOM      1  C   UNL d   1      52.785  32.969  53.391  0.00  0.00     0.108 A 
ATOM      2  C   UNL d   1      51.322  33.742  53.208  0.00  0.00     0.161 A 
ATOM      3  C   UNL d   1      52.085  32.522  53.270  0.00  0.00     0.064 A 
ATOM      4  C   UNL d   1      51.357  32.910  53.178  0.00  0.00     0.222 A 
ATOM      5  C   UNL d   1      53.503  32.590  53.482  0.00  0.00     0.079 A 
ATOM      6  O   UNL d   1      52.745  33.799  53.420  0.00  0.00    -0.305 OA
ATOM      7  C   UNL d   1      52.014  34.185  53.329  0.00  0.00     0.126 A 
ATOM      8  C   UNL d   1      52.138  31.701  53.243  0.00  0.00     0.009 A 
ATOM      9  C   UNL d   1      53.549  31.770  53.454  0.00  0.00     0.199 A 
ATOM     10  O   UNL d   1      50.668  32.469  53.058  0.00  0.00    -0.284 OA
ATOM     11  C   UNL d   1      52.863  31.326  53.334  0.00  0.00     0.042 A 
ATOM     12  O   UNL d   1      54.277  31.392  53.546  0.00  0.00    -0.286 OA
ATOM     13  C   UNL d   1      51.980  35.013  53.358  0.00  0.00     0.029 C 
ENDROOT
BRANCH   2  14
ATOM     14  O   UNL d   1      50.594  34.120  53.116  0.00  0.00    -0.302 OA
BRANCH  14  15
ATOM     15  C   UNL d   1      50.278  34.249  52.364  0.00  0.00     0.102 A 
ATOM     16  C   UNL d   1      49.466  34.292  52.265  0.00  0.00     0.049 A 
ATOM     17  C   UNL d   1      49.153  34.421  51.511  0.00  0.00     0.096 A 
ATOM     18  C   UNL d   1      49.657  34.507  50.858  0.00  0.00     0.024 A 
ATOM     19  C   UNL d   1      50.477  34.462  50.967  0.00  0.00     0.004 A 
ATOM     20  C   UNL d   1      50.784  34.334  51.719  0.00  0.00     0.025 A 
BRANCH  17  21
ATOM     21  O   UNL d   1      48.341  34.463  51.411  0.00  0.00    -0.328 OA
ATOM     22  C   UNL d   1      47.969  35.197  51.318  0.00  0.00     0.181 C 
ENDBRANCH  17  21
ENDBRANCH  14  15
ENDBRANCH   2  14
BRANCH   5  23
ATOM     23  C   UNL d   1      54.179  33.028  53.600  0.00  0.00     0.085 C 
BRANCH  23  24
ATOM     24  N   UNL d   1      54.513  33.218  54.319  0.00  0.00    -0.302 N 
ATOM     25  C   UNL d   1      55.151  33.709  54.436  0.00  0.00     0.080 A 
ATOM     26  C   UNL d   1      55.295  33.743  55.227  0.00  0.00     0.021 A 
ATOM     27  C   UNL d   1      54.761  33.285  55.601  0.00  0.00     0.021 A 
ATOM     28  C   UNL d   1      54.267  32.953  55.035  0.00  0.00     0.080 A 
ENDBRANCH  23  24
ENDBRANCH   5  23
TORSDOF 5
ENDMDL
MODEL 3
REMARK VINA RESULT:      -8.4      0.973      2.010
REMARK  5 active torsions:
REMARK  status: ('A' for Active; 'I' for Inactive)
REMARK    1  A    between atoms: O_8  and  C_2 
REMARK    2  A    between atoms: C_9  and  C_5 
REMARK    3  A    between atoms: C_14  and  O_8 
REMARK    4  A    between atoms: N_11  and  C_9 
REMARK    5  A    between atoms: O_20  and  C_17 
ROOT
ATOM      1  C   UNL d   1      52.549  33.373  53.647  0.00  0.00     0.108 A 
ATOM      2  C   UNL d   1      53.365  31.943  53.404  0.00  0.00     0.161 A 
ATOM      3  C   UNL d   1      52.391  32.909  52.966  0.00  0.00     0.064 A 
ATOM      4  C   UNL d   1      52.799  32.197  52.848  0.00  0.00     0.222 A 
ATOM      5  C   UNL d   1      52.148  34.075  53.767  0.00  0.00     0.079 A 
ATOM      6  O   UNL d   1      53.115  33.117  54.200  0.00  0.00    -0.305 OA
ATOM      7  C   UNL d   1      53.522  32.403  54.079  0.00  0.00     0.126 A 
ATOM      8  C   UNL d   1      51.828  33.175  52.427  0.00  0.00     0.009 A 
ATOM      9  C   UNL d   1      51.588  34.335  53.225  0.00  0.00     0.199 A 
ATOM     10  O   UNL d   1      52.643  31.740  52.177  0.00  0.00    -0.284 OA
ATOM     11  C   UNL d   1      51.429  33.881  52.553  0.00  0.00     0.042 A 
ATOM     12  O   UNL d   1      51.186  35.044  53.350  0.00  0.00    -0.286 OA
ATOM     13  C   UNL d   1      54.085  32.152  54.633  0.00  0.00     0.029 C 
ENDROOT
BRANCH   2  14
ATOM     14  O   UNL d   1      53.768  31.234  53.279  0.00  0.00    -0.302 OA
BRANCH  14  15
ATOM     15  C   UNL d   1      53.402  30.509  53.434  0.00  0.00     0.102 A 
ATOM     16  C   UNL d   1      53.466  30.171  54.177  0.00  0.00     0.049 A 
ATOM     17  C   UNL d   1      53.099  29.446  54.330  0.00  0.00     0.096 A 
ATOM     18  C   UNL d   1      52.668  29.062  53.734  0.00  0.00     0.024 A 
ATOM     19  C   UNL d   1      52.609  29.412  52.985  0.00  0.00     0.004 A 
ATOM     20  C   UNL d   1      52.976  30.133  52.838  0.00  0.00     0.025 A 
BRANCH  17  21
ATOM     21  O   UNL d   1      53.163  29.108  55.073  0.00  0.00    -0.328 OA
ATOM     22  C   UNL d   1      53.569  28.394  55.174  0.00  0.00     0.181 C 
ENDBRANCH  17  21
ENDBRANCH  14  15
ENDBRANCH   2  14
BRANCH   5  23
ATOM     23  C   UNL d   1      52.305  34.522  54.429  0.00  0.00     0.085 C 
BRANCH  23  24
ATOM     24  N   UNL d   1      52.752  35.203  54.459  0.00  0.00    -0.302 N 
ATOM     25  C   UNL d   1      52.723  35.772  55.040  0.00  0.00     0.080 A 
ATOM     26  C   UNL d   1      53.255  36.346  54.852  0.00  0.00     0.021 A 
ATOM     27  C   UNL d   1      53.611  36.145  54.168  0.00  0.00     0.021 A 
ATOM     28  C   UNL d   1      53.300  35.428  53.916  0.00  0.00     0.080 A 
ENDBRANCH  23  24
ENDBRANCH   5  23
TORSDOF 5
ENDMDL
MODEL 4
REMARK VINA RESULT:      -7.8      1.756      4.817
REMARK  5 active torsions:
REMARK  status: ('A' for Active; 'I' for Inactive)
REMARK    1  A    between atoms: O_8  and  C_2 
REMARK    2  A    between atoms: C_9  and  C_5 
REMARK    3  A    between atoms: C_14  and  O_8 
REMARK    4  A    between atoms: N_11  and  C_9 
REMARK    5  A    between atoms: O_20  and  C_17 
ROOT
ATOM      1  C   UNL d   1      53.235  31.242  53.371  0.00  0.00     0.108 A 
ATOM      2  C   UNL d   1      53.633  32.858  53.372  0.00  0.00     0.161 A 
ATOM      3  C   UNL d   1      52.675  31.813  53.118  0.00  0.00     0.064 A 
ATOM      4  C   UNL d   1      52.876  32.618  53.119  0.00  0.00     0.222 A 
ATOM      5  C   UNL d   1      53.041  30.448  53.371  0.00  0.00     0.079 A 
ATOM      6  O   UNL d   1      53.990  31.485  53.623  0.00  0.00    -0.305 OA
ATOM      7  C   UNL d   1      54.188  32.293  53.623  0.00  0.00     0.126 A 
ATOM      8  C   UNL d   1      51.932  31.558  52.871  0.00  0.00     0.009 A 
ATOM      9  C   UNL d   1      52.298  30.200  53.124  0.00  0.00     0.199 A 
ATOM     10  O   UNL d   1      52.324  33.180  52.870  0.00  0.00    -0.284 OA
ATOM     11  C   UNL d   1      51.743  30.759  52.874  0.00  0.00     0.042 A 
ATOM     12  O   UNL d   1      52.105  29.397  53.125  0.00  0.00    -0.286 OA
ATOM     13  C   UNL d   1      54.941  32.531  53.875  0.00  0.00     0.029 C 
ENDROOT
BRANCH   2  14
ATOM     14  O   UNL d   1      53.825  33.660  53.371  0.00  0.00    -0.302 OA
BRANCH  14  15
ATOM     15  C   UNL d   1      53.656  34.135  54.025  0.00  0.00     0.102 A 
ATOM     16  C   UNL d   1      53.259  34.845  53.922  0.00  0.00     0.049 A 
ATOM     17  C   UNL d   1      53.091  35.318  54.579  0.00  0.00     0.096 A 
ATOM     18  C   UNL d   1      53.322  35.077  55.338  0.00  0.00     0.024 A 
ATOM     19  C   UNL d   1      53.723  34.357  55.433  0.00  0.00     0.004 A 
ATOM     20  C   UNL d   1      53.888  33.890  54.777  0.00  0.00     0.025 A 
BRANCH  17  21
ATOM     21  O   UNL d   1      52.695  36.027  54.477  0.00  0.00    -0.328 OA
ATOM     22  C   UNL d   1      52.944  36.707  54.877  0.00  0.00     0.181 C 
ENDBRANCH  17  21
ENDBRANCH  14  15
ENDBRANCH   2  14
BRANCH   5  23
ATOM     23  C   UNL d   1      53.587  29.898  53.617  0.00  0.00     0.085 C 
BRANCH  23  24
ATOM     24  N   UNL d   1      53.522  29.407  54.266  0.00  0.00    -0.302 N 
ATOM     25  C   UNL d   1      53.677  28.608  54.281  0.00  0.00     0.080 A 
ATOM     26  C   UNL d   1      53.542  28.344  55.028  0.00  0.00     0.021 A 
ATOM     27  C   UNL d   1      53.307  28.961  55.475  0.00  0.00     0.021 A 
ATOM     28  C   UNL d   1      53.293  29.631  55.001  0.00  0.00     0.080 A 
ENDBRANCH  23  24
ENDBRANCH   5  23
TORSDOF 5
ENDMDL
MODEL 5
REMARK VINA RESULT:      -7.6      1.570      4.638
REMARK  5 active torsions:
REMARK  status: ('A' for Active; 'I' for Inactive)
REMARK    1  A    between atoms: O_8  and  C_2 
REMARK    2  A    between atoms: C_9  and  C_5 
REMARK    3  A    between atoms: C_14  and  O_8 
REMARK    4  A    between atoms: N_11  and  C_9 
REMARK    5  A    between atoms: O_20  and  C_17 
ROOT
ATOM      1  C   UNL d   1      52.813  32.900  53.627  0.00  0.00     0.108 A 
ATOM      2  C   UNL d   1      51.632  34.026  53.299  0.00  0.00     0.161 A 
ATOM      3  C   UNL d   1      53.024  33.656  53.331  0.00  0.00     0.064 A 
ATOM      4  C   UNL d   1      52.433  34.216  53.168  0.00  0.00     0.222 A 
ATOM      5  C   UNL d   1      53.392  32.346  53.788  0.00  0.00     0.079 A 
ATOM      6  O   UNL d   1      52.012  32.714  53.756  0.00  0.00    -0.305 OA
ATOM      7  C   UNL d   1      51.423  33.278  53.592  0.00  0.00     0.126 A 
ATOM      8  C   UNL d   1      53.820  33.826  53.208  0.00  0.00     0.009 A 
ATOM      9  C   UNL d   1      54.184  32.522  53.663  0.00  0.00     0.199 A 
ATOM     10  O   UNL d   1      52.641  34.961  52.877  0.00  0.00    -0.284 OA
ATOM     11  C   UNL d   1      54.397  33.266  53.372  0.00  0.00     0.042 A 
ATOM     12  O   UNL d   1      54.766  31.960  53.827  0.00  0.00    -0.286 OA
ATOM     13  C   UNL d   1      50.626  33.088  53.722  0.00  0.00     0.029 C 
ENDROOT
BRANCH   2  14
ATOM     14  O   UNL d   1      51.050  34.588  53.135  0.00  0.00    -0.302 OA
BRANCH  14  15
ATOM     15  C   UNL d   1      50.587  34.528  52.454  0.00  0.00     0.102 A 
ATOM     16  C   UNL d   1      49.782  34.671  52.495  0.00  0.00     0.049 A 
ATOM     17  C   UNL d   1      49.320  34.610  51.812  0.00  0.00     0.096 A 
ATOM     18  C   UNL d   1      49.670  34.406  51.088  0.00  0.00     0.024 A 
ATOM     19  C   UNL d   1      50.485  34.263  51.056  0.00  0.00     0.004 A 
ATOM     20  C   UNL d   1      50.940  34.324  51.738  0.00  0.00     0.025 A 
BRANCH  17  21
ATOM     21  O   UNL d   1      48.514  34.753  51.853  0.00  0.00    -0.328 OA
ATOM     22  C   UNL d   1      48.118  35.098  51.213  0.00  0.00     0.181 C 
ENDBRANCH  17  21
ENDBRANCH  14  15
ENDBRANCH   2  14
BRANCH   5  23
ATOM     23  C   UNL d   1      53.183  31.614  54.075  0.00  0.00     0.085 C 
BRANCH  23  24
ATOM     24  N   UNL d   1      53.179  30.914  53.657  0.00  0.00    -0.302 N 
ATOM     25  C   UNL d   1      53.371  30.179  53.951  0.00  0.00     0.080 A 
ATOM     26  C   UNL d   1      53.294  29.646  53.354  0.00  0.00     0.021 A 
ATOM     27  C   UNL d   1      53.059  30.033  52.698  0.00  0.00     0.021 A 
ATOM     28  C   UNL d   1      52.986  30.830  52.883  0.00  0.00     0.080 A 
ENDBRANCH  23  24
ENDBRANCH   5  23
TORSDOF 5
ENDMDL
MODEL 6
REMARK VINA RESULT:      -7.0      1.927      3.778
REMARK  5 active torsions:
REMARK  status: ('A' for Active; 'I' for Inactive)
REMARK    1  A    between atoms: O_8  and  C_2 
REMARK    2  A    between atoms: C_9  and  C_5 
REMARK    3  A    between atoms: C_14  and  O_8 
REMARK    4  A    between atoms: N_11  and  C_9 
REMARK    5  A    between atoms: O_20  and  C_17 
ROOT
ATOM      1  C   UNL d   1      49.998  34.575  52.417  0.00  0.00     0.108 A 
ATOM      2  C   UNL d   1      51.627  34.351  52.675  0.00  0.00     0.161 A 
ATOM      3  C   UNL d   1      50.503  34.382  51.775  0.00  0.00     0.064 A 
ATOM      4  C   UNL d   1      51.315  34.271  51.907  0.00  0.00     0.222 A 
ATOM      5  C   UNL d   1      49.199  34.686  52.291  0.00  0.00     0.079 A 
ATOM      6  O   UNL d   1      50.314  34.654  53.182  0.00  0.00    -0.305 OA
ATOM      7  C   UNL d   1      51.128  34.542  53.311  0.00  0.00     0.126 A 
ATOM      8  C   UNL d   1      50.178  34.307  51.023  0.00  0.00     0.009 A 
ATOM      9  C   UNL d   1      48.880  34.609  51.538  0.00  0.00     0.199 A 
ATOM     10  O   UNL d   1      51.812  34.081  51.274  0.00  0.00    -0.284 OA
ATOM     11  C   UNL d   1      49.373  34.419  50.903  0.00  0.00     0.042 A 
ATOM     12  O   UNL d   1      48.072  34.722  51.415  0.00  0.00    -0.286 OA
ATOM     13  C   UNL d   1      51.438  34.621  54.076  0.00  0.00     0.029 C 
ENDROOT
BRANCH   2  14
ATOM     14  O   UNL d   1      52.436  34.238  52.798  0.00  0.00    -0.302 OA
BRANCH  14  15
ATOM     15  C   UNL d   1      52.720  33.526  53.103  0.00  0.00     0.102 A 
ATOM     16  C   UNL d   1      52.593  32.827  52.695  0.00  0.00     0.049 A 
ATOM     17  C   UNL d   1      52.879  32.115  53.003  0.00  0.00     0.096 A 
ATOM     18  C   UNL d   1      53.293  32.107  53.721  0.00  0.00     0.024 A 
ATOM     19  C   UNL d   1      53.417  32.819  54.128  0.00  0.00     0.004 A 
ATOM     20  C   UNL d   1      53.131  33.524  53.818  0.00  0.00     0.025 A 
BRANCH  17  21
ATOM     21  O   UNL d   1      52.752  31.417  52.594  0.00  0.00    -0.328 OA
ATOM     22  C   UNL d   1      52.933  30.689  52.944  0.00  0.00     0.181 C 
ENDBRANCH  17  21
ENDBRANCH  14  15
ENDBRANCH   2  14
BRANCH   5  23
ATOM     23  C   UNL d   1      48.713  34.873  52.916  0.00  0.00     0.085 C 
BRANCH  23  24
ATOM     24  N   UNL d   1      48.371  35.598  53.063  0.00  0.00    -0.302 N 
ATOM     25  C   UNL d   1      48.425  36.022  53.756  0.00  0.00     0.080 A 
ATOM     26  C   UNL d   1      48.007  36.703  53.662  0.00  0.00     0.021 A 
ATOM     27  C   UNL d   1      47.696  36.709  52.928  0.00  0.00     0.021 A 
ATOM     28  C   UNL d   1      47.921  36.018  52.548  0.00  0.00     0.080 A 
ENDBRANCH  23  24
ENDBRANCH   5  23
TORSDOF 5
ENDMDL
