MODEL 1
REMARK VINA RESULT:      -1.3      0.000      0.000
REMARK  4 active torsions:
REMARK  status: ('A' for Active; 'I' for Inactive)
REMARK    1  A    between atoms: N_15  and  C_6 
REMARK    2  A    between atoms: N_14  and  C_19 
REMARK    3  A    between atoms: C_18  and  N_15 
REMARK    4  A    between atoms: C_19  and  C_18 
ROOT
ATOM      1  N   UNL d   1     -41.282-122.720 -51.898  0.00  0.00    -0.183 N 
ATOM      2  C   UNL d   1     -41.334-122.210 -52.545  0.00  0.00     0.169 A 
ATOM      3  C   UNL d   1     -41.437-122.502 -53.296  0.00  0.00     0.073 A 
ATOM      4  C   UNL d   1     -41.489-123.307 -53.399  0.00  0.00     0.185 A 
ATOM      5  N   UNL d   1     -41.437-123.817 -52.752  0.00  0.00    -0.142 NA
ATOM      6  C   UNL d   1     -41.179-122.410 -51.155  0.00  0.00     0.218 A 
ATOM      7  N   UNL d   1     -41.281-121.403 -52.430  0.00  0.00    -0.226 NA
ATOM      8  C   UNL d   1     -41.489-121.997 -53.936  0.00  0.00     0.007 A 
ATOM      9  N   UNL d   1     -41.593-123.619 -54.154  0.00  0.00    -0.225 NA
ATOM     10  C   UNL d   1     -41.126-121.612 -51.036  0.00  0.00     0.071 A 
ATOM     11  C   UNL d   1     -41.592-122.289 -54.688  0.00  0.00     0.019 A 
ATOM     12  C   UNL d   1     -41.178-121.102 -51.682  0.00  0.00     0.087 A 
ATOM     13  C   UNL d   1     -41.645-123.108 -54.801  0.00  0.00     0.083 A 
ATOM     14  C   UNL d   1     -41.435-121.187 -53.819  0.00  0.00     0.000 C 
ATOM     15  C   UNL d   1     -41.123-120.264 -51.560  0.00  0.00     0.021 C 
ATOM     16  C   UNL d   1     -41.748-123.406 -55.546  0.00  0.00     0.021 C 
ENDROOT
BRANCH   6  17
ATOM     17  N   UNL d   1     -41.127-122.944 -50.493  0.00  0.00    -0.379 NA
BRANCH  17  18
ATOM     18  C   UNL d   1     -41.166-123.305 -49.740  0.00  0.00     0.182 C 
BRANCH  18  19
ATOM     19  C   UNL d   1     -41.875-123.224 -49.291  0.00  0.00     0.116 C 
BRANCH  19  20
ATOM     20  N   UNL d   1     -41.862-123.422 -48.461  0.00  0.00    -0.297 N 
ATOM     21  C   UNL d   1     -41.135-123.473 -48.061  0.00  0.00     0.107 A 
ATOM     22  C   UNL d   1     -41.122-123.672 -47.227  0.00  0.00     0.142 A 
ATOM     23  O   UNL d   1     -41.840-123.814 -46.813  0.00  0.00    -0.300 OA
ATOM     24  C   UNL d   1     -42.581-123.760 -47.225  0.00  0.00     0.142 A 
ATOM     25  C   UNL d   1     -42.596-123.564 -48.052  0.00  0.00     0.107 A 
ENDBRANCH  19  20
ENDBRANCH  18  19
ENDBRANCH  17  18
ENDBRANCH   6  17
TORSDOF 4
ENDMDL
MODEL 2
REMARK VINA RESULT:      -1.3      2.113      5.409
REMARK  4 active torsions:
REMARK  status: ('A' for Active; 'I' for Inactive)
REMARK    1  A    between atoms: N_15  and  C_6 
REMARK    2  A    between atoms: N_14  and  C_19 
REMARK    3  A    between atoms: C_18  and  N_15 
REMARK    4  A    between atoms: C_19  and  C_18 
ROOT
ATOM      1  N   UNL d   1     -42.051-122.974 -50.309  0.00  0.00    -0.183 N 
ATOM      2  C   UNL d   1     -42.482-122.787 -49.630  0.00  0.00     0.169 A 
ATOM      3  C   UNL d   1     -42.235-123.041 -48.899  0.00  0.00     0.073 A 
ATOM      4  C   UNL d   1     -41.553-123.483 -48.849  0.00  0.00     0.185 A 
ATOM      5  N   UNL d   1     -41.123-123.670 -49.527  0.00  0.00    -0.142 NA
ATOM      6  C   UNL d   1     -42.314-122.711 -51.031  0.00  0.00     0.218 A 
ATOM      7  N   UNL d   1     -43.164-122.342 -49.693  0.00  0.00    -0.226 NA
ATOM      8  C   UNL d   1     -42.661-122.856 -48.228  0.00  0.00     0.007 A 
ATOM      9  N   UNL d   1     -41.290-123.748 -48.114  0.00  0.00    -0.225 NA
ATOM     10  C   UNL d   1     -42.988-122.271 -51.098  0.00  0.00     0.071 A 
ATOM     11  C   UNL d   1     -42.413-123.110 -47.496  0.00  0.00     0.019 A 
ATOM     12  C   UNL d   1     -43.419-122.084 -50.420  0.00  0.00     0.087 A 
ATOM     13  C   UNL d   1     -41.721-123.561 -47.436  0.00  0.00     0.083 A 
ATOM     14  C   UNL d   1     -43.346-122.410 -48.292  0.00  0.00     0.000 C 
ATOM     15  C   UNL d   1     -44.128-121.622 -50.488  0.00  0.00     0.021 C 
ATOM     16  C   UNL d   1     -41.469-123.817 -46.711  0.00  0.00     0.021 C 
ENDROOT
BRANCH   6  17
ATOM     17  N   UNL d   1     -41.863-122.909 -51.726  0.00  0.00    -0.379 NA
BRANCH  17  18
ATOM     18  C   UNL d   1     -41.610-123.170 -52.480  0.00  0.00     0.182 C 
BRANCH  18  19
ATOM     19  C   UNL d   1     -41.226-122.618 -52.989  0.00  0.00     0.116 C 
BRANCH  19  20
ATOM     20  N   UNL d   1     -41.371-122.662 -53.829  0.00  0.00    -0.297 N 
ATOM     21  C   UNL d   1     -41.152-123.346 -54.249  0.00  0.00     0.107 A 
ATOM     22  C   UNL d   1     -41.298-123.390 -55.093  0.00  0.00     0.142 A 
ATOM     23  O   UNL d   1     -41.661-122.747 -55.496  0.00  0.00    -0.300 OA
ATOM     24  C   UNL d   1     -41.883-122.051 -55.063  0.00  0.00     0.142 A 
ATOM     25  C   UNL d   1     -41.739-122.005 -54.226  0.00  0.00     0.107 A 
ENDBRANCH  19  20
ENDBRANCH  18  19
ENDBRANCH  17  18
ENDBRANCH   6  17
TORSDOF 4
ENDMDL
