MODEL 1
REMARK VINA RESULT:      -9.7      0.000      0.000
REMARK  4 active torsions:
REMARK  status: ('A' for Active; 'I' for Inactive)
REMARK    1  A    between atoms: C_2  and  S_1 
REMARK    2  A    between atoms: N_3  and  S_1 
REMARK    3  A    between atoms: C_12  and  N_3 
REMARK    4  A    between atoms: N_4  and  C_8 
ROOT
ATOM      1  S   UNL d   1      52.628  33.429  53.356  0.00  0.00     0.285 S 
ATOM      2  O   UNL d   1      53.126  33.502  52.663  0.00  0.00    -0.198 OA
ATOM      3  O   UNL d   1      52.154  33.363  54.013  0.00  0.00    -0.198 OA
ENDROOT
BRANCH   1   4
ATOM      4  C   UNL d   1      52.934  32.695  53.466  0.00  0.00     0.105 A 
ATOM      5  C   UNL d   1      52.576  32.015  53.171  0.00  0.00     0.013 A 
ATOM      6  C   UNL d   1      52.899  31.260  53.289  0.00  0.00     0.001 A 
ATOM      7  C   UNL d   1      52.522  30.598  52.983  0.00  0.00     0.000 A 
ATOM      8  C   UNL d   1      53.597  31.186  53.712  0.00  0.00     0.000 A 
ATOM      9  C   UNL d   1      52.844  29.846  53.101  0.00  0.00     0.000 A 
ATOM     10  C   UNL d   1      53.569  29.770  53.541  0.00  0.00     0.000 A 
ATOM     11  C   UNL d   1      53.928  30.443  53.836  0.00  0.00     0.000 A 
ATOM     12  C   UNL d   1      53.972  31.867  54.018  0.00  0.00     0.001 A 
ATOM     13  C   UNL d   1      53.666  32.621  53.911  0.00  0.00     0.013 A 
ENDBRANCH   1   4
BRANCH   1  14
ATOM     14  N   UNL d   1      52.323  34.206  53.215  0.00  0.00    -0.158 NA
BRANCH  14  15
ATOM     15  C   UNL d   1      51.606  34.312  52.855  0.00  0.00     0.094 A 
ATOM     16  C   UNL d   1      51.521  34.317  52.040  0.00  0.00     0.021 A 
ATOM     17  C   UNL d   1      50.799  34.424  51.655  0.00  0.00     0.019 A 
ATOM     18  C   UNL d   1      50.108  34.535  52.135  0.00  0.00     0.064 A 
ATOM     19  C   UNL d   1      50.178  34.532  52.952  0.00  0.00     0.019 A 
ATOM     20  C   UNL d   1      50.916  34.422  53.341  0.00  0.00     0.021 A 
BRANCH  18  21
ATOM     21  N   UNL d   1      49.374  34.643  51.765  0.00  0.00    -0.300 N 
ATOM     22  C   UNL d   1      49.191  34.316  51.024  0.00  0.00     0.107 A 
ATOM     23  C   UNL d   1      48.466  34.431  50.672  0.00  0.00     0.142 A 
ATOM     24  O   UNL d   1      47.890  34.879  51.048  0.00  0.00    -0.300 OA
ATOM     25  C   UNL d   1      48.042  35.217  51.786  0.00  0.00     0.142 A 
ATOM     26  C   UNL d   1      48.787  35.103  52.153  0.00  0.00     0.107 A 
ENDBRANCH  18  21
ENDBRANCH  14  15
ENDBRANCH   1  14
TORSDOF 4
ENDMDL
MODEL 2
REMARK VINA RESULT:      -8.7      1.671      2.472
REMARK  4 active torsions:
REMARK  status: ('A' for Active; 'I' for Inactive)
REMARK    1  A    between atoms: C_2  and  S_1 
REMARK    2  A    between atoms: N_3  and  S_1 
REMARK    3  A    between atoms: C_12  and  N_3 
REMARK    4  A    between atoms: N_4  and  C_8 
ROOT
ATOM      1  S   UNL d   1      51.625  33.864  52.871  0.00  0.00     0.285 S 
ATOM      2  O   UNL d   1      51.338  33.250  53.395  0.00  0.00    -0.198 OA
ATOM      3  O   UNL d   1      51.895  34.446  52.372  0.00  0.00    -0.198 OA
ENDROOT
BRANCH   1   4
ATOM      4  C   UNL d   1      52.257  33.948  53.360  0.00  0.00     0.105 A 
ATOM      5  C   UNL d   1      52.637  33.308  53.708  0.00  0.00     0.013 A 
ATOM      6  C   UNL d   1      53.290  33.402  54.212  0.00  0.00     0.001 A 
ATOM      7  C   UNL d   1      53.652  32.745  54.547  0.00  0.00     0.000 A 
ATOM      8  C   UNL d   1      53.566  34.157  54.369  0.00  0.00     0.000 A 
ATOM      9  C   UNL d   1      54.301  32.841  55.049  0.00  0.00     0.000 A 
ATOM     10  C   UNL d   1      54.587  33.626  55.211  0.00  0.00     0.000 A 
ATOM     11  C   UNL d   1      54.212  34.266  54.867  0.00  0.00     0.000 A 
ATOM     12  C   UNL d   1      53.189  34.818  54.022  0.00  0.00     0.001 A 
ATOM     13  C   UNL d   1      52.543  34.742  53.522  0.00  0.00     0.013 A 
ENDBRANCH   1   4
BRANCH   1  14
ATOM     14  N   UNL d   1      50.948  33.753  52.375  0.00  0.00    -0.158 NA
BRANCH  14  15
ATOM     15  C   UNL d   1      50.298  34.229  52.447  0.00  0.00     0.094 A 
ATOM     16  C   UNL d   1      50.012  34.474  53.174  0.00  0.00     0.021 A 
ATOM     17  C   UNL d   1      49.350  34.958  53.267  0.00  0.00     0.019 A 
ATOM     18  C   UNL d   1      48.947  35.215  52.566  0.00  0.00     0.064 A 
ATOM     19  C   UNL d   1      49.222  34.978  51.831  0.00  0.00     0.019 A 
ATOM     20  C   UNL d   1      49.897  34.483  51.740  0.00  0.00     0.021 A 
BRANCH  18  21
ATOM     21  N   UNL d   1      48.280  35.702  52.640  0.00  0.00    -0.300 N 
ATOM     22  C   UNL d   1      48.141  36.175  53.309  0.00  0.00     0.107 A 
ATOM     23  C   UNL d   1      47.482  36.650  53.369  0.00  0.00     0.142 A 
ATOM     24  O   UNL d   1      46.932  36.672  52.760  0.00  0.00    -0.300 OA
ATOM     25  C   UNL d   1      47.043  36.213  52.083  0.00  0.00     0.142 A 
ATOM     26  C   UNL d   1      47.719  35.722  52.015  0.00  0.00     0.107 A 
ENDBRANCH  18  21
ENDBRANCH  14  15
ENDBRANCH   1  14
TORSDOF 4
ENDMDL
MODEL 3
REMARK VINA RESULT:      -7.8      2.001      5.581
REMARK  4 active torsions:
REMARK  status: ('A' for Active; 'I' for Inactive)
REMARK    1  A    between atoms: C_2  and  S_1 
REMARK    2  A    between atoms: N_3  and  S_1 
REMARK    3  A    between atoms: C_12  and  N_3 
REMARK    4  A    between atoms: N_4  and  C_8 
ROOT
ATOM      1  S   UNL d   1      49.954  34.254  52.146  0.00  0.00     0.285 S 
ATOM      2  O   UNL d   1      50.134  34.610  51.387  0.00  0.00    -0.198 OA
ATOM      3  O   UNL d   1      49.787  33.913  52.865  0.00  0.00    -0.198 OA
ENDROOT
BRANCH   1   4
ATOM      4  C   UNL d   1      49.312  34.733  52.190  0.00  0.00     0.105 A 
ATOM      5  C   UNL d   1      49.130  35.171  52.862  0.00  0.00     0.013 A 
ATOM      6  C   UNL d   1      48.464  35.665  52.900  0.00  0.00     0.001 A 
ATOM      7  C   UNL d   1      48.305  36.091  53.584  0.00  0.00     0.000 A 
ATOM      8  C   UNL d   1      47.971  35.720  52.248  0.00  0.00     0.000 A 
ATOM      9  C   UNL d   1      47.642  36.583  53.620  0.00  0.00     0.000 A 
ATOM     10  C   UNL d   1      47.130  36.639  52.942  0.00  0.00     0.000 A 
ATOM     11  C   UNL d   1      47.307  36.206  52.272  0.00  0.00     0.000 A 
ATOM     12  C   UNL d   1      48.144  35.282  51.558  0.00  0.00     0.001 A 
ATOM     13  C   UNL d   1      48.797  34.789  51.503  0.00  0.00     0.013 A 
ENDBRANCH   1   4
BRANCH   1  14
ATOM     14  N   UNL d   1      50.639  33.760  52.071  0.00  0.00    -0.158 NA
BRANCH  14  15
ATOM     15  C   UNL d   1      51.259  33.830  52.586  0.00  0.00     0.094 A 
ATOM     16  C   UNL d   1      51.806  34.437  52.534  0.00  0.00     0.021 A 
ATOM     17  C   UNL d   1      52.445  34.523  53.049  0.00  0.00     0.019 A 
ATOM     18  C   UNL d   1      52.536  33.949  53.667  0.00  0.00     0.064 A 
ATOM     19  C   UNL d   1      51.995  33.336  53.731  0.00  0.00     0.019 A 
ATOM     20  C   UNL d   1      51.345  33.250  53.203  0.00  0.00     0.021 A 
BRANCH  18  21
ATOM     21  N   UNL d   1      53.171  34.020  54.194  0.00  0.00    -0.300 N 
ATOM     22  C   UNL d   1      53.241  34.650  54.731  0.00  0.00     0.107 A 
ATOM     23  C   UNL d   1      53.871  34.709  55.244  0.00  0.00     0.142 A 
ATOM     24  O   UNL d   1      54.461  34.137  55.242  0.00  0.00    -0.300 OA
ATOM     25  C   UNL d   1      54.419  33.499  54.719  0.00  0.00     0.142 A 
ATOM     26  C   UNL d   1      53.773  33.434  54.188  0.00  0.00     0.107 A 
ENDBRANCH  18  21
ENDBRANCH  14  15
ENDBRANCH   1  14
TORSDOF 4
ENDMDL
MODEL 4
REMARK VINA RESULT:      -7.2      1.554      5.260
REMARK  4 active torsions:
REMARK  status: ('A' for Active; 'I' for Inactive)
REMARK    1  A    between atoms: C_2  and  S_1 
REMARK    2  A    between atoms: N_3  and  S_1 
REMARK    3  A    between atoms: C_12  and  N_3 
REMARK    4  A    between atoms: N_4  and  C_8 
ROOT
ATOM      1  S   UNL d   1      52.317  33.428  52.861  0.00  0.00     0.285 S 
ATOM      2  O   UNL d   1      52.482  33.778  53.625  0.00  0.00    -0.198 OA
ATOM      3  O   UNL d   1      52.164  33.093  52.136  0.00  0.00    -0.198 OA
ENDROOT
BRANCH   1   4
ATOM      4  C   UNL d   1      51.617  33.820  52.861  0.00  0.00     0.105 A 
ATOM      5  C   UNL d   1      51.116  33.836  52.209  0.00  0.00     0.013 A 
ATOM      6  C   UNL d   1      50.393  34.245  52.217  0.00  0.00     0.001 A 
ATOM      7  C   UNL d   1      49.912  34.245  51.552  0.00  0.00     0.000 A 
ATOM      8  C   UNL d   1      50.170  34.645  52.896  0.00  0.00     0.000 A 
ATOM      9  C   UNL d   1      49.193  34.652  51.561  0.00  0.00     0.000 A 
ATOM     10  C   UNL d   1      48.961  35.068  52.267  0.00  0.00     0.000 A 
ATOM     11  C   UNL d   1      49.456  35.054  52.918  0.00  0.00     0.000 A 
ATOM     12  C   UNL d   1      50.668  34.638  53.567  0.00  0.00     0.001 A 
ATOM     13  C   UNL d   1      51.385  34.240  53.575  0.00  0.00     0.013 A 
ENDBRANCH   1   4
BRANCH   1  14
ATOM     14  N   UNL d   1      53.062  33.026  52.888  0.00  0.00    -0.158 NA
BRANCH  14  15
ATOM     15  C   UNL d   1      53.120  32.277  53.189  0.00  0.00     0.094 A 
ATOM     16  C   UNL d   1      52.770  31.631  52.826  0.00  0.00     0.021 A 
ATOM     17  C   UNL d   1      52.818  30.861  53.118  0.00  0.00     0.019 A 
ATOM     18  C   UNL d   1      53.256  30.735  53.834  0.00  0.00     0.064 A 
ATOM     19  C   UNL d   1      53.611  31.373  54.208  0.00  0.00     0.019 A 
ATOM     20  C   UNL d   1      53.560  32.158  53.907  0.00  0.00     0.021 A 
BRANCH  18  21
ATOM     21  N   UNL d   1      53.315  29.968  54.142  0.00  0.00    -0.300 N 
ATOM     22  C   UNL d   1      53.529  29.313  53.677  0.00  0.00     0.107 A 
ATOM     23  C   UNL d   1      53.583  28.564  53.992  0.00  0.00     0.142 A 
ATOM     24  O   UNL d   1      53.425  28.437  54.788  0.00  0.00    -0.300 OA
ATOM     25  C   UNL d   1      53.210  29.068  55.274  0.00  0.00     0.142 A 
ATOM     26  C   UNL d   1      53.152  29.842  54.956  0.00  0.00     0.107 A 
ENDBRANCH  18  21
ENDBRANCH  14  15
ENDBRANCH   1  14
TORSDOF 4
ENDMDL
MODEL 5
REMARK VINA RESULT:      -7.1      1.370      5.363
REMARK  4 active torsions:
REMARK  status: ('A' for Active; 'I' for Inactive)
REMARK    1  A    between atoms: C_2  and  S_1 
REMARK    2  A    between atoms: N_3  and  S_1 
REMARK    3  A    between atoms: C_12  and  N_3 
REMARK    4  A    between atoms: N_4  and  C_8 
ROOT
ATOM      1  S   UNL d   1      50.682  34.519  52.600  0.00  0.00     0.285 S 
ATOM      2  O   UNL d   1      50.230  34.527  53.328  0.00  0.00    -0.198 OA
ATOM      3  O   UNL d   1      51.113  34.510  51.911  0.00  0.00    -0.198 OA
ENDROOT
BRANCH   1   4
ATOM      4  C   UNL d   1      49.992  34.618  52.202  0.00  0.00     0.105 A 
ATOM      5  C   UNL d   1      49.368  35.065  52.499  0.00  0.00     0.013 A 
ATOM      6  C   UNL d   1      48.657  35.163  52.082  0.00  0.00     0.001 A 
ATOM      7  C   UNL d   1      48.050  35.614  52.402  0.00  0.00     0.000 A 
ATOM      8  C   UNL d   1      48.572  34.806  51.350  0.00  0.00     0.000 A 
ATOM      9  C   UNL d   1      47.343  35.712  51.985  0.00  0.00     0.000 A 
ATOM     10  C   UNL d   1      47.256  35.339  51.225  0.00  0.00     0.000 A 
ATOM     11  C   UNL d   1      47.873  34.895  50.925  0.00  0.00     0.000 A 
ATOM     12  C   UNL d   1      49.197  34.349  51.035  0.00  0.00     0.001 A 
ATOM     13  C   UNL d   1      49.906  34.241  51.434  0.00  0.00     0.013 A 
ENDBRANCH   1   4
BRANCH   1  14
ATOM     14  N   UNL d   1      51.394  34.414  53.046  0.00  0.00    -0.158 NA
BRANCH  14  15
ATOM     15  C   UNL d   1      51.749  33.688  53.098  0.00  0.00     0.094 A 
ATOM     16  C   UNL d   1      51.369  33.036  53.418  0.00  0.00     0.021 A 
ATOM     17  C   UNL d   1      51.715  32.290  53.479  0.00  0.00     0.019 A 
ATOM     18  C   UNL d   1      52.508  32.196  53.194  0.00  0.00     0.064 A 
ATOM     19  C   UNL d   1      52.900  32.840  52.872  0.00  0.00     0.019 A 
ATOM     20  C   UNL d   1      52.544  33.601  52.811  0.00  0.00     0.021 A 
BRANCH  18  21
ATOM     21  N   UNL d   1      52.871  31.453  53.248  0.00  0.00    -0.300 N 
ATOM     22  C   UNL d   1      53.603  31.337  53.624  0.00  0.00     0.107 A 
ATOM     23  C   UNL d   1      53.949  30.601  53.670  0.00  0.00     0.142 A 
ATOM     24  O   UNL d   1      53.577  29.947  53.340  0.00  0.00    -0.300 OA
ATOM     25  C   UNL d   1      52.848  30.032  52.960  0.00  0.00     0.142 A 
ATOM     26  C   UNL d   1      52.487  30.787  52.910  0.00  0.00     0.107 A 
ENDBRANCH  18  21
ENDBRANCH  14  15
ENDBRANCH   1  14
TORSDOF 4
ENDMDL
