MODEL 1
REMARK VINA RESULT:      -9.8      0.000      0.000
REMARK  2 active torsions:
REMARK  status: ('A' for Active; 'I' for Inactive)
REMARK    1  A    between atoms: C_7  and  C_1 
REMARK    2  A    between atoms: O_15  and  C_11 
ROOT
ATOM      1  C   UNL d   1      52.358  33.479  53.403  0.00  0.00     0.103 A 
ATOM      2  C   UNL d   1      52.665  32.732  53.235  0.00  0.00     0.067 A 
ATOM      3  O   UNL d   1      52.730  33.951  53.938  0.00  0.00    -0.307 OA
ATOM      4  C   UNL d   1      53.345  32.457  53.602  0.00  0.00     0.200 A 
ATOM      5  C   UNL d   1      53.726  32.960  54.160  0.00  0.00     0.062 A 
ATOM      6  C   UNL d   1      53.418  33.707  54.328  0.00  0.00     0.103 A 
ATOM      7  O   UNL d   1      53.633  31.706  53.417  0.00  0.00    -0.286 OA
ATOM      8  C   UNL d   1      54.409  32.686  54.530  0.00  0.00     0.005 A 
ATOM      9  C   UNL d   1      53.795  34.179  54.867  0.00  0.00     0.025 A 
ATOM     10  C   UNL d   1      54.770  33.185  55.071  0.00  0.00     0.000 A 
ATOM     11  C   UNL d   1      54.463  33.932  55.239  0.00  0.00     0.002 A 
ENDROOT
BRANCH   1  12
ATOM     12  C   UNL d   1      51.685  33.726  53.026  0.00  0.00     0.023 A 
ATOM     13  C   UNL d   1      51.724  34.088  52.279  0.00  0.00     0.004 A 
ATOM     14  C   UNL d   1      51.054  34.346  51.879  0.00  0.00     0.024 A 
ATOM     15  C   UNL d   1      50.306  34.230  52.257  0.00  0.00     0.094 A 
ATOM     16  C   UNL d   1      50.268  33.868  53.004  0.00  0.00     0.024 A 
ATOM     17  C   UNL d   1      50.934  33.620  53.386  0.00  0.00     0.004 A 
BRANCH  15  18
ATOM     18  O   UNL d   1      49.589  34.493  51.856  0.00  0.00    -0.328 OA
ATOM     19  C   UNL d   1      49.048  34.964  52.284  0.00  0.00     0.181 C 
ENDBRANCH  15  18
ENDBRANCH   1  12
TORSDOF 2
ENDMDL
MODEL 2
REMARK VINA RESULT:      -9.1      1.685      3.597
REMARK  2 active torsions:
REMARK  status: ('A' for Active; 'I' for Inactive)
REMARK    1  A    between atoms: C_7  and  C_1 
REMARK    2  A    between atoms: O_15  and  C_11 
ROOT
ATOM      1  C   UNL d   1      52.800  32.481  53.450  0.00  0.00     0.103 A 
ATOM      2  C   UNL d   1      52.372  32.818  52.831  0.00  0.00     0.067 A 
ATOM      3  O   UNL d   1      53.112  32.954  54.021  0.00  0.00    -0.307 OA
ATOM      4  C   UNL d   1      52.256  33.629  52.783  0.00  0.00     0.200 A 
ATOM      5  C   UNL d   1      52.588  34.113  53.387  0.00  0.00     0.062 A 
ATOM      6  C   UNL d   1      53.016  33.776  54.006  0.00  0.00     0.103 A 
ATOM      7  O   UNL d   1      51.824  33.943  52.153  0.00  0.00    -0.286 OA
ATOM      8  C   UNL d   1      52.473  34.929  53.341  0.00  0.00     0.005 A 
ATOM      9  C   UNL d   1      53.329  34.254  54.579  0.00  0.00     0.025 A 
ATOM     10  C   UNL d   1      52.801  35.388  53.935  0.00  0.00     0.000 A 
ATOM     11  C   UNL d   1      53.229  35.051  54.554  0.00  0.00     0.002 A 
ENDROOT
BRANCH   1  12
ATOM     12  C   UNL d   1      52.899  31.678  53.473  0.00  0.00     0.023 A 
ATOM     13  C   UNL d   1      52.272  31.166  53.286  0.00  0.00     0.004 A 
ATOM     14  C   UNL d   1      52.351  30.348  53.303  0.00  0.00     0.024 A 
ATOM     15  C   UNL d   1      53.106  30.034  53.521  0.00  0.00     0.094 A 
ATOM     16  C   UNL d   1      53.734  30.547  53.707  0.00  0.00     0.024 A 
ATOM     17  C   UNL d   1      53.642  31.347  53.686  0.00  0.00     0.004 A 
BRANCH  15  18
ATOM     18  O   UNL d   1      53.212  29.178  53.545  0.00  0.00    -0.328 OA
ATOM     19  C   UNL d   1      53.315  28.815  54.291  0.00  0.00     0.181 C 
ENDBRANCH  15  18
ENDBRANCH   1  12
TORSDOF 2
ENDMDL
MODEL 3
REMARK VINA RESULT:      -9.1      1.827      3.969
REMARK  2 active torsions:
REMARK  status: ('A' for Active; 'I' for Inactive)
REMARK    1  A    between atoms: C_7  and  C_1 
REMARK    2  A    between atoms: O_15  and  C_11 
ROOT
ATOM      1  C   UNL d   1      53.005  32.072  53.471  0.00  0.00     0.103 A 
ATOM      2  C   UNL d   1      53.658  32.558  53.605  0.00  0.00     0.067 A 
ATOM      3  O   UNL d   1      52.310  32.398  53.228  0.00  0.00    -0.307 OA
ATOM      4  C   UNL d   1      53.616  33.370  53.497  0.00  0.00     0.200 A 
ATOM      5  C   UNL d   1      52.883  33.699  53.242  0.00  0.00     0.062 A 
ATOM      6  C   UNL d   1      52.230  33.213  53.108  0.00  0.00     0.103 A 
ATOM      7  O   UNL d   1      54.283  33.835  53.638  0.00  0.00    -0.286 OA
ATOM      8  C   UNL d   1      52.839  34.515  53.133  0.00  0.00     0.005 A 
ATOM      9  C   UNL d   1      51.533  33.543  52.864  0.00  0.00     0.025 A 
ATOM     10  C   UNL d   1      52.121  34.822  52.885  0.00  0.00     0.000 A 
ATOM     11  C   UNL d   1      51.468  34.336  52.751  0.00  0.00     0.002 A 
ENDROOT
BRANCH   1  12
ATOM     12  C   UNL d   1      53.074  31.274  53.586  0.00  0.00     0.023 A 
ATOM     13  C   UNL d   1      52.887  30.738  52.978  0.00  0.00     0.004 A 
ATOM     14  C   UNL d   1      52.950  29.924  53.073  0.00  0.00     0.024 A 
ATOM     15  C   UNL d   1      53.215  29.640  53.824  0.00  0.00     0.094 A 
ATOM     16  C   UNL d   1      53.402  30.175  54.432  0.00  0.00     0.024 A 
ATOM     17  C   UNL d   1      53.336  30.972  54.325  0.00  0.00     0.004 A 
BRANCH  15  18
ATOM     18  O   UNL d   1      53.289  28.789  53.947  0.00  0.00    -0.328 OA
ATOM     19  C   UNL d   1      53.419  28.513  54.725  0.00  0.00     0.181 C 
ENDBRANCH  15  18
ENDBRANCH   1  12
TORSDOF 2
ENDMDL
MODEL 4
REMARK VINA RESULT:      -9.0      2.174      3.446
REMARK  2 active torsions:
REMARK  status: ('A' for Active; 'I' for Inactive)
REMARK    1  A    between atoms: C_7  and  C_1 
REMARK    2  A    between atoms: O_15  and  C_11 
ROOT
ATOM      1  C   UNL d   1      53.325  32.035  53.918  0.00  0.00     0.103 A 
ATOM      2  C   UNL d   1      53.100  31.891  53.138  0.00  0.00     0.067 A 
ATOM      3  O   UNL d   1      53.439  31.416  54.419  0.00  0.00    -0.307 OA
ATOM      4  C   UNL d   1      52.989  31.127  52.858  0.00  0.00     0.200 A 
ATOM      5  C   UNL d   1      53.112  30.488  53.394  0.00  0.00     0.062 A 
ATOM      6  C   UNL d   1      53.337  30.632  54.174  0.00  0.00     0.103 A 
ATOM      7  O   UNL d   1      52.764  31.009  52.073  0.00  0.00    -0.286 OA
ATOM      8  C   UNL d   1      53.000  29.720  53.115  0.00  0.00     0.005 A 
ATOM      9  C   UNL d   1      53.451  30.008  54.676  0.00  0.00     0.025 A 
ATOM     10  C   UNL d   1      53.123  29.107  53.645  0.00  0.00     0.000 A 
ATOM     11  C   UNL d   1      53.348  29.251  54.426  0.00  0.00     0.002 A 
ENDROOT
BRANCH   1  12
ATOM     12  C   UNL d   1      53.428  32.798  54.167  0.00  0.00     0.023 A 
ATOM     13  C   UNL d   1      54.158  33.051  54.475  0.00  0.00     0.004 A 
ATOM     14  C   UNL d   1      54.284  33.821  54.734  0.00  0.00     0.024 A 
ATOM     15  C   UNL d   1      53.635  34.361  54.676  0.00  0.00     0.094 A 
ATOM     16  C   UNL d   1      52.906  34.108  54.368  0.00  0.00     0.024 A 
ATOM     17  C   UNL d   1      52.796  33.350  54.118  0.00  0.00     0.004 A 
BRANCH  15  18
ATOM     18  O   UNL d   1      53.744  35.175  54.942  0.00  0.00    -0.328 OA
ATOM     19  C   UNL d   1      53.224  35.759  54.648  0.00  0.00     0.181 C 
ENDBRANCH  15  18
ENDBRANCH   1  12
TORSDOF 2
ENDMDL
MODEL 5
REMARK VINA RESULT:      -7.5      1.518      4.851
REMARK  2 active torsions:
REMARK  status: ('A' for Active; 'I' for Inactive)
REMARK    1  A    between atoms: C_7  and  C_1 
REMARK    2  A    between atoms: O_15  and  C_11 
ROOT
ATOM      1  C   UNL d   1      49.856  34.539  52.481  0.00  0.00     0.103 A 
ATOM      2  C   UNL d   1      49.519  34.366  51.748  0.00  0.00     0.067 A 
ATOM      3  O   UNL d   1      49.483  35.049  52.979  0.00  0.00    -0.307 OA
ATOM      4  C   UNL d   1      48.809  34.703  51.513  0.00  0.00     0.200 A 
ATOM      5  C   UNL d   1      48.428  35.235  52.044  0.00  0.00     0.062 A 
ATOM      6  C   UNL d   1      48.765  35.408  52.777  0.00  0.00     0.103 A 
ATOM      7  O   UNL d   1      48.492  34.514  50.775  0.00  0.00    -0.286 OA
ATOM      8  C   UNL d   1      47.714  35.576  51.810  0.00  0.00     0.005 A 
ATOM      9  C   UNL d   1      48.388  35.921  53.276  0.00  0.00     0.025 A 
ATOM     10  C   UNL d   1      47.354  36.091  52.336  0.00  0.00     0.000 A 
ATOM     11  C   UNL d   1      47.691  36.264  53.069  0.00  0.00     0.002 A 
ENDROOT
BRANCH   1  12
ATOM     12  C   UNL d   1      50.557  34.192  52.687  0.00  0.00     0.023 A 
ATOM     13  C   UNL d   1      50.572  33.513  53.166  0.00  0.00     0.004 A 
ATOM     14  C   UNL d   1      51.273  33.145  53.388  0.00  0.00     0.024 A 
ATOM     15  C   UNL d   1      51.996  33.485  53.108  0.00  0.00     0.094 A 
ATOM     16  C   UNL d   1      51.981  34.164  52.629  0.00  0.00     0.024 A 
ATOM     17  C   UNL d   1      51.286  34.514  52.419  0.00  0.00     0.004 A 
BRANCH  15  18
ATOM     18  O   UNL d   1      52.744  33.115  53.328  0.00  0.00    -0.328 OA
ATOM     19  C   UNL d   1      52.908  32.351  53.032  0.00  0.00     0.181 C 
ENDBRANCH  15  18
ENDBRANCH   1  12
TORSDOF 2
ENDMDL
MODEL 6
REMARK VINA RESULT:      -7.3      1.031      4.095
REMARK  2 active torsions:
REMARK  status: ('A' for Active; 'I' for Inactive)
REMARK    1  A    between atoms: C_7  and  C_1 
REMARK    2  A    between atoms: O_15  and  C_11 
ROOT
ATOM      1  C   UNL d   1      52.078  33.942  53.322  0.00  0.00     0.103 A 
ATOM      2  C   UNL d   1      52.188  33.948  52.504  0.00  0.00     0.067 A 
ATOM      3  O   UNL d   1      51.355  34.119  53.627  0.00  0.00    -0.307 OA
ATOM      4  C   UNL d   1      51.574  34.130  51.991  0.00  0.00     0.200 A 
ATOM      5  C   UNL d   1      50.821  34.313  52.324  0.00  0.00     0.062 A 
ATOM      6  C   UNL d   1      50.712  34.307  53.141  0.00  0.00     0.103 A 
ATOM      7  O   UNL d   1      51.708  34.129  51.177  0.00  0.00    -0.286 OA
ATOM      8  C   UNL d   1      50.203  34.497  51.810  0.00  0.00     0.005 A 
ATOM      9  C   UNL d   1      49.984  34.485  53.446  0.00  0.00     0.025 A 
ATOM     10  C   UNL d   1      49.476  34.673  52.146  0.00  0.00     0.000 A 
ATOM     11  C   UNL d   1      49.366  34.667  52.964  0.00  0.00     0.002 A 
ENDROOT
BRANCH   1  12
ATOM     12  C   UNL d   1      52.701  33.759  53.805  0.00  0.00     0.023 A 
ATOM     13  C   UNL d   1      52.945  32.970  53.904  0.00  0.00     0.004 A 
ATOM     14  C   UNL d   1      53.575  32.762  54.390  0.00  0.00     0.024 A 
ATOM     15  C   UNL d   1      53.978  33.386  54.794  0.00  0.00     0.094 A 
ATOM     16  C   UNL d   1      53.734  34.175  54.695  0.00  0.00     0.024 A 
ATOM     17  C   UNL d   1      53.114  34.365  54.215  0.00  0.00     0.004 A 
BRANCH  15  18
ATOM     18  O   UNL d   1      54.642  33.191  55.309  0.00  0.00    -0.328 OA
ATOM     19  C   UNL d   1      55.282  33.727  55.347  0.00  0.00     0.181 C 
ENDBRANCH  15  18
ENDBRANCH   1  12
TORSDOF 2
ENDMDL
