MODEL 1
REMARK VINA RESULT:      -0.9      0.000      0.000
REMARK  6 active torsions:
REMARK  status: ('A' for Active; 'I' for Inactive)
REMARK    1  A    between atoms: N_3  and  S_1 
REMARK    2  A    between atoms: C_6  and  S_1 
REMARK    3  A    between atoms: N_2  and  C_5 
REMARK    4  A    between atoms: C_4  and  N_3 
REMARK    5  A    between atoms: C_5  and  C_4 
REMARK    6  A    between atoms: C_10  and  C_5 
ROOT
ATOM      1  C   UNL d   1      32.910  20.833 -22.521  0.00  0.00     0.086 C 
ENDROOT
BRANCH   1   2
ATOM      2  N   UNL d   1      32.993  21.479 -23.039  0.00  0.00    -0.300 N 
ATOM      3  C   UNL d   1      33.156  21.350 -23.838  0.00  0.00     0.100 A 
ATOM      4  C   UNL d   1      33.237  21.992 -24.350  0.00  0.00     0.100 A 
ATOM      5  N   UNL d   1      33.156  22.757 -24.064  0.00  0.00    -0.299 N 
ATOM      6  C   UNL d   1      32.993  22.886 -23.266  0.00  0.00     0.100 A 
ATOM      7  C   UNL d   1      33.239  23.403 -24.582  0.00  0.00     0.100 C 
ATOM      8  C   UNL d   1      32.911  22.249 -22.753  0.00  0.00     0.100 A 
ENDBRANCH   1   2
BRANCH   1   9
ATOM      9  C   UNL d   1      33.043  20.071 -22.795  0.00  0.00     0.130 C 
BRANCH   9  10
ATOM     10  N   UNL d   1      32.425  19.524 -22.808  0.00  0.00    -0.155 NA
BRANCH  10  11
ATOM     11  S   UNL d   1      32.545  18.771 -23.122  0.00  0.00     0.285 S 
ATOM     12  O   UNL d   1      31.860  18.842 -23.589  0.00  0.00    -0.198 OA
ATOM     13  O   UNL d   1      33.238  18.681 -22.659  0.00  0.00    -0.198 OA
BRANCH  11  14
ATOM     14  C   UNL d   1      32.668  18.011 -23.437  0.00  0.00     0.105 A 
ATOM     15  C   UNL d   1      32.653  17.350 -22.943  0.00  0.00     0.014 A 
ATOM     16  C   UNL d   1      32.774  16.599 -23.253  0.00  0.00     0.012 A 
ATOM     17  C   UNL d   1      32.912  16.504 -24.066  0.00  0.00     0.058 A 
ATOM     18  C   UNL d   1      32.927  17.164 -24.560  0.00  0.00     0.012 A 
ATOM     19 CL   UNL d   1      33.035  15.747 -24.384  0.00  0.00    -0.082 Cl
ATOM     20  C   UNL d   1      32.805  17.917 -24.246  0.00  0.00     0.014 A 
ENDBRANCH  11  14
ENDBRANCH  10  11
ENDBRANCH   9  10
ENDBRANCH   1   9
BRANCH   1  21
ATOM     21  C   UNL d   1      32.696  20.959 -21.735  0.00  0.00     0.037 A 
ATOM     22  C   UNL d   1      31.985  21.339 -21.556  0.00  0.00     0.100 A 
ATOM     23  N   UNL d   1      31.770  21.465 -20.770  0.00  0.00    -0.242 NA
ATOM     24  C   UNL d   1      32.266  21.210 -20.161  0.00  0.00     0.099 A 
ATOM     25  C   UNL d   1      32.969  20.834 -20.341  0.00  0.00     0.021 A 
ATOM     26  C   UNL d   1      33.184  20.708 -21.128  0.00  0.00     0.005 A 
ENDBRANCH   1  21
TORSDOF 6
ENDMDL
MODEL 2
REMARK VINA RESULT:      -0.2      1.454      2.980
REMARK  6 active torsions:
REMARK  status: ('A' for Active; 'I' for Inactive)
REMARK    1  A    between atoms: N_3  and  S_1 
REMARK    2  A    between atoms: C_6  and  S_1 
REMARK    3  A    between atoms: N_2  and  C_5 
REMARK    4  A    between atoms: C_4  and  N_3 
REMARK    5  A    between atoms: C_5  and  C_4 
REMARK    6  A    between atoms: C_10  and  C_5 
ROOT
ATOM      1  C   UNL d   1      32.989  21.998 -21.401  0.00  0.00     0.086 C 
ENDROOT
BRANCH   1   2
ATOM      2  N   UNL d   1      33.016  22.195 -20.593  0.00  0.00    -0.300 N 
ATOM      3  C   UNL d   1      32.843  22.964 -20.349  0.00  0.00     0.100 A 
ATOM      4  C   UNL d   1      32.870  23.157 -19.547  0.00  0.00     0.100 A 
ATOM      5  N   UNL d   1      33.068  22.584 -18.994  0.00  0.00    -0.299 N 
ATOM      6  C   UNL d   1      33.241  21.815 -19.238  0.00  0.00     0.100 A 
ATOM      7  C   UNL d   1      33.095  22.781 -18.186  0.00  0.00     0.100 C 
ATOM      8  C   UNL d   1      33.215  21.619 -20.035  0.00  0.00     0.100 A 
ENDBRANCH   1   2
BRANCH   1   9
ATOM      9  C   UNL d   1      33.181  21.237 -21.642  0.00  0.00     0.130 C 
BRANCH   9  10
ATOM     10  N   UNL d   1      32.597  20.655 -21.674  0.00  0.00    -0.155 NA
BRANCH  10  11
ATOM     11  S   UNL d   1      32.725  19.963 -22.103  0.00  0.00     0.285 S 
ATOM     12  O   UNL d   1      32.985  19.570 -21.416  0.00  0.00    -0.198 OA
ATOM     13  O   UNL d   1      32.467  20.341 -22.804  0.00  0.00    -0.198 OA
BRANCH  11  14
ATOM     14  C   UNL d   1      32.855  19.265 -22.538  0.00  0.00     0.105 A 
ATOM     15  C   UNL d   1      32.971  19.301 -23.354  0.00  0.00     0.014 A 
ATOM     16  C   UNL d   1      33.099  18.613 -23.784  0.00  0.00     0.012 A 
ATOM     17  C   UNL d   1      33.111  17.879 -23.397  0.00  0.00     0.058 A 
ATOM     18  C   UNL d   1      32.994  17.842 -22.581  0.00  0.00     0.012 A 
ATOM     19 CL   UNL d   1      33.239  17.181 -23.828  0.00  0.00    -0.082 Cl
ATOM     20  C   UNL d   1      32.866  18.535 -22.152  0.00  0.00     0.014 A 
ENDBRANCH  11  14
ENDBRANCH  10  11
ENDBRANCH   9  10
ENDBRANCH   1   9
BRANCH   1  21
ATOM     21  C   UNL d   1      32.770  22.566 -21.958  0.00  0.00     0.037 A 
ATOM     22  C   UNL d   1      32.074  22.998 -21.856  0.00  0.00     0.100 A 
ATOM     23  N   UNL d   1      31.855  23.566 -22.413  0.00  0.00    -0.242 NA
ATOM     24  C   UNL d   1      32.332  23.702 -23.072  0.00  0.00     0.099 A 
ATOM     25  C   UNL d   1      33.021  23.273 -23.170  0.00  0.00     0.021 A 
ATOM     26  C   UNL d   1      33.240  22.705 -22.613  0.00  0.00     0.005 A 
ENDBRANCH   1  21
TORSDOF 6
ENDMDL
