MODEL 1
REMARK VINA RESULT:      -7.6      0.000      0.000
REMARK  1 active torsions:
REMARK  status: ('A' for Active; 'I' for Inactive)
REMARK    1  A    between atoms: C_2  and  S_1 
ROOT
ATOM      1  C   UNL d   1      53.767  32.254  53.805  0.00  0.00     0.107 A 
ATOM      2  C   UNL d   1      54.390  32.664  53.453  0.00  0.00     0.014 A 
ATOM      3  C   UNL d   1      53.614  32.333  54.602  0.00  0.00     0.014 A 
ATOM      4  C   UNL d   1      54.702  33.233  54.724  0.00  0.00     0.058 A 
ATOM      5  C   UNL d   1      54.089  32.830  55.068  0.00  0.00     0.012 A 
ATOM      6  C   UNL d   1      54.866  33.159  53.910  0.00  0.00     0.012 A 
ATOM      7 CL   UNL d   1      55.164  33.723  55.202  0.00  0.00    -0.082 Cl
ENDROOT
BRANCH   1   8
ATOM      8  S   UNL d   1      53.296  31.761  53.341  0.00  0.00     0.302 S 
ATOM      9  O   UNL d   1      53.697  31.106  53.643  0.00  0.00    -0.197 OA
ATOM     10  O   UNL d   1      52.899  32.405  53.042  0.00  0.00    -0.197 OA
ATOM     11  N   UNL d   1      52.830  31.263  52.882  0.00  0.00    -0.043 N 
ENDBRANCH   1   8
TORSDOF 1
ENDMDL
MODEL 2
REMARK VINA RESULT:      -7.0      2.256      2.514
REMARK  1 active torsions:
REMARK  status: ('A' for Active; 'I' for Inactive)
REMARK    1  A    between atoms: C_2  and  S_1 
ROOT
ATOM      1  C   UNL d   1      53.970  32.671  54.180  0.00  0.00     0.107 A 
ATOM      2  C   UNL d   1      53.445  33.055  53.673  0.00  0.00     0.014 A 
ATOM      3  C   UNL d   1      54.016  31.856  54.191  0.00  0.00     0.014 A 
ATOM      4  C   UNL d   1      53.016  31.782  53.189  0.00  0.00     0.058 A 
ATOM      5  C   UNL d   1      53.533  31.406  53.688  0.00  0.00     0.012 A 
ATOM      6  C   UNL d   1      52.961  32.614  53.170  0.00  0.00     0.012 A 
ATOM      7 CL   UNL d   1      52.543  31.320  52.696  0.00  0.00    -0.082 Cl
ENDROOT
BRANCH   1   8
ATOM      8  S   UNL d   1      54.450  33.119  54.679  0.00  0.00     0.302 S 
ATOM      9  O   UNL d   1      55.007  33.183  54.073  0.00  0.00    -0.197 OA
ATOM     10  O   UNL d   1      53.902  33.057  55.277  0.00  0.00    -0.197 OA
ATOM     11  N   UNL d   1      54.933  33.566  55.170  0.00  0.00    -0.043 N 
ENDBRANCH   1   8
TORSDOF 1
ENDMDL
MODEL 3
REMARK VINA RESULT:      -6.7      1.847      2.029
REMARK  1 active torsions:
REMARK  status: ('A' for Active; 'I' for Inactive)
REMARK    1  A    between atoms: C_2  and  S_1 
ROOT
ATOM      1  C   UNL d   1      52.947  33.935  53.817  0.00  0.00     0.107 A 
ATOM      2  C   UNL d   1      53.371  33.252  53.633  0.00  0.00     0.014 A 
ATOM      3  C   UNL d   1      53.147  34.386  54.467  0.00  0.00     0.014 A 
ATOM      4  C   UNL d   1      54.201  33.488  54.770  0.00  0.00     0.058 A 
ATOM      5  C   UNL d   1      53.783  34.159  54.949  0.00  0.00     0.012 A 
ATOM      6  C   UNL d   1      54.004  33.020  54.108  0.00  0.00     0.012 A 
ATOM      7 CL   UNL d   1      54.831  33.277  55.260  0.00  0.00    -0.082 Cl
ENDROOT
BRANCH   1   8
ATOM      8  S   UNL d   1      52.315  34.159  53.337  0.00  0.00     0.302 S 
ATOM      9  O   UNL d   1      51.866  33.543  53.653  0.00  0.00    -0.197 OA
ATOM     10  O   UNL d   1      52.756  34.767  53.025  0.00  0.00    -0.197 OA
ATOM     11  N   UNL d   1      51.681  34.377  52.862  0.00  0.00    -0.043 N 
ENDBRANCH   1   8
TORSDOF 1
ENDMDL
