MODEL 1
REMARK VINA RESULT:      59.1      0.000      0.000
REMARK  5 active torsions:
REMARK  status: ('A' for Active; 'I' for Inactive)
REMARK    1  A    between atoms: C_11  and  C_1 
REMARK    2  A    between atoms: C_5  and  S_13 
REMARK       I    between atoms: C_12  and  N_14 
REMARK    3  A    between atoms: C_18  and  C_12 
REMARK    4  A    between atoms: S_13  and  C_18 
REMARK    5  A    between atoms: N_14  and  C_19 
ROOT
ATOM      1  C   UNL d   1      14.028  17.686  -5.862  0.00  0.00     0.024 A 
ATOM      2  C   UNL d   1      14.619  17.230  -5.511  0.00  0.00     0.004 A 
ATOM      3  C   UNL d   1      13.357  17.342  -6.168  0.00  0.00     0.004 A 
ATOM      4  C   UNL d   1      13.840  16.054  -5.784  0.00  0.00     0.085 A 
ATOM      5  C   UNL d   1      13.262  16.522  -6.129  0.00  0.00     0.019 A 
ATOM      6  C   UNL d   1      14.524  16.409  -5.472  0.00  0.00     0.019 A 
ENDROOT
BRANCH   4   7
ATOM      7  N   UNL d   1      13.734  15.237  -5.751  0.00  0.00    -0.208 NA
ATOM      8  C   UNL d   1      13.360  14.901  -5.097  0.00  0.00     0.286 C 
ATOM      9  O   UNL d   1      13.096  15.379  -4.483  0.00  0.00    -0.265 OA
BRANCH   8  10
ATOM     10  C   UNL d   1      13.252  14.084  -5.059  0.00  0.00     0.100 C 
BRANCH  10  11
ATOM     11  S   UNL d   1      12.772  13.760  -4.467  0.00  0.00    -0.054 SA
BRANCH  11  12
ATOM     12  C   UNL d   1      12.989  13.053  -4.097  0.00  0.00     0.164 A 
ATOM     13  S   UNL d   1      13.083  12.943  -3.290  0.00  0.00    -0.039 SA
ATOM     14  C   UNL d   1      13.303  12.152  -3.166  0.00  0.00     0.134 A 
ATOM     15  C   UNL d   1      13.456  11.797  -2.432  0.00  0.00     0.030 C 
ATOM     16  N   UNL d   1      13.343  11.779  -3.903  0.00  0.00    -0.140 NA
ATOM     17  N   UNL d   1      13.149  12.336  -4.482  0.00  0.00    -0.134 NA
ENDBRANCH  11  12
ENDBRANCH  10  11
ENDBRANCH   8  10
ENDBRANCH   4   7
BRANCH   1  18
ATOM     18  C   UNL d   1      14.117  18.520  -5.905  0.00  0.00     0.111 A 
ATOM     19  N   UNL d   1      14.836  18.900  -5.802  0.00  0.00    -0.239 NA
ATOM     20  C   UNL d   1      14.709  19.709  -5.883  0.00  0.00     0.088 A 
ATOM     21  C   UNL d   1      15.213  20.355  -5.838  0.00  0.00     0.020 A 
ATOM     22  C   UNL d   1      13.906  19.824  -6.037  0.00  0.00     0.049 A 
ATOM     23  C   UNL d   1      14.927  21.115  -5.944  0.00  0.00     0.002 A 
ATOM     24  C   UNL d   1      14.127  21.238  -6.098  0.00  0.00     0.001 A 
ATOM     25  C   UNL d   1      13.617  20.583  -6.143  0.00  0.00     0.008 A 
ATOM     26  S   UNL d   1      13.543  19.089  -6.050  0.00  0.00    -0.066 SA
ENDBRANCH   1  18
TORSDOF 5
ENDMDL
MODEL 2
REMARK VINA RESULT:      59.7      1.570      6.446
REMARK  5 active torsions:
REMARK  status: ('A' for Active; 'I' for Inactive)
REMARK    1  A    between atoms: C_11  and  C_1 
REMARK    2  A    between atoms: C_5  and  S_13 
REMARK       I    between atoms: C_12  and  N_14 
REMARK    3  A    between atoms: C_18  and  C_12 
REMARK    4  A    between atoms: S_13  and  C_18 
REMARK    5  A    between atoms: N_14  and  C_19 
ROOT
ATOM      1  C   UNL d   1      13.873  14.248  -3.345  0.00  0.00     0.024 A 
ATOM      2  C   UNL d   1      13.212  14.091  -3.812  0.00  0.00     0.004 A 
ATOM      3  C   UNL d   1      14.325  14.915  -3.467  0.00  0.00     0.004 A 
ATOM      4  C   UNL d   1      13.467  15.302  -4.540  0.00  0.00     0.085 A 
ATOM      5  C   UNL d   1      14.122  15.444  -4.067  0.00  0.00     0.019 A 
ATOM      6  C   UNL d   1      13.008  14.621  -4.413  0.00  0.00     0.019 A 
ENDROOT
BRANCH   4   7
ATOM      7  N   UNL d   1      13.273  15.839  -5.136  0.00  0.00    -0.208 NA
ATOM      8  C   UNL d   1      13.829  16.401  -5.374  0.00  0.00     0.286 C 
ATOM      9  O   UNL d   1      14.568  16.425  -5.018  0.00  0.00    -0.265 OA
BRANCH   8  10
ATOM     10  C   UNL d   1      13.639  16.940  -5.970  0.00  0.00     0.100 C 
BRANCH  10  11
ATOM     11  S   UNL d   1      14.168  17.549  -6.155  0.00  0.00    -0.054 SA
BRANCH  11  12
ATOM     12  C   UNL d   1      13.904  18.333  -6.183  0.00  0.00     0.164 A 
ATOM     13  S   UNL d   1      14.355  18.997  -6.015  0.00  0.00    -0.039 SA
ATOM     14  C   UNL d   1      13.870  19.663  -6.113  0.00  0.00     0.134 A 
ATOM     15  C   UNL d   1      14.097  20.454  -6.000  0.00  0.00     0.030 C 
ATOM     16  N   UNL d   1      13.119  19.402  -6.343  0.00  0.00    -0.140 NA
ATOM     17  N   UNL d   1      13.138  18.578  -6.387  0.00  0.00    -0.134 NA
ENDBRANCH  11  12
ENDBRANCH  10  11
ENDBRANCH   8  10
ENDBRANCH   4   7
BRANCH   1  18
ATOM     18  C   UNL d   1      14.087  13.715  -2.733  0.00  0.00     0.111 A 
ATOM     19  N   UNL d   1      14.509  13.941  -2.068  0.00  0.00    -0.239 NA
ATOM     20  C   UNL d   1      14.614  13.275  -1.596  0.00  0.00     0.088 A 
ATOM     21  C   UNL d   1      14.988  13.163  -0.874  0.00  0.00     0.020 A 
ATOM     22  C   UNL d   1      14.254  12.637  -1.976  0.00  0.00     0.049 A 
ATOM     23  C   UNL d   1      15.007  12.423  -0.525  0.00  0.00     0.002 A 
ATOM     24  C   UNL d   1      14.649  11.781  -0.898  0.00  0.00     0.001 A 
ATOM     25  C   UNL d   1      14.271  11.895  -1.629  0.00  0.00     0.008 A 
ATOM     26  S   UNL d   1      13.929  12.911  -2.677  0.00  0.00    -0.066 SA
ENDBRANCH   1  18
TORSDOF 5
ENDMDL
MODEL 3
REMARK VINA RESULT:      59.7      2.345      6.827
REMARK  5 active torsions:
REMARK  status: ('A' for Active; 'I' for Inactive)
REMARK    1  A    between atoms: C_11  and  C_1 
REMARK    2  A    between atoms: C_5  and  S_13 
REMARK       I    between atoms: C_12  and  N_14 
REMARK    3  A    between atoms: C_18  and  C_12 
REMARK    4  A    between atoms: S_13  and  C_18 
REMARK    5  A    between atoms: N_14  and  C_19 
ROOT
ATOM      1  C   UNL d   1      14.656  15.059  -2.010  0.00  0.00     0.024 A 
ATOM      2  C   UNL d   1      14.912  15.738  -1.618  0.00  0.00     0.004 A 
ATOM      3  C   UNL d   1      14.465  15.078  -2.802  0.00  0.00     0.004 A 
ATOM      4  C   UNL d   1      14.782  16.469  -2.847  0.00  0.00     0.085 A 
ATOM      5  C   UNL d   1      14.529  15.786  -3.222  0.00  0.00     0.019 A 
ATOM      6  C   UNL d   1      14.975  16.447  -2.039  0.00  0.00     0.019 A 
ENDROOT
BRANCH   4   7
ATOM      7  N   UNL d   1      14.841  17.170  -3.278  0.00  0.00    -0.208 NA
ATOM      8  C   UNL d   1      15.132  17.151  -4.050  0.00  0.00     0.286 C 
ATOM      9  O   UNL d   1      15.360  16.437  -4.385  0.00  0.00    -0.265 OA
BRANCH   8  10
ATOM     10  C   UNL d   1      15.193  17.849  -4.484  0.00  0.00     0.100 C 
BRANCH  10  11
ATOM     11  S   UNL d   1      14.577  18.073  -4.991  0.00  0.00    -0.054 SA
BRANCH  11  12
ATOM     12  C   UNL d   1      14.576  18.824  -5.337  0.00  0.00     0.164 A 
ATOM     13  S   UNL d   1      13.941  19.177  -5.716  0.00  0.00    -0.039 SA
ATOM     14  C   UNL d   1      14.185  19.926  -5.977  0.00  0.00     0.134 A 
ATOM     15  C   UNL d   1      13.719  20.476  -6.389  0.00  0.00     0.030 C 
ATOM     16  N   UNL d   1      14.975  20.029  -5.755  0.00  0.00    -0.140 NA
ATOM     17  N   UNL d   1      15.220  19.347  -5.358  0.00  0.00    -0.134 NA
ENDBRANCH  11  12
ENDBRANCH  10  11
ENDBRANCH   8  10
ENDBRANCH   4   7
BRANCH   1  18
ATOM     18  C   UNL d   1      14.589  14.336  -1.589  0.00  0.00     0.111 A 
ATOM     19  N   UNL d   1      14.852  13.618  -1.886  0.00  0.00    -0.239 NA
ATOM     20  C   UNL d   1      14.694  13.039  -1.324  0.00  0.00     0.088 A 
ATOM     21  C   UNL d   1      14.831  12.229  -1.311  0.00  0.00     0.020 A 
ATOM     22  C   UNL d   1      14.333  13.405  -0.678  0.00  0.00     0.049 A 
ATOM     23  C   UNL d   1      14.611  11.780  -0.663  0.00  0.00     0.002 A 
ATOM     24  C   UNL d   1      14.249  12.138  -0.015  0.00  0.00     0.001 A 
ATOM     25  C   UNL d   1      14.112  12.957  -0.028  0.00  0.00     0.008 A 
ATOM     26  S   UNL d   1      14.269  14.205  -0.844  0.00  0.00    -0.066 SA
ENDBRANCH   1  18
TORSDOF 5
ENDMDL
MODEL 4
REMARK VINA RESULT:      59.9      0.873      1.178
REMARK  5 active torsions:
REMARK  status: ('A' for Active; 'I' for Inactive)
REMARK    1  A    between atoms: C_11  and  C_1 
REMARK    2  A    between atoms: C_5  and  S_13 
REMARK       I    between atoms: C_12  and  N_14 
REMARK    3  A    between atoms: C_18  and  C_12 
REMARK    4  A    between atoms: S_13  and  C_18 
REMARK    5  A    between atoms: N_14  and  C_19 
ROOT
ATOM      1  C   UNL d   1      14.136  17.025  -5.464  0.00  0.00     0.024 A 
ATOM      2  C   UNL d   1      14.403  16.746  -4.734  0.00  0.00     0.004 A 
ATOM      3  C   UNL d   1      13.844  16.514  -6.027  0.00  0.00     0.004 A 
ATOM      4  C   UNL d   1      14.074  15.412  -5.150  0.00  0.00     0.085 A 
ATOM      5  C   UNL d   1      13.813  15.704  -5.870  0.00  0.00     0.019 A 
ATOM      6  C   UNL d   1      14.371  15.935  -4.577  0.00  0.00     0.019 A 
ENDROOT
BRANCH   4   7
ATOM      7  N   UNL d   1      14.037  14.600  -5.004  0.00  0.00    -0.208 NA
ATOM      8  C   UNL d   1      13.394  14.289  -4.592  0.00  0.00     0.286 C 
ATOM      9  O   UNL d   1      12.795  14.786  -4.330  0.00  0.00    -0.265 OA
BRANCH   8  10
ATOM     10  C   UNL d   1      13.353  13.478  -4.445  0.00  0.00     0.100 C 
BRANCH  10  11
ATOM     11  S   UNL d   1      12.997  13.205  -3.749  0.00  0.00    -0.054 SA
BRANCH  11  12
ATOM     12  C   UNL d   1      13.438  12.772  -3.200  0.00  0.00     0.164 A 
ATOM     13  S   UNL d   1      13.642  13.019  -2.445  0.00  0.00    -0.039 SA
ATOM     14  C   UNL d   1      14.083  12.413  -2.090  0.00  0.00     0.134 A 
ATOM     15  C   UNL d   1      14.403  12.425  -1.324  0.00  0.00     0.030 C 
ATOM     16  N   UNL d   1      14.148  11.792  -2.632  0.00  0.00    -0.140 NA
ATOM     17  N   UNL d   1      13.749  12.013  -3.321  0.00  0.00    -0.134 NA
ENDBRANCH  11  12
ENDBRANCH  10  11
ENDBRANCH   8  10
ENDBRANCH   4   7
BRANCH   1  18
ATOM     18  C   UNL d   1      14.165  17.847  -5.631  0.00  0.00     0.111 A 
ATOM     19  N   UNL d   1      13.553  18.253  -5.994  0.00  0.00    -0.239 NA
ATOM     20  C   UNL d   1      13.778  19.040  -6.066  0.00  0.00     0.088 A 
ATOM     21  C   UNL d   1      13.399  19.697  -6.380  0.00  0.00     0.020 A 
ATOM     22  C   UNL d   1      14.534  19.117  -5.744  0.00  0.00     0.049 A 
ATOM     23  C   UNL d   1      13.764  20.430  -6.377  0.00  0.00     0.002 A 
ATOM     24  C   UNL d   1      14.519  20.515  -6.057  0.00  0.00     0.001 A 
ATOM     25  C   UNL d   1      14.902  19.850  -5.740  0.00  0.00     0.008 A 
ATOM     26  S   UNL d   1      14.771  18.380  -5.476  0.00  0.00    -0.066 SA
ENDBRANCH   1  18
TORSDOF 5
ENDMDL
