MODEL 1
REMARK VINA RESULT:      -3.5      0.000      0.000
REMARK  6 active torsions:
REMARK  status: ('A' for Active; 'I' for Inactive)
REMARK    1  A    between atoms: O_9  and  S_1 
REMARK    2  A    between atoms: C_10  and  C_4 
REMARK    3  A    between atoms: C_14  and  O_9 
REMARK    4  A    between atoms: C_13  and  C_10 
REMARK    5  A    between atoms: C_16  and  C_13 
REMARK    6  A    between atoms: C_19  and  C_16 
ROOT
ATOM      1  C   UNL d   1      31.870  16.823 -23.510  0.00  0.00     0.064 A 
ATOM      2  C   UNL d   1      31.338  17.398 -23.771  0.00  0.00     0.105 A 
ATOM      3  C   UNL d   1      32.425  18.021 -23.297  0.00  0.00     0.139 A 
ATOM      4  C   UNL d   1      32.539  17.208 -23.219  0.00  0.00     0.220 A 
ATOM      5  O   UNL d   1      31.678  18.144 -23.641  0.00  0.00    -0.304 OA
ATOM      6  C   UNL d   1      30.615  17.171 -24.092  0.00  0.00     0.050 A 
ATOM      7  C   UNL d   1      31.678  16.023 -23.572  0.00  0.00     0.007 A 
ATOM      8  C   UNL d   1      30.427  16.377 -24.152  0.00  0.00     0.115 A 
ATOM      9  O   UNL d   1      33.212  16.842 -22.901  0.00  0.00    -0.284 OA
ATOM     10  C   UNL d   1      30.952  15.799 -23.895  0.00  0.00     0.026 A 
ENDROOT
BRANCH   3  11
ATOM     11  C   UNL d   1      32.956  18.614 -23.074  0.00  0.00     0.028 C 
BRANCH  11  12
ATOM     12  C   UNL d   1      32.699  19.257 -22.622  0.00  0.00     0.002 C 
BRANCH  12  13
ATOM     13  C   UNL d   1      33.241  19.802 -22.330  0.00  0.00     0.000 C 
BRANCH  13  14
ATOM     14  C   UNL d   1      32.986  20.499 -21.982  0.00  0.00     0.000 A 
ATOM     15  C   UNL d   1      32.745  20.508 -21.192  0.00  0.00     0.000 A 
ATOM     16  C   UNL d   1      32.487  21.214 -20.842  0.00  0.00     0.000 A 
ATOM     17  C   UNL d   1      32.472  21.911 -21.285  0.00  0.00     0.000 A 
ATOM     18  C   UNL d   1      32.716  21.898 -22.080  0.00  0.00     0.000 A 
ATOM     19  C   UNL d   1      32.971  21.192 -22.422  0.00  0.00     0.000 A 
ENDBRANCH  13  14
ENDBRANCH  12  13
ENDBRANCH  11  12
ENDBRANCH   3  11
BRANCH   8  20
ATOM     20  O   UNL d   1      29.697  16.146 -24.477  0.00  0.00    -0.230 OA
BRANCH  20  21
ATOM     21  S   UNL d   1      29.053  16.003 -23.978  0.00  0.00     0.285 S 
ATOM     22  O   UNL d   1      28.919  16.387 -24.698  0.00  0.00    -0.197 OA
ATOM     23  O   UNL d   1      29.171  15.626 -23.269  0.00  0.00    -0.197 OA
ATOM     24  C   UNL d   1      28.238  16.054 -23.811  0.00  0.00     0.172 C 
ENDBRANCH  20  21
ENDBRANCH   8  20
TORSDOF 6
ENDMDL
MODEL 2
REMARK VINA RESULT:      -2.9      2.741      5.500
REMARK  6 active torsions:
REMARK  status: ('A' for Active; 'I' for Inactive)
REMARK    1  A    between atoms: O_9  and  S_1 
REMARK    2  A    between atoms: C_10  and  C_4 
REMARK    3  A    between atoms: C_14  and  O_9 
REMARK    4  A    between atoms: C_13  and  C_10 
REMARK    5  A    between atoms: C_16  and  C_13 
REMARK    6  A    between atoms: C_19  and  C_16 
ROOT
ATOM      1  C   UNL d   1      33.149  20.165 -21.762  0.00  0.00     0.064 A 
ATOM      2  C   UNL d   1      33.120  20.550 -22.493  0.00  0.00     0.105 A 
ATOM      3  C   UNL d   1      33.172  19.231 -22.718  0.00  0.00     0.139 A 
ATOM      4  C   UNL d   1      33.181  19.353 -21.903  0.00  0.00     0.220 A 
ATOM      5  O   UNL d   1      33.134  19.973 -23.090  0.00  0.00    -0.304 OA
ATOM      6  C   UNL d   1      33.085  21.372 -22.521  0.00  0.00     0.050 A 
ATOM      7  C   UNL d   1      33.142  20.603 -21.063  0.00  0.00     0.007 A 
ATOM      8  C   UNL d   1      33.078  21.803 -21.826  0.00  0.00     0.115 A 
ATOM      9  O   UNL d   1      33.216  18.760 -21.325  0.00  0.00    -0.284 OA
ATOM     10  C   UNL d   1      33.106  21.427 -21.096  0.00  0.00     0.026 A 
ENDROOT
BRANCH   3  11
ATOM     11  C   UNL d   1      33.196  18.500 -23.105  0.00  0.00     0.028 C 
BRANCH  11  12
ATOM     12  C   UNL d   1      32.563  18.256 -23.578  0.00  0.00     0.002 C 
BRANCH  12  13
ATOM     13  C   UNL d   1      32.528  17.484 -23.859  0.00  0.00     0.000 C 
BRANCH  13  14
ATOM     14  C   UNL d   1      31.824  17.175 -24.144  0.00  0.00     0.000 A 
ATOM     15  C   UNL d   1      31.377  17.594 -24.697  0.00  0.00     0.000 A 
ATOM     16  C   UNL d   1      30.666  17.280 -24.985  0.00  0.00     0.000 A 
ATOM     17  C   UNL d   1      30.404  16.544 -24.716  0.00  0.00     0.000 A 
ATOM     18  C   UNL d   1      30.856  16.125 -24.159  0.00  0.00     0.000 A 
ATOM     19  C   UNL d   1      31.563  16.444 -23.877  0.00  0.00     0.000 A 
ENDBRANCH  13  14
ENDBRANCH  12  13
ENDBRANCH  11  12
ENDBRANCH   3  11
BRANCH   8  20
ATOM     20  O   UNL d   1      33.042  22.634 -21.854  0.00  0.00    -0.230 OA
BRANCH  20  21
ATOM     21  S   UNL d   1      32.344  23.022 -21.641  0.00  0.00     0.285 S 
ATOM     22  O   UNL d   1      32.886  23.419 -22.123  0.00  0.00    -0.197 OA
ATOM     23  O   UNL d   1      31.803  22.644 -21.168  0.00  0.00    -0.197 OA
ATOM     24  C   UNL d   1      31.847  23.692 -21.668  0.00  0.00     0.172 C 
ENDBRANCH  20  21
ENDBRANCH   8  20
TORSDOF 6
ENDMDL
MODEL 3
REMARK VINA RESULT:      -1.0      1.518      1.823
REMARK  6 active torsions:
REMARK  status: ('A' for Active; 'I' for Inactive)
REMARK    1  A    between atoms: O_9  and  S_1 
REMARK    2  A    between atoms: C_10  and  C_4 
REMARK    3  A    between atoms: C_14  and  O_9 
REMARK    4  A    between atoms: C_13  and  C_10 
REMARK    5  A    between atoms: C_16  and  C_13 
REMARK    6  A    between atoms: C_19  and  C_16 
ROOT
ATOM      1  C   UNL d   1      31.710  17.234 -24.484  0.00  0.00     0.064 A 
ATOM      2  C   UNL d   1      31.209  17.792 -24.832  0.00  0.00     0.105 A 
ATOM      3  C   UNL d   1      32.429  18.336 -24.723  0.00  0.00     0.139 A 
ATOM      4  C   UNL d   1      32.460  17.571 -24.418  0.00  0.00     0.220 A 
ATOM      5  O   UNL d   1      31.652  18.478 -24.982  0.00  0.00    -0.304 OA
ATOM      6  C   UNL d   1      30.420  17.604 -24.966  0.00  0.00     0.050 A 
ATOM      7  C   UNL d   1      31.419  16.492 -24.272  0.00  0.00     0.007 A 
ATOM      8  C   UNL d   1      30.134  16.868 -24.755  0.00  0.00     0.115 A 
ATOM      9  O   UNL d   1      33.132  17.204 -24.099  0.00  0.00    -0.284 OA
ATOM     10  C   UNL d   1      30.626  16.308 -24.409  0.00  0.00     0.026 A 
ENDROOT
BRANCH   3  11
ATOM     11  C   UNL d   1      33.056  18.873 -24.766  0.00  0.00     0.028 C 
BRANCH  11  12
ATOM     12  C   UNL d   1      32.972  19.639 -24.467  0.00  0.00     0.002 C 
BRANCH  12  13
ATOM     13  C   UNL d   1      33.181  20.289 -24.925  0.00  0.00     0.000 C 
BRANCH  13  14
ATOM     14  C   UNL d   1      33.191  21.042 -24.602  0.00  0.00     0.000 A 
ATOM     15  C   UNL d   1      33.231  21.146 -23.784  0.00  0.00     0.000 A 
ATOM     16  C   UNL d   1      33.241  21.908 -23.458  0.00  0.00     0.000 A 
ATOM     17  C   UNL d   1      33.211  22.567 -23.956  0.00  0.00     0.000 A 
ATOM     18  C   UNL d   1      33.170  22.459 -24.779  0.00  0.00     0.000 A 
ATOM     19  C   UNL d   1      33.160  21.698 -25.096  0.00  0.00     0.000 A 
ENDBRANCH  13  14
ENDBRANCH  12  13
ENDBRANCH  11  12
ENDBRANCH   3  11
BRANCH   8  20
ATOM     20  O   UNL d   1      29.336  16.678 -24.891  0.00  0.00    -0.230 OA
BRANCH  20  21
ATOM     21  S   UNL d   1      28.755  16.941 -24.364  0.00  0.00     0.285 S 
ATOM     22  O   UNL d   1      28.757  16.144 -24.586  0.00  0.00    -0.197 OA
ATOM     23  O   UNL d   1      28.743  17.720 -24.137  0.00  0.00    -0.197 OA
ATOM     24  C   UNL d   1      28.090  16.794 -23.883  0.00  0.00     0.172 C 
ENDBRANCH  20  21
ENDBRANCH   8  20
TORSDOF 6
ENDMDL
