MODEL 1
REMARK VINA RESULT:      -5.9      0.000      0.000
REMARK  7 active torsions:
REMARK  status: ('A' for Active; 'I' for Inactive)
REMARK    1  A    between atoms: C_3  and  C_1 
REMARK    2  A    between atoms: C_9  and  N_2 
REMARK    3  A    between atoms: C_6  and  C_3 
REMARK    4  A    between atoms: C_8  and  C_3 
REMARK       I    between atoms: N_11  and  C_6 
REMARK    5  A    between atoms: C_26  and  C_7 
REMARK    6  A    between atoms: C_21  and  N_11 
REMARK    7  A    between atoms: C_12  and  C_21 
ROOT
ATOM      1  C   UNL d   1     -47.468  13.118  22.903  0.00  0.00     0.103 A 
ATOM      2  N   UNL d   1     -48.262  13.260  22.740  0.00  0.00    -0.269 N 
ATOM      3  S   UNL d   1     -47.410  12.381  23.268  0.00  0.00    -0.064 SA
ATOM      4  C   UNL d   1     -48.702  12.613  23.003  0.00  0.00     0.271 A 
ATOM      5  C   UNL d   1     -48.171  12.070  23.330  0.00  0.00     0.087 A 
ATOM      6  O   UNL d   1     -49.518  12.527  22.949  0.00  0.00    -0.266 OA
ENDROOT
BRANCH   1   7
ATOM      7  C   UNL d   1     -46.836  13.625  22.731  0.00  0.00     0.101 C 
BRANCH   7   8
ATOM      8  C   UNL d   1     -46.319  13.450  22.109  0.00  0.00     0.283 C 
ATOM      9  N   UNL d   1     -45.562  13.179  22.265  0.00  0.00    -0.204 NA
ATOM     10  O   UNL d   1     -46.572  13.551  21.327  0.00  0.00    -0.265 OA
BRANCH   9  11
ATOM     11  C   UNL d   1     -45.046  13.005  21.643  0.00  0.00     0.127 C 
BRANCH  11  12
ATOM     12  C   UNL d   1     -44.315  12.655  21.788  0.00  0.00     0.119 A 
ATOM     13  O   UNL d   1     -44.155  12.051  22.323  0.00  0.00    -0.304 OA
ATOM     14  C   UNL d   1     -43.349  11.876  22.283  0.00  0.00     0.123 A 
ATOM     15  C   UNL d   1     -43.010  12.373  21.722  0.00  0.00     0.029 A 
ATOM     16  C   UNL d   1     -43.603  12.856  21.414  0.00  0.00     0.028 A 
ENDBRANCH  11  12
ENDBRANCH   9  11
ENDBRANCH   7   8
BRANCH   7  17
ATOM     17  C   UNL d   1     -46.719  14.311  23.185  0.00  0.00     0.129 C 
ATOM     18  N   UNL d   1     -46.361  14.967  22.841  0.00  0.00    -0.146 N 
ENDBRANCH   7  17
ENDBRANCH   1   7
BRANCH   2  19
ATOM     19  C   UNL d   1     -48.949  13.636  22.477  0.00  0.00     0.068 A 
ATOM     20  C   UNL d   1     -49.344  14.161  22.962  0.00  0.00     0.020 A 
ATOM     21  C   UNL d   1     -50.027  14.533  22.700  0.00  0.00     0.031 A 
ATOM     22  C   UNL d   1     -50.314  14.375  21.939  0.00  0.00     0.140 A 
ATOM     23  C   UNL d   1     -49.913  13.845  21.451  0.00  0.00     0.031 A 
ATOM     24  F   UNL d   1     -50.998  14.744  21.668  0.00  0.00    -0.204 F 
ATOM     25  C   UNL d   1     -49.232  13.475  21.717  0.00  0.00     0.020 A 
ENDBRANCH   2  19
BRANCH   5  26
ATOM     26  C   UNL d   1     -48.377  11.341  23.660  0.00  0.00     0.011 C 
ATOM     27  C   UNL d   1     -47.886  10.692  23.564  0.00  0.00     0.001 C 
ENDBRANCH   5  26
TORSDOF 7
ENDMDL
MODEL 2
REMARK VINA RESULT:      -5.8      8.272      9.138
REMARK  7 active torsions:
REMARK  status: ('A' for Active; 'I' for Inactive)
REMARK    1  A    between atoms: C_3  and  C_1 
REMARK    2  A    between atoms: C_9  and  N_2 
REMARK    3  A    between atoms: C_6  and  C_3 
REMARK    4  A    between atoms: C_8  and  C_3 
REMARK       I    between atoms: N_11  and  C_6 
REMARK    5  A    between atoms: C_26  and  C_7 
REMARK    6  A    between atoms: C_21  and  N_11 
REMARK    7  A    between atoms: C_12  and  C_21 
ROOT
ATOM      1  C   UNL d   1     -39.095  14.495  19.039  0.00  0.00     0.103 A 
ATOM      2  N   UNL d   1     -39.486  14.618  18.326  0.00  0.00    -0.269 N 
ATOM      3  S   UNL d   1     -38.599  13.842  18.950  0.00  0.00    -0.064 SA
ATOM      4  C   UNL d   1     -39.236  14.043  17.789  0.00  0.00     0.271 A 
ATOM      5  C   UNL d   1     -38.687  13.563  18.178  0.00  0.00     0.087 A 
ATOM      6  O   UNL d   1     -39.489  13.964  17.011  0.00  0.00    -0.266 OA
ENDROOT
BRANCH   1   7
ATOM      7  C   UNL d   1     -39.182  14.946  19.729  0.00  0.00     0.101 C 
BRANCH   7   8
ATOM      8  C   UNL d   1     -39.523  14.613  20.404  0.00  0.00     0.283 C 
ATOM      9  N   UNL d   1     -39.052  14.388  21.037  0.00  0.00    -0.204 NA
ATOM     10  O   UNL d   1     -40.344  14.507  20.439  0.00  0.00    -0.265 OA
BRANCH   9  11
ATOM     11  C   UNL d   1     -39.394  14.055  21.712  0.00  0.00     0.127 C 
BRANCH  11  12
ATOM     12  C   UNL d   1     -38.934  13.872  22.369  0.00  0.00     0.119 A 
ATOM     13  O   UNL d   1     -38.706  14.386  22.970  0.00  0.00    -0.304 OA
ATOM     14  C   UNL d   1     -38.249  13.965  23.513  0.00  0.00     0.123 A 
ATOM     15  C   UNL d   1     -38.195  13.188  23.248  0.00  0.00     0.029 A 
ATOM     16  C   UNL d   1     -38.616  13.127  22.543  0.00  0.00     0.028 A 
ENDBRANCH  11  12
ENDBRANCH   9  11
ENDBRANCH   7   8
BRANCH   7  17
ATOM     17  C   UNL d   1     -38.925  15.736  19.742  0.00  0.00     0.129 C 
ATOM     18  N   UNL d   1     -38.174  15.912  20.029  0.00  0.00    -0.146 N 
ENDBRANCH   7  17
ENDBRANCH   1   7
BRANCH   2  19
ATOM     19  C   UNL d   1     -39.987  14.949  17.758  0.00  0.00     0.068 A 
ATOM     20  C   UNL d   1     -39.695  15.480  17.210  0.00  0.00     0.020 A 
ATOM     21  C   UNL d   1     -40.193  15.807  16.646  0.00  0.00     0.031 A 
ATOM     22  C   UNL d   1     -40.994  15.598  16.634  0.00  0.00     0.140 A 
ATOM     23  C   UNL d   1     -41.286  15.061  17.189  0.00  0.00     0.031 A 
ATOM     24  F   UNL d   1     -41.500  15.922  16.072  0.00  0.00    -0.204 F 
ATOM     25  C   UNL d   1     -40.785  14.736  17.750  0.00  0.00     0.020 A 
ENDBRANCH   2  19
BRANCH   5  26
ATOM     26  C   UNL d   1     -38.296  12.917  17.844  0.00  0.00     0.011 C 
ATOM     27  C   UNL d   1     -37.983  12.331  18.325  0.00  0.00     0.001 C 
ENDBRANCH   5  26
TORSDOF 7
ENDMDL
MODEL 3
REMARK VINA RESULT:      -5.3      1.330      2.051
REMARK  7 active torsions:
REMARK  status: ('A' for Active; 'I' for Inactive)
REMARK    1  A    between atoms: C_3  and  C_1 
REMARK    2  A    between atoms: C_9  and  N_2 
REMARK    3  A    between atoms: C_6  and  C_3 
REMARK    4  A    between atoms: C_8  and  C_3 
REMARK       I    between atoms: N_11  and  C_6 
REMARK    5  A    between atoms: C_26  and  C_7 
REMARK    6  A    between atoms: C_21  and  N_11 
REMARK    7  A    between atoms: C_12  and  C_21 
ROOT
ATOM      1  C   UNL d   1     -47.508  13.510  22.859  0.00  0.00     0.103 A 
ATOM      2  N   UNL d   1     -48.303  13.298  22.879  0.00  0.00    -0.269 N 
ATOM      3  S   UNL d   1     -47.465  14.330  22.771  0.00  0.00    -0.064 SA
ATOM      4  C   UNL d   1     -48.758  13.983  22.804  0.00  0.00     0.271 A 
ATOM      5  C   UNL d   1     -48.236  14.621  22.737  0.00  0.00     0.087 A 
ATOM      6  O   UNL d   1     -49.579  14.021  22.797  0.00  0.00    -0.266 OA
ENDROOT
BRANCH   1   7
ATOM      7  C   UNL d   1     -46.863  12.995  22.917  0.00  0.00     0.101 C 
BRANCH   7   8
ATOM      8  C   UNL d   1     -46.401  12.829  22.251  0.00  0.00     0.283 C 
ATOM      9  N   UNL d   1     -45.591  12.955  22.268  0.00  0.00    -0.204 NA
ATOM     10  O   UNL d   1     -46.762  12.535  21.565  0.00  0.00    -0.265 OA
BRANCH   9  11
ATOM     11  C   UNL d   1     -45.131  12.789  21.602  0.00  0.00     0.127 C 
BRANCH  11  12
ATOM     12  C   UNL d   1     -44.311  12.737  21.660  0.00  0.00     0.119 A 
ATOM     13  O   UNL d   1     -43.880  12.152  22.044  0.00  0.00    -0.304 OA
ATOM     14  C   UNL d   1     -43.077  12.323  21.961  0.00  0.00     0.123 A 
ATOM     15  C   UNL d   1     -43.012  13.017  21.523  0.00  0.00     0.029 A 
ATOM     16  C   UNL d   1     -43.770  13.275  21.335  0.00  0.00     0.028 A 
ENDBRANCH  11  12
ENDBRANCH   9  11
ENDBRANCH   7   8
BRANCH   7  17
ATOM     17  C   UNL d   1     -46.677  12.643  23.646  0.00  0.00     0.129 C 
ATOM     18  N   UNL d   1     -46.464  11.848  23.669  0.00  0.00    -0.146 N 
ENDBRANCH   7  17
ENDBRANCH   1   7
BRANCH   2  19
ATOM     19  C   UNL d   1     -48.986  12.835  22.927  0.00  0.00     0.068 A 
ATOM     20  C   UNL d   1     -49.327  12.677  23.651  0.00  0.00     0.020 A 
ATOM     21  C   UNL d   1     -50.005  12.218  23.698  0.00  0.00     0.031 A 
ATOM     22  C   UNL d   1     -50.343  11.913  23.005  0.00  0.00     0.140 A 
ATOM     23  C   UNL d   1     -49.996  12.074  22.274  0.00  0.00     0.031 A 
ATOM     24  F   UNL d   1     -51.023  11.451  23.043  0.00  0.00    -0.204 F 
ATOM     25  C   UNL d   1     -49.318  12.534  22.233  0.00  0.00     0.020 A 
ENDBRANCH   2  19
BRANCH   5  26
ATOM     26  C   UNL d   1     -48.457  15.412  22.651  0.00  0.00     0.011 C 
ATOM     27  C   UNL d   1     -48.073  15.890  22.107  0.00  0.00     0.001 C 
ENDBRANCH   5  26
TORSDOF 7
ENDMDL
MODEL 4
REMARK VINA RESULT:      -4.7      1.510      1.748
REMARK  7 active torsions:
REMARK  status: ('A' for Active; 'I' for Inactive)
REMARK    1  A    between atoms: C_3  and  C_1 
REMARK    2  A    between atoms: C_9  and  N_2 
REMARK    3  A    between atoms: C_6  and  C_3 
REMARK    4  A    between atoms: C_8  and  C_3 
REMARK       I    between atoms: N_11  and  C_6 
REMARK    5  A    between atoms: C_26  and  C_7 
REMARK    6  A    between atoms: C_21  and  N_11 
REMARK    7  A    between atoms: C_12  and  C_21 
ROOT
ATOM      1  C   UNL d   1     -48.481  12.748  22.760  0.00  0.00     0.103 A 
ATOM      2  N   UNL d   1     -49.133  13.244  22.830  0.00  0.00    -0.269 N 
ATOM      3  S   UNL d   1     -48.684  12.013  23.076  0.00  0.00    -0.064 SA
ATOM      4  C   UNL d   1     -49.745  12.822  23.191  0.00  0.00     0.271 A 
ATOM      5  C   UNL d   1     -49.463  12.059  23.341  0.00  0.00     0.087 A 
ATOM      6  O   UNL d   1     -50.495  13.109  23.366  0.00  0.00    -0.266 OA
ENDROOT
BRANCH   1   7
ATOM      7  C   UNL d   1     -47.748  12.948  22.429  0.00  0.00     0.101 C 
BRANCH   7   8
ATOM      8  C   UNL d   1     -47.066  12.944  22.896  0.00  0.00     0.283 C 
ATOM      9  N   UNL d   1     -46.567  12.294  22.893  0.00  0.00    -0.204 NA
ATOM     10  O   UNL d   1     -46.889  13.602  23.368  0.00  0.00    -0.265 OA
BRANCH   9  11
ATOM     11  C   UNL d   1     -45.885  12.291  23.361  0.00  0.00     0.127 C 
BRANCH  11  12
ATOM     12  C   UNL d   1     -45.397  11.629  23.388  0.00  0.00     0.119 A 
ATOM     13  O   UNL d   1     -44.620  11.578  23.124  0.00  0.00    -0.304 OA
ATOM     14  C   UNL d   1     -44.348  10.810  23.262  0.00  0.00     0.123 A 
ATOM     15  C   UNL d   1     -44.960  10.386  23.611  0.00  0.00     0.029 A 
ATOM     16  C   UNL d   1     -45.608  10.887  23.691  0.00  0.00     0.028 A 
ENDBRANCH  11  12
ENDBRANCH   9  11
ENDBRANCH   7   8
BRANCH   7  17
ATOM     17  C   UNL d   1     -47.698  13.153  21.626  0.00  0.00     0.129 C 
ATOM     18  N   UNL d   1     -47.246  12.688  21.118  0.00  0.00    -0.146 N 
ENDBRANCH   7  17
ENDBRANCH   1   7
BRANCH   2  19
ATOM     19  C   UNL d   1     -49.611  13.917  22.780  0.00  0.00     0.068 A 
ATOM     20  C   UNL d   1     -49.791  14.345  23.451  0.00  0.00     0.020 A 
ATOM     21  C   UNL d   1     -50.266  15.012  23.401  0.00  0.00     0.031 A 
ATOM     22  C   UNL d   1     -50.563  15.251  22.665  0.00  0.00     0.140 A 
ATOM     23  C   UNL d   1     -50.379  14.816  21.989  0.00  0.00     0.031 A 
ATOM     24  F   UNL d   1     -51.039  15.919  22.606  0.00  0.00    -0.204 F 
ATOM     25  C   UNL d   1     -49.905  14.150  22.044  0.00  0.00     0.020 A 
ENDBRANCH   2  19
BRANCH   5  26
ATOM     26  C   UNL d   1     -49.895  11.452  23.698  0.00  0.00     0.011 C 
ATOM     27  C   UNL d   1     -49.802  10.678  23.447  0.00  0.00     0.001 C 
ENDBRANCH   5  26
TORSDOF 7
ENDMDL
MODEL 5
REMARK VINA RESULT:      -4.3      5.471      8.382
REMARK  7 active torsions:
REMARK  status: ('A' for Active; 'I' for Inactive)
REMARK    1  A    between atoms: C_3  and  C_1 
REMARK    2  A    between atoms: C_9  and  N_2 
REMARK    3  A    between atoms: C_6  and  C_3 
REMARK    4  A    between atoms: C_8  and  C_3 
REMARK       I    between atoms: N_11  and  C_6 
REMARK    5  A    between atoms: C_26  and  C_7 
REMARK    6  A    between atoms: C_21  and  N_11 
REMARK    7  A    between atoms: C_12  and  C_21 
ROOT
ATOM      1  C   UNL d   1     -39.601  14.549  19.746  0.00  0.00     0.103 A 
ATOM      2  N   UNL d   1     -39.816  14.680  18.963  0.00  0.00    -0.269 N 
ATOM      3  S   UNL d   1     -38.900  14.114  19.749  0.00  0.00    -0.064 SA
ATOM      4  C   UNL d   1     -39.249  14.329  18.474  0.00  0.00     0.271 A 
ATOM      5  C   UNL d   1     -38.683  13.979  18.965  0.00  0.00     0.087 A 
ATOM      6  O   UNL d   1     -39.251  14.329  17.653  0.00  0.00    -0.266 OA
ENDROOT
BRANCH   1   7
ATOM      7  C   UNL d   1     -40.015  14.806  20.416  0.00  0.00     0.101 C 
BRANCH   7   8
ATOM      8  C   UNL d   1     -40.331  14.256  20.947  0.00  0.00     0.283 C 
ATOM      9  N   UNL d   1     -41.117  14.033  20.891  0.00  0.00    -0.204 NA
ATOM     10  O   UNL d   1     -39.847  13.931  21.536  0.00  0.00    -0.265 OA
BRANCH   9  11
ATOM     11  C   UNL d   1     -41.432  13.484  21.422  0.00  0.00     0.127 C 
BRANCH  11  12
ATOM     12  C   UNL d   1     -42.215  13.236  21.356  0.00  0.00     0.119 A 
ATOM     13  O   UNL d   1     -42.504  12.477  21.482  0.00  0.00    -0.304 OA
ATOM     14  C   UNL d   1     -43.320  12.485  21.353  0.00  0.00     0.123 A 
ATOM     15  C   UNL d   1     -43.535  13.251  21.147  0.00  0.00     0.029 A 
ATOM     16  C   UNL d   1     -42.857  13.718  21.148  0.00  0.00     0.028 A 
ENDBRANCH  11  12
ENDBRANCH   9  11
ENDBRANCH   7   8
BRANCH   7  17
ATOM     17  C   UNL d   1     -40.113  15.619  20.556  0.00  0.00     0.129 C 
ATOM     18  N   UNL d   1     -40.007  15.914  21.317  0.00  0.00    -0.146 N 
ENDBRANCH   7  17
ENDBRANCH   1   7
BRANCH   2  19
ATOM     19  C   UNL d   1     -40.240  14.942  18.303  0.00  0.00     0.068 A 
ATOM     20  C   UNL d   1     -40.857  14.498  18.007  0.00  0.00     0.020 A 
ATOM     21  C   UNL d   1     -41.277  14.758  17.353  0.00  0.00     0.031 A 
ATOM     22  C   UNL d   1     -41.073  15.475  16.992  0.00  0.00     0.140 A 
ATOM     23  C   UNL d   1     -40.448  15.922  17.293  0.00  0.00     0.031 A 
ATOM     24  F   UNL d   1     -41.490  15.743  16.334  0.00  0.00    -0.204 F 
ATOM     25  C   UNL d   1     -40.031  15.658  17.947  0.00  0.00     0.020 A 
ENDBRANCH   2  19
BRANCH   5  26
ATOM     26  C   UNL d   1     -38.017  13.566  18.705  0.00  0.00     0.011 C 
ATOM     27  C   UNL d   1     -37.982  12.751  18.781  0.00  0.00     0.001 C 
ENDBRANCH   5  26
TORSDOF 7
ENDMDL
MODEL 6
REMARK VINA RESULT:      -3.9      5.259      8.474
REMARK  7 active torsions:
REMARK  status: ('A' for Active; 'I' for Inactive)
REMARK    1  A    between atoms: C_3  and  C_1 
REMARK    2  A    between atoms: C_9  and  N_2 
REMARK    3  A    between atoms: C_6  and  C_3 
REMARK    4  A    between atoms: C_8  and  C_3 
REMARK       I    between atoms: N_11  and  C_6 
REMARK    5  A    between atoms: C_26  and  C_7 
REMARK    6  A    between atoms: C_21  and  N_11 
REMARK    7  A    between atoms: C_12  and  C_21 
ROOT
ATOM      1  C   UNL d   1     -40.032  14.458  20.905  0.00  0.00     0.103 A 
ATOM      2  N   UNL d   1     -39.444  14.603  20.348  0.00  0.00    -0.269 N 
ATOM      3  S   UNL d   1     -39.694  14.034  21.528  0.00  0.00    -0.064 SA
ATOM      4  C   UNL d   1     -38.739  14.271  20.620  0.00  0.00     0.271 A 
ATOM      5  C   UNL d   1     -38.897  13.920  21.352  0.00  0.00     0.087 A 
ATOM      6  O   UNL d   1     -38.014  14.289  20.234  0.00  0.00    -0.266 OA
ENDROOT
BRANCH   1   7
ATOM      7  C   UNL d   1     -40.824  14.694  20.854  0.00  0.00     0.101 C 
BRANCH   7   8
ATOM      8  C   UNL d   1     -41.395  14.175  20.557  0.00  0.00     0.283 C 
ATOM      9  N   UNL d   1     -41.889  13.769  21.069  0.00  0.00    -0.204 NA
ATOM     10  O   UNL d   1     -41.465  14.068  19.738  0.00  0.00    -0.265 OA
BRANCH   9  11
ATOM     11  C   UNL d   1     -42.460  13.249  20.772  0.00  0.00     0.127 C 
BRANCH  11  12
ATOM     12  C   UNL d   1     -42.996  12.881  21.276  0.00  0.00     0.119 A 
ATOM     13  O   UNL d   1     -42.836  12.273  21.807  0.00  0.00    -0.304 OA
ATOM     14  C   UNL d   1     -43.537  12.076  22.195  0.00  0.00     0.123 A 
ATOM     15  C   UNL d   1     -44.132  12.563  21.904  0.00  0.00     0.029 A 
ATOM     16  C   UNL d   1     -43.803  13.061  21.337  0.00  0.00     0.028 A 
ENDBRANCH  11  12
ENDBRANCH   9  11
ENDBRANCH   7   8
BRANCH   7  17
ATOM     17  C   UNL d   1     -41.046  15.456  21.100  0.00  0.00     0.129 C 
ATOM     18  N   UNL d   1     -41.613  15.871  20.671  0.00  0.00    -0.146 N 
ENDBRANCH   7  17
ENDBRANCH   1   7
BRANCH   2  19
ATOM     19  C   UNL d   1     -39.067  14.872  19.663  0.00  0.00     0.068 A 
ATOM     20  C   UNL d   1     -38.981  14.378  19.020  0.00  0.00     0.020 A 
ATOM     21  C   UNL d   1     -38.607  14.646  18.340  0.00  0.00     0.031 A 
ATOM     22  C   UNL d   1     -38.316  15.422  18.310  0.00  0.00     0.140 A 
ATOM     23  C   UNL d   1     -38.406  15.919  18.962  0.00  0.00     0.031 A 
ATOM     24  F   UNL d   1     -37.940  15.698  17.632  0.00  0.00    -0.204 F 
ATOM     25  C   UNL d   1     -38.780  15.647  19.638  0.00  0.00     0.020 A 
ENDBRANCH   2  19
BRANCH   5  26
ATOM     26  C   UNL d   1     -38.345  13.522  21.820  0.00  0.00     0.011 C 
ATOM     27  C   UNL d   1     -38.484  13.416  22.621  0.00  0.00     0.001 C 
ENDBRANCH   5  26
TORSDOF 7
ENDMDL
MODEL 7
REMARK VINA RESULT:      -3.5      1.955      4.300
REMARK  7 active torsions:
REMARK  status: ('A' for Active; 'I' for Inactive)
REMARK    1  A    between atoms: C_3  and  C_1 
REMARK    2  A    between atoms: C_9  and  N_2 
REMARK    3  A    between atoms: C_6  and  C_3 
REMARK    4  A    between atoms: C_8  and  C_3 
REMARK       I    between atoms: N_11  and  C_6 
REMARK    5  A    between atoms: C_26  and  C_7 
REMARK    6  A    between atoms: C_21  and  N_11 
REMARK    7  A    between atoms: C_12  and  C_21 
ROOT
ATOM      1  C   UNL d   1     -47.552  11.585  23.147  0.00  0.00     0.103 A 
ATOM      2  N   UNL d   1     -47.075  12.250  23.065  0.00  0.00    -0.269 N 
ATOM      3  S   UNL d   1     -47.067  10.946  23.344  0.00  0.00    -0.064 SA
ATOM      4  C   UNL d   1     -46.292  12.030  23.209  0.00  0.00     0.271 A 
ATOM      5  C   UNL d   1     -46.291  11.221  23.382  0.00  0.00     0.087 A 
ATOM      6  O   UNL d   1     -45.637  12.525  23.185  0.00  0.00    -0.266 OA
ENDROOT
BRANCH   1   7
ATOM      7  C   UNL d   1     -48.374  11.558  23.050  0.00  0.00     0.101 C 
BRANCH   7   8
ATOM      8  C   UNL d   1     -48.713  11.731  22.317  0.00  0.00     0.283 C 
ATOM      9  N   UNL d   1     -49.250  12.346  22.245  0.00  0.00    -0.204 NA
ATOM     10  O   UNL d   1     -48.507  11.279  21.653  0.00  0.00    -0.265 OA
BRANCH   9  11
ATOM     11  C   UNL d   1     -49.588  12.519  21.510  0.00  0.00     0.127 C 
BRANCH  11  12
ATOM     12  C   UNL d   1     -50.161  13.106  21.439  0.00  0.00     0.119 A 
ATOM     13  O   UNL d   1     -50.495  13.388  20.743  0.00  0.00    -0.304 OA
ATOM     14  C   UNL d   1     -51.043  13.974  20.936  0.00  0.00     0.123 A 
ATOM     15  C   UNL d   1     -51.047  14.056  21.754  0.00  0.00     0.029 A 
ATOM     16  C   UNL d   1     -50.504  13.523  22.069  0.00  0.00     0.028 A 
ENDBRANCH  11  12
ENDBRANCH   9  11
ENDBRANCH   7   8
BRANCH   7  17
ATOM     17  C   UNL d   1     -48.860  11.355  23.693  0.00  0.00     0.129 C 
ATOM     18  N   UNL d   1     -49.558  10.940  23.557  0.00  0.00    -0.146 N 
ENDBRANCH   7  17
ENDBRANCH   1   7
BRANCH   2  19
ATOM     19  C   UNL d   1     -46.842  13.031  22.927  0.00  0.00     0.068 A 
ATOM     20  C   UNL d   1     -46.449  13.229  22.239  0.00  0.00     0.020 A 
ATOM     21  C   UNL d   1     -46.218  14.004  22.103  0.00  0.00     0.031 A 
ATOM     22  C   UNL d   1     -46.386  14.588  22.667  0.00  0.00     0.140 A 
ATOM     23  C   UNL d   1     -46.783  14.385  23.361  0.00  0.00     0.031 A 
ATOM     24  F   UNL d   1     -46.157  15.368  22.538  0.00  0.00    -0.204 F 
ATOM     25  C   UNL d   1     -47.012  13.609  23.492  0.00  0.00     0.020 A 
ENDBRANCH   2  19
BRANCH   5  26
ATOM     26  C   UNL d   1     -45.621  10.772  23.562  0.00  0.00     0.011 C 
ATOM     27  C   UNL d   1     -45.625   9.961  23.445  0.00  0.00     0.001 C 
ENDBRANCH   5  26
TORSDOF 7
ENDMDL
