MODEL 1
REMARK VINA RESULT:      64.1      0.000      0.000
REMARK  3 active torsions:
REMARK  status: ('A' for Active; 'I' for Inactive)
REMARK    1  A    between atoms: C_2  and  C_1 
REMARK       I    between atoms: N_3  and  C_2 
REMARK    2  A    between atoms: C_21  and  N_4 
REMARK    3  A    between atoms: C_20  and  C_21 
ROOT
ATOM      1  C   UNL d   1      13.873  14.296  -3.308  0.00  0.00     0.255 C 
ATOM      2  N   UNL d   1      14.180  14.960  -3.731  0.00  0.00    -0.271 N 
ATOM      3  N   UNL d   1      14.786  16.268  -4.543  0.00  0.00    -0.300 N 
ATOM      4  O   UNL d   1      13.863  14.311  -2.543  0.00  0.00    -0.270 OA
ATOM      5  C   UNL d   1      14.466  15.615  -3.327  0.00  0.00     0.102 A 
ATOM      6  C   UNL d   1      14.197  14.955  -4.555  0.00  0.00     0.102 A 
ATOM      7  C   UNL d   1      14.501  15.611  -4.974  0.00  0.00     0.100 A 
ATOM      8  C   UNL d   1      14.769  16.271  -3.712  0.00  0.00     0.100 A 
ENDROOT
BRANCH   1   9
ATOM      9  C   UNL d   1      13.596  13.658  -3.712  0.00  0.00     0.137 A 
ATOM     10  C   UNL d   1      13.559  13.101  -3.115  0.00  0.00     0.033 A 
ATOM     11  C   UNL d   1      13.309  12.321  -3.196  0.00  0.00     0.046 A 
ATOM     12  C   UNL d   1      13.038  11.788  -3.716  0.00  0.00    -0.015 A 
ATOM     13  C   UNL d   1      13.081  12.048  -3.873  0.00  0.00    -0.022 A 
ATOM     14  C   UNL d   1      12.991  12.117  -4.387  0.00  0.00     0.027 A 
ATOM     15  C   UNL d   1      13.249  12.863  -4.220  0.00  0.00    -0.117 A 
ATOM     16  C   UNL d   1      12.769  11.934  -5.160  0.00  0.00     0.006 A 
ATOM     17  C   UNL d   1      13.123  12.735  -4.624  0.00  0.00    -0.006 A 
ATOM     18  C   UNL d   1      13.376  13.474  -4.472  0.00  0.00    -0.007 A 
ENDBRANCH   1   9
BRANCH   3  19
ATOM     19  C   UNL d   1      15.061  16.867  -4.795  0.00  0.00     0.080 C 
BRANCH  19  20
ATOM     20  C   UNL d   1      14.586  17.389  -5.211  0.00  0.00     0.020 A 
ATOM     21  C   UNL d   1      14.681  18.208  -5.134  0.00  0.00     0.028 A 
ATOM     22  C   UNL d   1      14.201  18.739  -5.554  0.00  0.00     0.119 A 
ATOM     23  O   UNL d   1      14.199  19.548  -5.561  0.00  0.00    -0.300 OA
ATOM     24  C   UNL d   1      13.608  18.458  -6.065  0.00  0.00     0.119 A 
ATOM     25  C   UNL d   1      13.589  19.819  -6.091  0.00  0.00     0.304 A 
ATOM     26  O   UNL d   1      13.240  19.125  -6.388  0.00  0.00    -0.300 OA
ATOM     27  C   UNL d   1      13.506  17.629  -6.146  0.00  0.00     0.026 A 
ATOM     28  C   UNL d   1      13.988  17.104  -5.726  0.00  0.00     0.004 A 
ENDBRANCH  19  20
ENDBRANCH   3  19
TORSDOF 3
ENDMDL
MODEL 2
REMARK VINA RESULT:      64.8      2.571      3.469
REMARK  3 active torsions:
REMARK  status: ('A' for Active; 'I' for Inactive)
REMARK    1  A    between atoms: C_2  and  C_1 
REMARK       I    between atoms: N_3  and  C_2 
REMARK    2  A    between atoms: C_21  and  N_4 
REMARK    3  A    between atoms: C_20  and  C_21 
ROOT
ATOM      1  C   UNL d   1      15.468  14.379  -0.407  0.00  0.00     0.255 C 
ATOM      2  N   UNL d   1      15.233  14.985  -0.947  0.00  0.00    -0.271 N 
ATOM      3  N   UNL d   1      14.786  16.181  -1.998  0.00  0.00    -0.300 N 
ATOM      4  O   UNL d   1      16.120  14.460  -0.014  0.00  0.00    -0.270 OA
ATOM      5  C   UNL d   1      15.697  15.655  -1.050  0.00  0.00     0.102 A 
ATOM      6  C   UNL d   1      14.533  14.909  -1.376  0.00  0.00     0.102 A 
ATOM      7  C   UNL d   1      14.300  15.508  -1.909  0.00  0.00     0.100 A 
ATOM      8  C   UNL d   1      15.491  16.256  -1.565  0.00  0.00     0.100 A 
ENDROOT
BRANCH   1   9
ATOM      9  C   UNL d   1      15.008  13.726  -0.313  0.00  0.00     0.137 A 
ATOM     10  C   UNL d   1      15.572  13.135  -0.328  0.00  0.00     0.033 A 
ATOM     11  C   UNL d   1      15.429  12.327  -0.255  0.00  0.00     0.046 A 
ATOM     12  C   UNL d   1      14.858  11.787  -0.157  0.00  0.00    -0.015 A 
ATOM     13  C   UNL d   1      14.719  12.059  -0.163  0.00  0.00    -0.022 A 
ATOM     14  C   UNL d   1      14.201  12.143  -0.116  0.00  0.00     0.027 A 
ATOM     15  C   UNL d   1      14.429  12.913  -0.195  0.00  0.00    -0.117 A 
ATOM     16  C   UNL d   1      13.399  11.970  -0.021  0.00  0.00     0.006 A 
ATOM     17  C   UNL d   1      14.008  12.790  -0.143  0.00  0.00    -0.006 A 
ATOM     18  C   UNL d   1      14.220  13.552  -0.220  0.00  0.00    -0.007 A 
ENDBRANCH   1   9
BRANCH   3  19
ATOM     19  C   UNL d   1      14.684  16.740  -2.418  0.00  0.00     0.080 C 
BRANCH  19  20
ATOM     20  C   UNL d   1      14.700  16.646  -3.231  0.00  0.00     0.020 A 
ATOM     21  C   UNL d   1      14.325  16.004  -3.595  0.00  0.00     0.028 A 
ATOM     22  C   UNL d   1      14.340  15.905  -4.419  0.00  0.00     0.119 A 
ATOM     23  O   UNL d   1      14.015  15.327  -4.882  0.00  0.00    -0.300 OA
ATOM     24  C   UNL d   1      14.736  16.454  -4.902  0.00  0.00     0.119 A 
ATOM     25  C   UNL d   1      14.197  15.491  -5.698  0.00  0.00     0.304 A 
ATOM     26  O   UNL d   1      14.643  16.193  -5.681  0.00  0.00    -0.300 OA
ATOM     27  C   UNL d   1      15.118  17.108  -4.539  0.00  0.00     0.026 A 
ATOM     28  C   UNL d   1      15.100  17.201  -3.718  0.00  0.00     0.004 A 
ENDBRANCH  19  20
ENDBRANCH   3  19
TORSDOF 3
ENDMDL
