MODEL 1
REMARK VINA RESULT:       0.2      0.000      0.000
REMARK  3 active torsions:
REMARK  status: ('A' for Active; 'I' for Inactive)
REMARK    1  A    between atoms: C_7  and  C_1 
REMARK    2  A    between atoms: C_10  and  N_2 
REMARK    3  A    between atoms: C_14  and  C_7 
ROOT
ATOM      1  C   UNL d   1      31.770  16.736 -24.125  0.00  0.00     0.155 A 
ATOM      2  N   UNL d   1      31.440  17.467 -24.340  0.00  0.00    -0.277 N 
ATOM      3  C   UNL d   1      30.637  17.516 -24.473  0.00  0.00     0.153 A 
ATOM      4  C   UNL d   1      30.158  16.843 -24.394  0.00  0.00     0.092 A 
ATOM      5  N   UNL d   1      31.293  16.066 -24.047  0.00  0.00    -0.190 NA
ATOM      6  C   UNL d   1      30.490  16.132 -24.184  0.00  0.00     0.283 A 
ATOM      7  N   UNL d   1      30.297  18.250 -24.689  0.00  0.00    -0.228 NA
ATOM      8  C   UNL d   1      29.342  16.908 -24.533  0.00  0.00     0.009 A 
ATOM      9  O   UNL d   1      30.005  15.463 -24.107  0.00  0.00    -0.265 OA
ATOM     10  C   UNL d   1      29.019  17.630 -24.744  0.00  0.00     0.019 A 
ATOM     11  C   UNL d   1      29.490  18.292 -24.821  0.00  0.00     0.083 A 
ATOM     12  C   UNL d   1      28.866  16.239 -24.454  0.00  0.00     0.000 C 
ATOM     13  C   UNL d   1      29.149  19.016 -25.036  0.00  0.00     0.021 C 
ENDROOT
BRANCH   2  14
ATOM     14  C   UNL d   1      31.913  18.131 -24.417  0.00  0.00     0.067 A 
ATOM     15  C   UNL d   1      31.822  18.756 -23.906  0.00  0.00     0.018 A 
ATOM     16  C   UNL d   1      32.299  19.428 -23.985  0.00  0.00     0.002 A 
ATOM     17  C   UNL d   1      32.866  19.470 -24.574  0.00  0.00     0.000 A 
ATOM     18  C   UNL d   1      32.953  18.825 -25.094  0.00  0.00     0.002 A 
ATOM     19  C   UNL d   1      32.479  18.159 -25.016  0.00  0.00     0.018 A 
ENDBRANCH   2  14
BRANCH   1  20
ATOM     20  C   UNL d   1      32.579  16.680 -23.990  0.00  0.00     0.080 C 
BRANCH  20  21
ATOM     21  C   UNL d   1      32.965  15.977 -23.799  0.00  0.00     0.199 C 
ATOM     22  O   UNL d   1      33.165  15.458 -24.504  0.00  0.00    -0.286 OA
ATOM     23  C   UNL d   1      33.232  15.658 -22.812  0.00  0.00     0.045 C 
ENDBRANCH  20  21
ENDBRANCH   1  20
TORSDOF 3
ENDMDL
MODEL 2
REMARK VINA RESULT:       0.9      4.217      5.770
REMARK  3 active torsions:
REMARK  status: ('A' for Active; 'I' for Inactive)
REMARK    1  A    between atoms: C_7  and  C_1 
REMARK    2  A    between atoms: C_10  and  N_2 
REMARK    3  A    between atoms: C_14  and  C_7 
ROOT
ATOM      1  C   UNL d   1      32.533  22.129 -21.415  0.00  0.00     0.155 A 
ATOM      2  N   UNL d   1      32.641  21.946 -22.218  0.00  0.00    -0.277 N 
ATOM      3  C   UNL d   1      32.815  21.178 -22.429  0.00  0.00     0.153 A 
ATOM      4  C   UNL d   1      32.882  20.589 -21.848  0.00  0.00     0.092 A 
ATOM      5  N   UNL d   1      32.599  21.543 -20.837  0.00  0.00    -0.190 NA
ATOM      6  C   UNL d   1      32.774  20.778 -21.066  0.00  0.00     0.283 A 
ATOM      7  N   UNL d   1      32.926  20.985 -23.236  0.00  0.00    -0.228 NA
ATOM      8  C   UNL d   1      33.060  19.811 -22.079  0.00  0.00     0.009 A 
ATOM      9  O   UNL d   1      32.842  20.184 -20.490  0.00  0.00    -0.265 OA
ATOM     10  C   UNL d   1      33.166  19.633 -22.870  0.00  0.00     0.019 A 
ATOM     11  C   UNL d   1      33.101  20.212 -23.441  0.00  0.00     0.083 A 
ATOM     12  C   UNL d   1      33.126  19.226 -21.501  0.00  0.00     0.000 C 
ATOM     13  C   UNL d   1      33.211  20.017 -24.239  0.00  0.00     0.021 C 
ENDROOT
BRANCH   2  14
ATOM     14  C   UNL d   1      32.575  22.527 -22.791  0.00  0.00     0.067 A 
ATOM     15  C   UNL d   1      33.239  22.913 -23.056  0.00  0.00     0.018 A 
ATOM     16  C   UNL d   1      33.173  23.500 -23.636  0.00  0.00     0.002 A 
ATOM     17  C   UNL d   1      32.442  23.699 -23.946  0.00  0.00     0.000 A 
ATOM     18  C   UNL d   1      31.765  23.298 -23.668  0.00  0.00     0.002 A 
ATOM     19  C   UNL d   1      31.832  22.716 -23.094  0.00  0.00     0.018 A 
ENDBRANCH   2  14
BRANCH   1  20
ATOM     20  C   UNL d   1      32.357  22.902 -21.195  0.00  0.00     0.080 C 
BRANCH  20  21
ATOM     21  C   UNL d   1      32.315  23.159 -20.413  0.00  0.00     0.199 C 
ATOM     22  O   UNL d   1      31.481  23.270 -20.101  0.00  0.00    -0.286 OA
ATOM     23  C   UNL d   1      33.152  23.358 -19.775  0.00  0.00     0.045 C 
ENDBRANCH  20  21
ENDBRANCH   1  20
TORSDOF 3
ENDMDL
MODEL 3
REMARK VINA RESULT:       2.0      1.193      2.918
REMARK  3 active torsions:
REMARK  status: ('A' for Active; 'I' for Inactive)
REMARK    1  A    between atoms: C_7  and  C_1 
REMARK    2  A    between atoms: C_10  and  N_2 
REMARK    3  A    between atoms: C_14  and  C_7 
ROOT
ATOM      1  C   UNL d   1      30.541  16.774 -24.153  0.00  0.00     0.155 A 
ATOM      2  N   UNL d   1      31.332  17.023 -24.190  0.00  0.00    -0.277 N 
ATOM      3  C   UNL d   1      31.498  17.783 -24.434  0.00  0.00     0.153 A 
ATOM      4  C   UNL d   1      30.882  18.299 -24.642  0.00  0.00     0.092 A 
ATOM      5  N   UNL d   1      29.928  17.287 -24.361  0.00  0.00    -0.190 NA
ATOM      6  C   UNL d   1      30.111  18.046 -24.603  0.00  0.00     0.283 A 
ATOM      7  N   UNL d   1      32.293  18.041 -24.473  0.00  0.00    -0.228 NA
ATOM      8  C   UNL d   1      31.067  19.070 -24.889  0.00  0.00     0.009 A 
ATOM      9  O   UNL d   1      29.501  18.568 -24.813  0.00  0.00    -0.265 OA
ATOM     10  C   UNL d   1      31.847  19.313 -24.924  0.00  0.00     0.019 A 
ATOM     11  C   UNL d   1      32.453  18.806 -24.719  0.00  0.00     0.083 A 
ATOM     12  C   UNL d   1      30.455  19.583 -25.096  0.00  0.00     0.000 C 
ATOM     13  C   UNL d   1      33.239  19.066 -24.760  0.00  0.00     0.021 C 
ENDROOT
BRANCH   2  14
ATOM     14  C   UNL d   1      31.940  16.513 -23.984  0.00  0.00     0.067 A 
ATOM     15  C   UNL d   1      32.134  16.409 -23.202  0.00  0.00     0.018 A 
ATOM     16  C   UNL d   1      32.749  15.894 -22.994  0.00  0.00     0.002 A 
ATOM     17  C   UNL d   1      33.164  15.487 -23.569  0.00  0.00     0.000 A 
ATOM     18  C   UNL d   1      32.958  15.599 -24.369  0.00  0.00     0.002 A 
ATOM     19  C   UNL d   1      32.349  16.110 -24.575  0.00  0.00     0.018 A 
ENDBRANCH   2  14
BRANCH   1  20
ATOM     20  C   UNL d   1      30.367  16.008 -23.908  0.00  0.00     0.080 C 
BRANCH  20  21
ATOM     21  C   UNL d   1      29.610  15.751 -23.708  0.00  0.00     0.199 C 
ATOM     22  O   UNL d   1      29.443  15.731 -22.826  0.00  0.00    -0.286 OA
ATOM     23  C   UNL d   1      28.848  15.453 -24.399  0.00  0.00     0.045 C 
ENDBRANCH  20  21
ENDBRANCH   1  20
TORSDOF 3
ENDMDL
