MODEL 1
REMARK VINA RESULT:      15.4      0.000      0.000
REMARK  3 active torsions:
REMARK  status: ('A' for Active; 'I' for Inactive)
REMARK    1  A    between atoms: N_2  and  S_1 
REMARK    2  A    between atoms: C_5  and  S_1 
REMARK    3  A    between atoms: S_9  and  C_3 
ROOT
ATOM      1  S   UNL d   1     -51.549  26.066  33.319  0.00  0.00     0.273 S 
ATOM      2  O   UNL d   1     -52.155  26.627  33.316  0.00  0.00    -0.200 OA
ATOM      3  O   UNL d   1     -51.170  26.789  33.313  0.00  0.00    -0.200 OA
ENDROOT
BRANCH   1   4
ATOM      4  N   UNL d   1     -50.801  25.714  33.321  0.00  0.00    -0.208 N 
ATOM      5  C   UNL d   1     -50.076  26.117  33.334  0.00  0.00     0.185 A 
ATOM      6  N   UNL d   1     -49.471  25.556  33.331  0.00  0.00    -0.219 NA
ATOM      7  C   UNL d   1     -49.823  24.808  33.315  0.00  0.00     0.121 A 
ATOM      8  C   UNL d   1     -50.640  24.900  33.309  0.00  0.00     0.114 A 
BRANCH   5   9
ATOM      9  S   UNL d   1     -49.979  26.941  33.348  0.00  0.00    -0.075 SA
ATOM     10  C   UNL d   1     -49.671  27.303  34.020  0.00  0.00     0.077 C 
ENDBRANCH   5   9
ENDBRANCH   1   4
BRANCH   1  11
ATOM     11  C   UNL d   1     -51.950  25.347  33.326  0.00  0.00     0.104 A 
ATOM     12  C   UNL d   1     -51.520  24.648  33.319  0.00  0.00     0.013 A 
ATOM     13  C   UNL d   1     -51.925  23.929  33.325  0.00  0.00     0.001 A 
ATOM     14  C   UNL d   1     -52.751  23.915  33.338  0.00  0.00     0.000 A 
ATOM     15  C   UNL d   1     -53.174  24.624  33.345  0.00  0.00     0.001 A 
ATOM     16  C   UNL d   1     -53.152  23.196  33.345  0.00  0.00     0.000 C 
ATOM     17  C   UNL d   1     -52.768  25.342  33.339  0.00  0.00     0.013 A 
ENDBRANCH   1  11
TORSDOF 3
ENDMDL
