MODEL 1
REMARK VINA RESULT:      -5.8      0.000      0.000
REMARK  4 active torsions:
REMARK  status: ('A' for Active; 'I' for Inactive)
REMARK       I    between atoms: C_4  and  N_10 
REMARK    1  A    between atoms: C_7  and  C_4 
REMARK    2  A    between atoms: C_11  and  C_5 
REMARK    3  A    between atoms: N_10  and  C_13 
REMARK    4  A    between atoms: C_13  and  C_11 
ROOT
ATOM      1  C   UNL d   1     -41.395-122.482 -52.609  0.00  0.00     0.279 C 
ATOM      2  O   UNL d   1     -41.127-121.736 -52.381  0.00  0.00    -0.265 OA
ATOM      3  N   UNL d   1     -41.612-123.040 -52.036  0.00  0.00    -0.206 NA
ENDROOT
BRANCH   1   4
ATOM      4  C   UNL d   1     -41.449-122.680 -53.425  0.00  0.00     0.058 A 
ATOM      5  C   UNL d   1     -41.825-122.167 -53.950  0.00  0.00     0.005 A 
ATOM      6  C   UNL d   1     -41.880-122.352 -54.741  0.00  0.00     0.000 A 
ATOM      7  C   UNL d   1     -42.259-121.830 -55.256  0.00  0.00     0.000 C 
ATOM      8  C   UNL d   1     -41.559-123.057 -55.017  0.00  0.00     0.000 A 
ATOM      9  C   UNL d   1     -41.182-123.576 -54.504  0.00  0.00     0.000 A 
ATOM     10  C   UNL d   1     -41.123-123.395 -53.706  0.00  0.00     0.005 A 
ENDBRANCH   1   4
BRANCH   3  11
ATOM     11  C   UNL d   1     -41.561-122.852 -51.249  0.00  0.00     0.104 C 
BRANCH  11  12
ATOM     12  C   UNL d   1     -41.598-123.452 -50.678  0.00  0.00     0.040 C 
BRANCH  12  13
ATOM     13  C   UNL d   1     -41.878-123.290 -49.935  0.00  0.00     0.090 A 
ATOM     14  N   UNL d   1     -41.397-123.403 -49.269  0.00  0.00    -0.238 NA
ATOM     15  C   UNL d   1     -41.824-123.195 -48.603  0.00  0.00     0.111 A 
ATOM     16  S   UNL d   1     -42.569-122.953 -48.840  0.00  0.00    -0.066 SA
ATOM     17  C   UNL d   1     -41.558-123.222 -47.808  0.00  0.00     0.028 C 
ATOM     18  C   UNL d   1     -42.609-123.009 -49.664  0.00  0.00     0.056 A 
ENDBRANCH  12  13
ENDBRANCH  11  12
ENDBRANCH   3  11
TORSDOF 4
ENDMDL
MODEL 2
REMARK VINA RESULT:      -5.4      1.672      4.811
REMARK  4 active torsions:
REMARK  status: ('A' for Active; 'I' for Inactive)
REMARK       I    between atoms: C_4  and  N_10 
REMARK    1  A    between atoms: C_7  and  C_4 
REMARK    2  A    between atoms: C_11  and  C_5 
REMARK    3  A    between atoms: N_10  and  C_13 
REMARK    4  A    between atoms: C_13  and  C_11 
ROOT
ATOM      1  C   UNL d   1     -42.127-122.467 -50.660  0.00  0.00     0.279 C 
ATOM      2  O   UNL d   1     -42.772-121.975 -50.809  0.00  0.00    -0.265 OA
ATOM      3  N   UNL d   1     -41.592-122.649 -51.266  0.00  0.00    -0.206 NA
ENDROOT
BRANCH   1   4
ATOM      4  C   UNL d   1     -42.011-122.788 -49.891  0.00  0.00     0.058 A 
ATOM      5  C   UNL d   1     -42.642-123.136 -49.489  0.00  0.00     0.005 A 
ATOM      6  C   UNL d   1     -42.535-123.448 -48.745  0.00  0.00     0.000 A 
ATOM      7  C   UNL d   1     -43.174-123.793 -48.353  0.00  0.00     0.000 C 
ATOM      8  C   UNL d   1     -41.793-123.416 -48.392  0.00  0.00     0.000 A 
ATOM      9  C   UNL d   1     -41.158-123.072 -48.783  0.00  0.00     0.000 A 
ATOM     10  C   UNL d   1     -41.258-122.755 -49.533  0.00  0.00     0.005 A 
ENDBRANCH   1   4
BRANCH   3  11
ATOM     11  C   UNL d   1     -41.702-122.341 -52.008  0.00  0.00     0.104 C 
BRANCH  11  12
ATOM     12  C   UNL d   1     -41.125-122.455 -52.592  0.00  0.00     0.040 C 
BRANCH  12  13
ATOM     13  C   UNL d   1     -41.345-122.582 -53.362  0.00  0.00     0.090 A 
ATOM     14  N   UNL d   1     -41.725-121.986 -53.796  0.00  0.00    -0.238 NA
ATOM     15  C   UNL d   1     -41.877-122.271 -54.548  0.00  0.00     0.111 A 
ATOM     16  S   UNL d   1     -41.599-123.040 -54.594  0.00  0.00    -0.066 SA
ATOM     17  C   UNL d   1     -42.254-121.859 -55.174  0.00  0.00     0.028 C 
ATOM     18  C   UNL d   1     -41.268-123.238 -53.863  0.00  0.00     0.056 A 
ENDBRANCH  12  13
ENDBRANCH  11  12
ENDBRANCH   3  11
TORSDOF 4
ENDMDL
MODEL 3
REMARK VINA RESULT:      -3.8      1.685      4.796
REMARK  4 active torsions:
REMARK  status: ('A' for Active; 'I' for Inactive)
REMARK       I    between atoms: C_4  and  N_10 
REMARK    1  A    between atoms: C_7  and  C_4 
REMARK    2  A    between atoms: C_11  and  C_5 
REMARK    3  A    between atoms: N_10  and  C_13 
REMARK    4  A    between atoms: C_13  and  C_11 
ROOT
ATOM      1  C   UNL d   1     -42.510-122.394 -50.615  0.00  0.00     0.279 C 
ATOM      2  O   UNL d   1     -42.692-121.590 -50.639  0.00  0.00    -0.265 OA
ATOM      3  N   UNL d   1     -42.113-122.751 -51.249  0.00  0.00    -0.206 NA
ENDROOT
BRANCH   1   4
ATOM      4  C   UNL d   1     -42.728-122.856 -49.946  0.00  0.00     0.058 A 
ATOM      5  C   UNL d   1     -42.152-123.108 -49.413  0.00  0.00     0.005 A 
ATOM      6  C   UNL d   1     -42.356-123.554 -48.764  0.00  0.00     0.000 A 
ATOM      7  C   UNL d   1     -41.770-123.800 -48.238  0.00  0.00     0.000 C 
ATOM      8  C   UNL d   1     -43.144-123.756 -48.640  0.00  0.00     0.000 A 
ATOM      9  C   UNL d   1     -43.727-123.511 -49.165  0.00  0.00     0.000 A 
ATOM     10  C   UNL d   1     -43.528-123.061 -49.820  0.00  0.00     0.005 A 
ENDBRANCH   1   4
BRANCH   3  11
ATOM     11  C   UNL d   1     -41.902-122.308 -51.894  0.00  0.00     0.104 C 
BRANCH  11  12
ATOM     12  C   UNL d   1     -41.243-122.526 -52.347  0.00  0.00     0.040 C 
BRANCH  12  13
ATOM     13  C   UNL d   1     -41.320-122.647 -53.145  0.00  0.00     0.090 A 
ATOM     14  N   UNL d   1     -41.526-122.021 -53.649  0.00  0.00    -0.238 NA
ATOM     15  C   UNL d   1     -41.561-122.307 -54.415  0.00  0.00     0.111 A 
ATOM     16  S   UNL d   1     -41.379-123.106 -54.401  0.00  0.00    -0.066 SA
ATOM     17  C   UNL d   1     -41.749-121.869 -55.105  0.00  0.00     0.028 C 
ATOM     18  C   UNL d   1     -41.229-123.322 -53.618  0.00  0.00     0.056 A 
ENDBRANCH  12  13
ENDBRANCH  11  12
ENDBRANCH   3  11
TORSDOF 4
ENDMDL
