MODEL 1
REMARK VINA RESULT:      75.6      0.000      0.000
REMARK  5 active torsions:
REMARK  status: ('A' for Active; 'I' for Inactive)
REMARK    1  A    between atoms: N_2  and  S_1 
REMARK    2  A    between atoms: C_3  and  S_1 
REMARK    3  A    between atoms: C_10  and  C_3 
REMARK    4  A    between atoms: C_9  and  N_4 
REMARK    5  A    between atoms: C_16  and  C_10 
ROOT
ATOM      1  N   UNL d   1      60.574  47.969  50.645  0.00  0.00    -0.226 N 
ATOM      2  N   UNL d   1      61.386  46.672  50.071  0.00  0.00    -0.301 N 
ATOM      3  C   UNL d   1      60.960  48.023  49.926  0.00  0.00     0.111 A 
ATOM      4  C   UNL d   1      60.587  47.270  51.086  0.00  0.00     0.111 A 
ATOM      5  C   UNL d   1      61.371  47.372  49.632  0.00  0.00     0.100 A 
ATOM      6  C   UNL d   1      60.995  46.614  50.799  0.00  0.00     0.100 A 
ENDROOT
BRANCH   1   7
ATOM      7  S   UNL d   1      60.157  48.639  50.938  0.00  0.00     0.272 S 
ATOM      8  O   UNL d   1      60.277  48.371  51.712  0.00  0.00    -0.200 OA
ATOM      9  O   UNL d   1      60.040  48.906  50.151  0.00  0.00    -0.200 OA
BRANCH   7  10
ATOM     10  C   UNL d   1      59.742  49.308  51.219  0.00  0.00     0.116 C 
BRANCH  10  11
ATOM     11  C   UNL d   1      59.225  49.704  50.709  0.00  0.00     0.014 C 
BRANCH  11  12
ATOM     12  C   UNL d   1      58.418  49.704  50.876  0.00  0.00     0.001 A 
ATOM     13  C   UNL d   1      57.846  49.702  50.249  0.00  0.00     0.000 A 
ATOM     14  C   UNL d   1      57.038  49.702  50.428  0.00  0.00     0.000 A 
ATOM     15  C   UNL d   1      56.794  49.703  51.236  0.00  0.00     0.000 A 
ATOM     16  C   UNL d   1      57.344  49.705  51.838  0.00  0.00     0.000 A 
ATOM     17  C   UNL d   1      58.159  49.705  51.650  0.00  0.00     0.000 A 
ENDBRANCH  11  12
ENDBRANCH  10  11
ENDBRANCH   7  10
ENDBRANCH   1   7
BRANCH   2  18
ATOM     18  C   UNL d   1      61.802  46.013  49.771  0.00  0.00     0.064 A 
ATOM     19  C   UNL d   1      62.422  46.124  49.242  0.00  0.00     0.020 A 
ATOM     20  C   UNL d   1      62.828  45.469  48.951  0.00  0.00     0.031 A 
ATOM     21  C   UNL d   1      62.613  44.714  49.190  0.00  0.00     0.140 A 
ATOM     22  C   UNL d   1      61.987  44.595  49.725  0.00  0.00     0.031 A 
ATOM     23  F   UNL d   1      63.030  44.036  48.891  0.00  0.00    -0.204 F 
ATOM     24  C   UNL d   1      61.582  45.253  50.015  0.00  0.00     0.020 A 
ENDBRANCH   2  18
TORSDOF 5
ENDMDL
MODEL 2
REMARK VINA RESULT:      77.7      0.671      1.212
REMARK  5 active torsions:
REMARK  status: ('A' for Active; 'I' for Inactive)
REMARK    1  A    between atoms: N_2  and  S_1 
REMARK    2  A    between atoms: C_3  and  S_1 
REMARK    3  A    between atoms: C_10  and  C_3 
REMARK    4  A    between atoms: C_9  and  N_4 
REMARK    5  A    between atoms: C_16  and  C_10 
ROOT
ATOM      1  N   UNL d   1      59.998  48.361  50.666  0.00  0.00    -0.226 N 
ATOM      2  N   UNL d   1      60.880  47.039  50.288  0.00  0.00    -0.301 N 
ATOM      3  C   UNL d   1      59.726  47.621  50.885  0.00  0.00     0.111 A 
ATOM      4  C   UNL d   1      60.710  48.452  50.257  0.00  0.00     0.111 A 
ATOM      5  C   UNL d   1      60.167  46.951  50.697  0.00  0.00     0.100 A 
ATOM      6  C   UNL d   1      61.157  47.787  50.064  0.00  0.00     0.100 A 
ENDROOT
BRANCH   1   7
ATOM      7  S   UNL d   1      59.540  49.040  50.863  0.00  0.00     0.272 S 
ATOM      8  O   UNL d   1      60.036  49.507  50.392  0.00  0.00    -0.200 OA
ATOM      9  O   UNL d   1      59.041  48.562  51.338  0.00  0.00    -0.200 OA
BRANCH   7  10
ATOM     10  C   UNL d   1      59.080  49.708  51.064  0.00  0.00     0.116 C 
BRANCH  10  11
ATOM     11  C   UNL d   1      58.328  49.595  51.389  0.00  0.00     0.014 C 
BRANCH  11  12
ATOM     12  C   UNL d   1      57.668  49.631  50.896  0.00  0.00     0.001 A 
ATOM     13  C   UNL d   1      56.885  49.647  51.222  0.00  0.00     0.000 A 
ATOM     14  C   UNL d   1      56.229  49.683  50.718  0.00  0.00     0.000 A 
ATOM     15  C   UNL d   1      56.351  49.703  49.883  0.00  0.00     0.000 A 
ATOM     16  C   UNL d   1      57.104  49.687  49.570  0.00  0.00     0.000 A 
ATOM     17  C   UNL d   1      57.762  49.651  50.086  0.00  0.00     0.000 A 
ENDBRANCH  11  12
ENDBRANCH  10  11
ENDBRANCH   7  10
ENDBRANCH   1   7
BRANCH   2  18
ATOM     18  C   UNL d   1      61.326  46.359  50.097  0.00  0.00     0.064 A 
ATOM     19  C   UNL d   1      61.854  46.376  49.467  0.00  0.00     0.020 A 
ATOM     20  C   UNL d   1      62.291  45.702  49.285  0.00  0.00     0.031 A 
ATOM     21  C   UNL d   1      62.196  45.020  49.732  0.00  0.00     0.140 A 
ATOM     22  C   UNL d   1      61.664  44.996  50.371  0.00  0.00     0.031 A 
ATOM     23  F   UNL d   1      62.646  44.322  49.547  0.00  0.00    -0.204 F 
ATOM     24  C   UNL d   1      61.228  45.673  50.551  0.00  0.00     0.020 A 
ENDBRANCH   2  18
TORSDOF 5
ENDMDL
