MODEL 1
REMARK VINA RESULT:      -9.4      0.000      0.000
REMARK  6 active torsions:
REMARK  status: ('A' for Active; 'I' for Inactive)
REMARK    1  A    between atoms: C_10  and  C_2 
REMARK    2  A    between atoms: S_12  and  C_7 
REMARK    3  A    between atoms: C_11  and  C_14 
REMARK    4  A    between atoms: O_15  and  C_11 
REMARK    5  A    between atoms: C_14  and  S_12 
REMARK    6  A    between atoms: C_18  and  O_15 
ROOT
ATOM      1  N   UNL d   1      53.093  33.823  53.909  0.00  0.00    -0.191 N 
ATOM      2  C   UNL d   1      52.553  34.410  53.719  0.00  0.00     0.187 A 
ATOM      3  N   UNL d   1      52.748  35.079  54.151  0.00  0.00    -0.127 NA
ATOM      4  C   UNL d   1      53.627  34.116  54.456  0.00  0.00     0.187 A 
ATOM      5  N   UNL d   1      53.170  33.031  53.644  0.00  0.00    -0.156 NA
ATOM      6  N   UNL d   1      53.413  34.906  54.610  0.00  0.00    -0.127 NA
ATOM      7  C   UNL d   1      53.778  32.554  53.933  0.00  0.00     0.131 A 
ATOM      8  C   UNL d   1      54.236  33.639  54.745  0.00  0.00     0.043 A 
ATOM      9  C   UNL d   1      54.311  32.859  54.484  0.00  0.00     0.031 A 
ENDROOT
BRANCH   7  10
ATOM     10  S   UNL d   1      53.853  31.774  53.672  0.00  0.00    -0.060 SA
BRANCH  10  11
ATOM     11  C   UNL d   1      53.359  31.190  53.977  0.00  0.00     0.105 C 
BRANCH  11  12
ATOM     12  C   UNL d   1      53.397  30.430  53.683  0.00  0.00     0.307 C 
ATOM     13  O   UNL d   1      53.167  30.274  52.905  0.00  0.00    -0.258 OA
BRANCH  12  14
ATOM     14  O   UNL d   1      53.666  29.822  54.166  0.00  0.00    -0.271 OA
BRANCH  14  15
ATOM     15  C   UNL d   1      53.204  29.137  54.267  0.00  0.00     0.126 C 
ATOM     16  C   UNL d   1      53.409  28.593  54.838  0.00  0.00     0.029 C 
ENDBRANCH  14  15
ENDBRANCH  12  14
ENDBRANCH  11  12
ENDBRANCH  10  11
ENDBRANCH   7  10
BRANCH   2  17
ATOM     17  C   UNL d   1      51.927  34.347  53.194  0.00  0.00     0.038 A 
ATOM     18  C   UNL d   1      52.051  34.435  52.389  0.00  0.00     0.003 A 
ATOM     19  C   UNL d   1      51.420  34.372  51.857  0.00  0.00     0.000 A 
ATOM     20  C   UNL d   1      50.660  34.220  52.147  0.00  0.00     0.000 A 
ATOM     21  C   UNL d   1      50.531  34.131  52.957  0.00  0.00     0.000 A 
ATOM     22  C   UNL d   1      51.167  34.195  53.484  0.00  0.00     0.003 A 
ENDBRANCH   2  17
TORSDOF 6
ENDMDL
MODEL 2
REMARK VINA RESULT:      -8.4      2.371      4.476
REMARK  6 active torsions:
REMARK  status: ('A' for Active; 'I' for Inactive)
REMARK    1  A    between atoms: C_10  and  C_2 
REMARK    2  A    between atoms: S_12  and  C_7 
REMARK    3  A    between atoms: C_11  and  C_14 
REMARK    4  A    between atoms: O_15  and  C_11 
REMARK    5  A    between atoms: C_14  and  S_12 
REMARK    6  A    between atoms: C_18  and  O_15 
ROOT
ATOM      1  N   UNL d   1      53.168  32.375  53.598  0.00  0.00    -0.191 N 
ATOM      2  C   UNL d   1      53.864  32.231  54.007  0.00  0.00     0.187 A 
ATOM      3  N   UNL d   1      54.048  31.437  53.916  0.00  0.00    -0.127 NA
ATOM      4  C   UNL d   1      52.912  31.679  53.249  0.00  0.00     0.187 A 
ATOM      5  N   UNL d   1      52.719  33.076  53.494  0.00  0.00    -0.156 NA
ATOM      6  N   UNL d   1      53.464  31.088  53.448  0.00  0.00    -0.127 NA
ATOM      7  C   UNL d   1      52.027  33.061  53.045  0.00  0.00     0.131 A 
ATOM      8  C   UNL d   1      52.220  31.665  52.800  0.00  0.00     0.043 A 
ATOM      9  C   UNL d   1      51.777  32.355  52.698  0.00  0.00     0.031 A 
ENDROOT
BRANCH   7  10
ATOM     10  S   UNL d   1      51.585  33.752  52.943  0.00  0.00    -0.060 SA
BRANCH  10  11
ATOM     11  C   UNL d   1      50.762  33.714  52.931  0.00  0.00     0.105 C 
BRANCH  11  12
ATOM     12  C   UNL d   1      50.326  34.381  52.756  0.00  0.00     0.307 C 
ATOM     13  O   UNL d   1      50.344  35.033  53.262  0.00  0.00    -0.258 OA
BRANCH  12  14
ATOM     14  O   UNL d   1      49.870  34.399  52.073  0.00  0.00    -0.271 OA
BRANCH  14  15
ATOM     15  C   UNL d   1      49.136  34.793  52.074  0.00  0.00     0.126 C 
ATOM     16  C   UNL d   1      48.670  34.779  51.406  0.00  0.00     0.029 C 
ENDBRANCH  14  15
ENDBRANCH  12  14
ENDBRANCH  11  12
ENDBRANCH  10  11
ENDBRANCH   7  10
BRANCH   2  17
ATOM     17  C   UNL d   1      54.303  32.776  54.433  0.00  0.00     0.038 A 
ATOM     18  C   UNL d   1      54.154  32.897  55.229  0.00  0.00     0.003 A 
ATOM     19  C   UNL d   1      54.595  33.447  55.662  0.00  0.00     0.000 A 
ATOM     20  C   UNL d   1      55.192  33.875  55.280  0.00  0.00     0.000 A 
ATOM     21  C   UNL d   1      55.346  33.757  54.479  0.00  0.00     0.000 A 
ATOM     22  C   UNL d   1      54.899  33.205  54.052  0.00  0.00     0.003 A 
ENDBRANCH   2  17
TORSDOF 6
ENDMDL
MODEL 3
REMARK VINA RESULT:      -8.2      0.895      2.550
REMARK  6 active torsions:
REMARK  status: ('A' for Active; 'I' for Inactive)
REMARK    1  A    between atoms: C_10  and  C_2 
REMARK    2  A    between atoms: S_12  and  C_7 
REMARK    3  A    between atoms: C_11  and  C_14 
REMARK    4  A    between atoms: O_15  and  C_11 
REMARK    5  A    between atoms: C_14  and  S_12 
REMARK    6  A    between atoms: C_18  and  O_15 
ROOT
ATOM      1  N   UNL d   1      52.891  33.623  53.657  0.00  0.00    -0.191 N 
ATOM      2  C   UNL d   1      53.303  34.146  54.134  0.00  0.00     0.187 A 
ATOM      3  N   UNL d   1      52.910  34.865  54.117  0.00  0.00    -0.127 NA
ATOM      4  C   UNL d   1      52.241  34.005  53.337  0.00  0.00     0.187 A 
ATOM      5  N   UNL d   1      53.029  32.818  53.464  0.00  0.00    -0.156 NA
ATOM      6  N   UNL d   1      52.251  34.787  53.625  0.00  0.00    -0.127 NA
ATOM      7  C   UNL d   1      52.513  32.419  52.958  0.00  0.00     0.131 A 
ATOM      8  C   UNL d   1      51.725  33.606  52.832  0.00  0.00     0.043 A 
ATOM      9  C   UNL d   1      51.861  32.814  52.642  0.00  0.00     0.031 A 
ENDROOT
BRANCH   7  10
ATOM     10  S   UNL d   1      52.649  31.626  52.769  0.00  0.00    -0.060 SA
BRANCH  10  11
ATOM     11  C   UNL d   1      52.555  31.045  53.345  0.00  0.00     0.105 C 
BRANCH  11  12
ATOM     12  C   UNL d   1      52.899  30.313  53.245  0.00  0.00     0.307 C 
ATOM     13  O   UNL d   1      52.845  29.924  52.518  0.00  0.00    -0.258 OA
BRANCH  12  14
ATOM     14  O   UNL d   1      53.301  29.964  53.871  0.00  0.00    -0.271 OA
BRANCH  14  15
ATOM     15  C   UNL d   1      53.125  29.181  54.092  0.00  0.00     0.126 C 
ATOM     16  C   UNL d   1      53.433  28.879  54.784  0.00  0.00     0.029 C 
ENDBRANCH  14  15
ENDBRANCH  12  14
ENDBRANCH  11  12
ENDBRANCH  10  11
ENDBRANCH   7  10
BRANCH   2  17
ATOM     17  C   UNL d   1      53.987  33.987  54.558  0.00  0.00     0.038 A 
ATOM     18  C   UNL d   1      54.722  34.101  54.216  0.00  0.00     0.003 A 
ATOM     19  C   UNL d   1      55.414  33.941  54.641  0.00  0.00     0.000 A 
ATOM     20  C   UNL d   1      55.355  33.664  55.419  0.00  0.00     0.000 A 
ATOM     21  C   UNL d   1      54.616  33.547  55.767  0.00  0.00     0.000 A 
ATOM     22  C   UNL d   1      53.928  33.709  55.335  0.00  0.00     0.003 A 
ENDBRANCH   2  17
TORSDOF 6
ENDMDL
MODEL 4
REMARK VINA RESULT:      -8.2      2.149      4.247
REMARK  6 active torsions:
REMARK  status: ('A' for Active; 'I' for Inactive)
REMARK    1  A    between atoms: C_10  and  C_2 
REMARK    2  A    between atoms: S_12  and  C_7 
REMARK    3  A    between atoms: C_11  and  C_14 
REMARK    4  A    between atoms: O_15  and  C_11 
REMARK    5  A    between atoms: C_14  and  S_12 
REMARK    6  A    between atoms: C_18  and  O_15 
ROOT
ATOM      1  N   UNL d   1      53.214  32.816  53.561  0.00  0.00    -0.191 N 
ATOM      2  C   UNL d   1      53.664  32.132  53.593  0.00  0.00     0.187 A 
ATOM      3  N   UNL d   1      54.443  32.350  53.726  0.00  0.00    -0.127 NA
ATOM      4  C   UNL d   1      53.702  33.464  53.673  0.00  0.00     0.187 A 
ATOM      5  N   UNL d   1      52.392  32.936  53.440  0.00  0.00    -0.156 NA
ATOM      6  N   UNL d   1      54.475  33.174  53.777  0.00  0.00    -0.127 NA
ATOM      7  C   UNL d   1      52.082  33.701  53.434  0.00  0.00     0.131 A 
ATOM      8  C   UNL d   1      53.392  34.229  53.667  0.00  0.00     0.043 A 
ATOM      9  C   UNL d   1      52.583  34.347  53.548  0.00  0.00     0.031 A 
ENDROOT
BRANCH   7  10
ATOM     10  S   UNL d   1      51.274  33.819  53.315  0.00  0.00    -0.060 SA
BRANCH  10  11
ATOM     11  C   UNL d   1      51.008  34.155  52.612  0.00  0.00     0.105 C 
BRANCH  11  12
ATOM     12  C   UNL d   1      50.219  34.342  52.522  0.00  0.00     0.307 C 
ATOM     13  O   UNL d   1      49.788  34.641  53.160  0.00  0.00    -0.258 OA
BRANCH  12  14
ATOM     14  O   UNL d   1      49.855  34.230  51.793  0.00  0.00    -0.271 OA
BRANCH  14  15
ATOM     15  C   UNL d   1      49.175  34.668  51.597  0.00  0.00     0.126 C 
ATOM     16  C   UNL d   1      48.829  34.569  50.866  0.00  0.00     0.029 C 
ENDBRANCH  14  15
ENDBRANCH  12  14
ENDBRANCH  11  12
ENDBRANCH  10  11
ENDBRANCH   7  10
BRANCH   2  17
ATOM     17  C   UNL d   1      53.392  31.363  53.508  0.00  0.00     0.038 A 
ATOM     18  C   UNL d   1      53.173  31.080  52.771  0.00  0.00     0.003 A 
ATOM     19  C   UNL d   1      52.899  30.305  52.683  0.00  0.00     0.000 A 
ATOM     20  C   UNL d   1      52.848  29.815  53.348  0.00  0.00     0.000 A 
ATOM     21  C   UNL d   1      53.068  30.096  54.092  0.00  0.00     0.000 A 
ATOM     22  C   UNL d   1      53.342  30.874  54.173  0.00  0.00     0.003 A 
ENDBRANCH   2  17
TORSDOF 6
ENDMDL
MODEL 5
REMARK VINA RESULT:      -6.5      2.018      3.335
REMARK  6 active torsions:
REMARK  status: ('A' for Active; 'I' for Inactive)
REMARK    1  A    between atoms: C_10  and  C_2 
REMARK    2  A    between atoms: S_12  and  C_7 
REMARK    3  A    between atoms: C_11  and  C_14 
REMARK    4  A    between atoms: O_15  and  C_11 
REMARK    5  A    between atoms: C_14  and  S_12 
REMARK    6  A    between atoms: C_18  and  O_15 
ROOT
ATOM      1  N   UNL d   1      52.823  32.201  53.245  0.00  0.00    -0.191 N 
ATOM      2  C   UNL d   1      52.119  32.290  52.834  0.00  0.00     0.187 A 
ATOM      3  N   UNL d   1      51.945  31.572  52.478  0.00  0.00    -0.127 NA
ATOM      4  C   UNL d   1      53.094  31.435  53.151  0.00  0.00     0.187 A 
ATOM      5  N   UNL d   1      53.267  32.741  53.709  0.00  0.00    -0.156 NA
ATOM      6  N   UNL d   1      52.544  31.037  52.669  0.00  0.00    -0.127 NA
ATOM      7  C   UNL d   1      53.970  32.498  54.067  0.00  0.00     0.131 A 
ATOM      8  C   UNL d   1      53.798  31.192  53.509  0.00  0.00     0.043 A 
ATOM      9  C   UNL d   1      54.235  31.723  53.966  0.00  0.00     0.031 A 
ENDROOT
BRANCH   7  10
ATOM     10  S   UNL d   1      54.407  33.029  54.524  0.00  0.00    -0.060 SA
BRANCH  10  11
ATOM     11  C   UNL d   1      54.031  33.480  55.100  0.00  0.00     0.105 C 
BRANCH  11  12
ATOM     12  C   UNL d   1      54.262  34.252  55.229  0.00  0.00     0.307 C 
ATOM     13  O   UNL d   1      55.064  34.450  55.236  0.00  0.00    -0.258 OA
BRANCH  12  14
ATOM     14  O   UNL d   1      53.692  34.831  55.351  0.00  0.00    -0.271 OA
BRANCH  14  15
ATOM     15  C   UNL d   1      53.704  35.528  54.897  0.00  0.00     0.126 C 
ATOM     16  C   UNL d   1      53.062  36.030  54.911  0.00  0.00     0.029 C 
ENDBRANCH  14  15
ENDBRANCH  12  14
ENDBRANCH  11  12
ENDBRANCH  10  11
ENDBRANCH   7  10
BRANCH   2  17
ATOM     17  C   UNL d   1      51.664  32.970  52.783  0.00  0.00     0.038 A 
ATOM     18  C   UNL d   1      51.840  33.546  52.229  0.00  0.00     0.003 A 
ATOM     19  C   UNL d   1      51.382  34.233  52.175  0.00  0.00     0.000 A 
ATOM     20  C   UNL d   1      50.742  34.333  52.689  0.00  0.00     0.000 A 
ATOM     21  C   UNL d   1      50.560  33.755  53.250  0.00  0.00     0.000 A 
ATOM     22  C   UNL d   1      51.023  33.070  53.297  0.00  0.00     0.003 A 
ENDBRANCH   2  17
TORSDOF 6
ENDMDL
