MODEL 1
REMARK VINA RESULT:      -6.9      0.000      0.000
REMARK  4 active torsions:
REMARK  status: ('A' for Active; 'I' for Inactive)
REMARK    1  A    between atoms: N_2  and  C_1 
REMARK    2  A    between atoms: N_11  and  C_6 
REMARK    3  A    between atoms: C_13  and  N_11 
REMARK    4  A    between atoms: O_20  and  C_14 
ROOT
ATOM      1  C   UNL d   1     -48.955  12.843  22.893  0.00  0.00     0.752 A 
ATOM      2  N   UNL d   1     -48.228  13.184  23.088  0.00  0.00    -0.040 NA
ATOM      3  C   UNL d   1     -47.657  12.744  23.482  0.00  0.00     0.182 A 
ATOM      4  N   UNL d   1     -49.104  12.056  23.097  0.00  0.00    -0.059 NA
ATOM      5  C   UNL d   1     -47.807  11.957  23.686  0.00  0.00     0.059 A 
ATOM      6  C   UNL d   1     -48.533  11.611  23.493  0.00  0.00     0.103 A 
ATOM      7  C   UNL d   1     -48.683  10.824  23.696  0.00  0.00     0.021 C 
ENDROOT
BRANCH   3   8
ATOM      8  N   UNL d   1     -46.934  13.083  23.676  0.00  0.00    -0.226 NA
BRANCH   8   9
ATOM      9  C   UNL d   1     -46.295  13.044  23.150  0.00  0.00     0.083 A 
ATOM     10  C   UNL d   1     -46.125  13.703  22.676  0.00  0.00     0.021 A 
ATOM     11  C   UNL d   1     -45.483  13.661  22.149  0.00  0.00     0.026 A 
ATOM     12  C   UNL d   1     -45.028  12.978  22.100  0.00  0.00     0.094 A 
ATOM     13  C   UNL d   1     -45.207  12.328  22.577  0.00  0.00     0.026 A 
ATOM     14  C   UNL d   1     -45.842  12.359  23.104  0.00  0.00     0.021 A 
BRANCH  12  15
ATOM     15  O   UNL d   1     -44.398  12.943  21.579  0.00  0.00    -0.328 OA
ATOM     16  C   UNL d   1     -43.708  12.556  21.793  0.00  0.00     0.181 C 
ENDBRANCH  12  15
ENDBRANCH   8   9
ENDBRANCH   3   8
BRANCH   1  17
ATOM     17  N   UNL d   1     -49.476  13.232  22.538  0.00  0.00    -0.058 N 
ATOM     18  N   UNL d   1     -50.495  14.040  22.573  0.00  0.00    -0.151 NA
ATOM     19  C   UNL d   1     -50.531  14.019  21.814  0.00  0.00     0.103 A 
ATOM     20  C   UNL d   1     -51.056  14.410  21.455  0.00  0.00     0.022 C 
ATOM     21  C   UNL d   1     -50.038  13.604  21.432  0.00  0.00     0.041 A 
ATOM     22  C   UNL d   1     -49.512  13.211  21.787  0.00  0.00     0.102 A 
ATOM     23  C   UNL d   1     -49.016  12.794  21.401  0.00  0.00     0.021 C 
ENDBRANCH   1  17
TORSDOF 4
ENDMDL
MODEL 2
REMARK VINA RESULT:      -6.7      1.331      2.237
REMARK  4 active torsions:
REMARK  status: ('A' for Active; 'I' for Inactive)
REMARK    1  A    between atoms: N_2  and  C_1 
REMARK    2  A    between atoms: N_11  and  C_6 
REMARK    3  A    between atoms: C_13  and  N_11 
REMARK    4  A    between atoms: O_20  and  C_14 
ROOT
ATOM      1  C   UNL d   1     -49.209  13.624  22.901  0.00  0.00     0.752 A 
ATOM      2  N   UNL d   1     -48.451  13.684  23.224  0.00  0.00    -0.040 NA
ATOM      3  C   UNL d   1     -47.953  14.298  22.999  0.00  0.00     0.182 A 
ATOM      4  N   UNL d   1     -49.464  14.185  22.350  0.00  0.00    -0.059 NA
ATOM      5  C   UNL d   1     -48.208  14.858  22.447  0.00  0.00     0.059 A 
ATOM      6  C   UNL d   1     -48.966  14.802  22.121  0.00  0.00     0.103 A 
ATOM      7  C   UNL d   1     -49.221  15.362  21.570  0.00  0.00     0.021 C 
ENDROOT
BRANCH   3   8
ATOM      8  N   UNL d   1     -47.199  14.358  23.320  0.00  0.00    -0.226 NA
BRANCH   8   9
ATOM      9  C   UNL d   1     -46.584  13.874  23.047  0.00  0.00     0.083 A 
ATOM     10  C   UNL d   1     -46.499  13.113  23.368  0.00  0.00     0.021 A 
ATOM     11  C   UNL d   1     -45.882  12.631  23.092  0.00  0.00     0.026 A 
ATOM     12  C   UNL d   1     -45.367  12.902  22.512  0.00  0.00     0.094 A 
ATOM     13  C   UNL d   1     -45.461  13.662  22.199  0.00  0.00     0.026 A 
ATOM     14  C   UNL d   1     -46.071  14.150  22.466  0.00  0.00     0.021 A 
BRANCH  12  15
ATOM     15  O   UNL d   1     -44.761  12.422  22.245  0.00  0.00    -0.328 OA
ATOM     16  C   UNL d   1     -44.215  12.710  21.706  0.00  0.00     0.181 C 
ENDBRANCH  12  15
ENDBRANCH   8   9
ENDBRANCH   3   8
BRANCH   1  17
ATOM     17  N   UNL d   1     -49.666  13.074  23.098  0.00  0.00    -0.058 N 
ATOM     18  N   UNL d   1     -49.969  11.810  23.094  0.00  0.00    -0.151 NA
ATOM     19  C   UNL d   1     -50.594  11.964  23.499  0.00  0.00     0.103 A 
ATOM     20  C   UNL d   1     -51.055  11.411  23.698  0.00  0.00     0.022 C 
ATOM     21  C   UNL d   1     -50.741  12.671  23.695  0.00  0.00     0.041 A 
ATOM     22  C   UNL d   1     -50.284  13.226  23.498  0.00  0.00     0.102 A 
ATOM     23  C   UNL d   1     -50.434  13.939  23.697  0.00  0.00     0.021 C 
ENDBRANCH   1  17
TORSDOF 4
ENDMDL
MODEL 3
REMARK VINA RESULT:      -5.6      1.942      4.733
REMARK  4 active torsions:
REMARK  status: ('A' for Active; 'I' for Inactive)
REMARK    1  A    between atoms: N_2  and  C_1 
REMARK    2  A    between atoms: N_11  and  C_6 
REMARK    3  A    between atoms: C_13  and  N_11 
REMARK    4  A    between atoms: O_20  and  C_14 
ROOT
ATOM      1  C   UNL d   1     -46.094  12.064  23.324  0.00  0.00     0.752 A 
ATOM      2  N   UNL d   1     -46.883  11.898  23.502  0.00  0.00    -0.040 NA
ATOM      3  C   UNL d   1     -47.458  12.479  23.415  0.00  0.00     0.182 A 
ATOM      4  N   UNL d   1     -45.885  12.818  23.058  0.00  0.00    -0.059 NA
ATOM      5  C   UNL d   1     -47.249  13.233  23.148  0.00  0.00     0.059 A 
ATOM      6  C   UNL d   1     -46.460  13.403  22.969  0.00  0.00     0.103 A 
ATOM      7  C   UNL d   1     -46.251  14.157  22.702  0.00  0.00     0.021 C 
ENDROOT
BRANCH   3   8
ATOM      8  N   UNL d   1     -48.243  12.314  23.592  0.00  0.00    -0.226 NA
BRANCH   8   9
ATOM      9  C   UNL d   1     -48.843  12.477  23.043  0.00  0.00     0.083 A 
ATOM     10  C   UNL d   1     -48.953  11.958  22.405  0.00  0.00     0.021 A 
ATOM     11  C   UNL d   1     -49.554  12.124  21.856  0.00  0.00     0.026 A 
ATOM     12  C   UNL d   1     -50.030  12.788  21.946  0.00  0.00     0.094 A 
ATOM     13  C   UNL d   1     -49.911  13.297  22.586  0.00  0.00     0.026 A 
ATOM     14  C   UNL d   1     -49.316  13.142  23.137  0.00  0.00     0.021 A 
BRANCH  12  15
ATOM     15  O   UNL d   1     -50.620  12.946  21.402  0.00  0.00    -0.328 OA
ATOM     16  C   UNL d   1     -51.019  13.662  21.423  0.00  0.00     0.181 C 
ENDBRANCH  12  15
ENDBRANCH   8   9
ENDBRANCH   3   8
BRANCH   1  17
ATOM     17  N   UNL d   1     -45.568  11.546  23.400  0.00  0.00    -0.058 N 
ATOM     18  N   UNL d   1     -44.314  11.205  23.364  0.00  0.00    -0.151 NA
ATOM     19  C   UNL d   1     -44.507  10.495  23.554  0.00  0.00     0.103 A 
ATOM     20  C   UNL d   1     -43.979   9.973  23.630  0.00  0.00     0.022 C 
ATOM     21  C   UNL d   1     -45.229  10.325  23.663  0.00  0.00     0.041 A 
ATOM     22  C   UNL d   1     -45.759  10.844  23.588  0.00  0.00     0.102 A 
ATOM     23  C   UNL d   1     -46.485  10.671  23.698  0.00  0.00     0.021 C 
ENDBRANCH   1  17
TORSDOF 4
ENDMDL
