MODEL 1
REMARK VINA RESULT:      47.0      0.000      0.000
REMARK  3 active torsions:
REMARK  status: ('A' for Active; 'I' for Inactive)
REMARK    1  A    between atoms: C_13  and  C_3 
REMARK    2  A    between atoms: C_4  and  S_11 
REMARK    3  A    between atoms: S_11  and  C_13 
ROOT
ATOM      1  C   UNL d   1     -50.703  25.983  33.317  0.00  0.00     0.141 A 
ATOM      2  N   UNL d   1     -50.352  25.260  33.331  0.00  0.00    -0.232 NA
ATOM      3  S   UNL d   1     -51.518  25.887  33.310  0.00  0.00    -0.060 SA
ATOM      4  C   UNL d   1     -50.946  24.692  33.333  0.00  0.00     0.088 A 
ATOM      5  C   UNL d   1     -51.667  25.080  33.320  0.00  0.00     0.049 A 
ATOM      6  C   UNL d   1     -50.911  23.868  33.345  0.00  0.00     0.020 A 
ATOM      7  C   UNL d   1     -52.371  24.653  33.318  0.00  0.00     0.008 A 
ATOM      8  C   UNL d   1     -52.341  23.828  33.331  0.00  0.00     0.001 A 
ATOM      9  C   UNL d   1     -51.620  23.440  33.344  0.00  0.00     0.002 A 
ENDROOT
BRANCH   1  10
ATOM     10  S   UNL d   1     -50.304  26.724  33.310  0.00  0.00    -0.058 SA
BRANCH  10  11
ATOM     11  C   UNL d   1     -50.053  27.049  34.017  0.00  0.00     0.077 C 
BRANCH  11  12
ATOM     12  C   UNL d   1     -49.627  27.770  34.008  0.00  0.00     0.178 A 
ATOM     13  N   UNL d   1     -49.078  27.920  34.593  0.00  0.00    -0.262 N 
ATOM     14  C   UNL d   1     -48.749  28.675  34.432  0.00  0.00     0.227 A 
ATOM     15  C   UNL d   1     -48.877  27.426  35.229  0.00  0.00     0.103 C 
ATOM     16  N   UNL d   1     -49.102  28.955  33.767  0.00  0.00    -0.117 NA
ATOM     17  S   UNL d   1     -48.154  29.070  34.888  0.00  0.00    -0.036 SA
ATOM     18  N   UNL d   1     -49.642  28.424  33.485  0.00  0.00    -0.127 NA
ENDBRANCH  11  12
ENDBRANCH  10  11
ENDBRANCH   1  10
TORSDOF 3
ENDMDL
