MODEL 1
REMARK VINA RESULT:      52.1      0.000      0.000
REMARK  7 active torsions:
REMARK  status: ('A' for Active; 'I' for Inactive)
REMARK    1  A    between atoms: C_7  and  C_1 
REMARK    2  A    between atoms: C_8  and  C_3 
REMARK    3  A    between atoms: O_17  and  C_7 
REMARK    4  A    between atoms: N_11  and  C_10 
REMARK    5  A    between atoms: C_19  and  N_11 
REMARK    6  A    between atoms: C_20  and  N_11 
REMARK    7  A    between atoms: C_21  and  O_17 
ROOT
ATOM      1  C   UNL d   1     -55.813-100.375 -44.749  0.00  0.00     0.099 A 
ATOM      2  C   UNL d   1     -55.085-100.559 -45.059  0.00  0.00     0.093 A 
ATOM      3  C   UNL d   1     -56.189 -99.653 -44.946  0.00  0.00     0.093 A 
ATOM      4  C   UNL d   1     -55.093 -99.307 -45.768  0.00  0.00     0.369 A 
ATOM      5  N   UNL d   1     -54.717-100.028 -45.572  0.00  0.00    -0.191 NA
ATOM      6  N   UNL d   1     -55.831 -99.127 -45.450  0.00  0.00    -0.191 NA
ATOM      7  O   UNL d   1     -54.712 -98.773 -46.289  0.00  0.00    -0.242 OA
ATOM      8  C   UNL d   1     -54.714-101.272 -44.865  0.00  0.00     0.021 C 
ENDROOT
BRANCH   3   9
ATOM      9  C   UNL d   1     -56.928 -99.474 -44.627  0.00  0.00     0.018 A 
ATOM     10  C   UNL d   1     -56.994 -99.255 -43.835  0.00  0.00     0.003 A 
ATOM     11  C   UNL d   1     -57.733 -99.075 -43.517  0.00  0.00     0.018 A 
ATOM     12  C   UNL d   1     -58.413 -99.110 -43.978  0.00  0.00     0.064 A 
ATOM     13  C   UNL d   1     -58.348 -99.329 -44.770  0.00  0.00     0.018 A 
ATOM     14  C   UNL d   1     -57.609 -99.508 -45.089  0.00  0.00     0.003 A 
BRANCH  12  15
ATOM     15  N   UNL d   1     -59.165 -98.924 -43.642  0.00  0.00    -0.304 N 
BRANCH  15  16
ATOM     16  C   UNL d   1     -59.235 -98.770 -42.841  0.00  0.00     0.080 C 
ATOM     17  C   UNL d   1     -59.676 -99.268 -42.359  0.00  0.00     0.021 C 
ENDBRANCH  15  16
BRANCH  15  18
ATOM     18  C   UNL d   1     -59.819 -98.901 -44.129  0.00  0.00     0.080 C 
ATOM     19  C   UNL d   1     -59.720 -98.762 -44.925  0.00  0.00     0.021 C 
ENDBRANCH  15  18
ENDBRANCH  12  15
ENDBRANCH   3   9
BRANCH   1  20
ATOM     20  C   UNL d   1     -56.187-100.923 -44.224  0.00  0.00     0.303 C 
ATOM     21  O   UNL d   1     -57.000-100.873 -44.096  0.00  0.00    -0.259 OA
BRANCH  20  22
ATOM     22  O   UNL d   1     -55.744-101.501 -43.843  0.00  0.00    -0.271 OA
BRANCH  22  23
ATOM     23  C   UNL d   1     -55.220-101.291 -43.242  0.00  0.00     0.126 C 
ATOM     24  C   UNL d   1     -54.930-101.867 -42.726  0.00  0.00     0.029 C 
ENDBRANCH  22  23
ENDBRANCH  20  22
ENDBRANCH   1  20
TORSDOF 7
ENDMDL
