MODEL 1
REMARK VINA RESULT:      -1.9      0.000      0.000
REMARK  4 active torsions:
REMARK  status: ('A' for Active; 'I' for Inactive)
REMARK    1  A    between atoms: N_7  and  S_1 
REMARK    2  A    between atoms: C_8  and  S_1 
REMARK    3  A    between atoms: C_17  and  N_2 
REMARK    4  A    between atoms: C_14  and  N_7 
ROOT
ATOM      1  N   UNL d   1     -41.489-122.797 -54.205  0.00  0.00    -0.273 N 
ATOM      2  C   UNL d   1     -41.422-121.707 -54.192  0.00  0.00     0.265 A 
ATOM      3  C   UNL d   1     -41.500-122.989 -53.432  0.00  0.00     0.067 A 
ATOM      4  C   UNL d   1     -41.457-122.274 -52.992  0.00  0.00     0.021 A 
ATOM      5  C   UNL d   1     -41.413-121.550 -53.386  0.00  0.00     0.058 A 
ATOM      6  C   UNL d   1     -41.503-123.029 -51.761  0.00  0.00     0.105 A 
ATOM      7  C   UNL d   1     -41.459-122.301 -52.163  0.00  0.00     0.014 A 
ATOM      8  C   UNL d   1     -41.543-123.686 -53.016  0.00  0.00     0.018 A 
ATOM      9  C   UNL d   1     -41.545-123.726 -52.167  0.00  0.00     0.014 A 
ATOM     10  O   UNL d   1     -41.386-121.118 -54.754  0.00  0.00    -0.267 OA
ATOM     11  C   UNL d   1     -41.371-120.864 -52.964  0.00  0.00     0.005 A 
ATOM     12  C   UNL d   1     -41.417-121.615 -51.740  0.00  0.00     0.001 A 
ATOM     13  C   UNL d   1     -41.373-120.889 -52.138  0.00  0.00     0.000 A 
ENDROOT
BRANCH   6  14
ATOM     14  S   UNL d   1     -41.507-123.083 -50.954  0.00  0.00     0.287 S 
ATOM     15  O   UNL d   1     -41.875-122.377 -50.887  0.00  0.00    -0.198 OA
ATOM     16  O   UNL d   1     -41.124-123.817 -51.011  0.00  0.00    -0.198 OA
BRANCH  14  17
ATOM     17  N   UNL d   1     -41.493-123.169 -50.124  0.00  0.00    -0.139 NA
BRANCH  17  18
ATOM     18  C   UNL d   1     -42.195-123.276 -49.709  0.00  0.00     0.175 A 
ATOM     19  N   UNL d   1     -42.832-123.696 -50.050  0.00  0.00    -0.225 NA
ATOM     20  C   UNL d   1     -43.538-123.795 -49.615  0.00  0.00     0.101 A 
ATOM     21  C   UNL d   1     -43.599-123.478 -48.856  0.00  0.00     0.021 A 
ATOM     22  C   UNL d   1     -42.982-123.065 -48.515  0.00  0.00     0.005 A 
ATOM     23  C   UNL d   1     -42.274-122.964 -48.948  0.00  0.00     0.040 A 
ENDBRANCH  17  18
ENDBRANCH  14  17
ENDBRANCH   6  14
BRANCH   1  24
ATOM     24  C   UNL d   1     -41.525-123.392 -54.769  0.00  0.00     0.083 C 
ATOM     25  C   UNL d   1     -41.791-123.205 -55.543  0.00  0.00     0.021 C 
ENDBRANCH   1  24
TORSDOF 4
ENDMDL
