MODEL 1
REMARK VINA RESULT:      52.4      0.000      0.000
REMARK  3 active torsions:
REMARK  status: ('A' for Active; 'I' for Inactive)
REMARK    1  A    between atoms: C_5  and  N_1 
REMARK    2  A    between atoms: C_8  and  C_2 
REMARK    3  A    between atoms: C_7  and  C_5 
ROOT
ATOM      1  N   UNL d   1     -55.001-100.362 -43.578  0.00  0.00    -0.287 N 
ATOM      2  C   UNL d   1     -54.863-100.592 -42.794  0.00  0.00     0.187 A 
ATOM      3  N   UNL d   1     -54.737-101.417 -42.777  0.00  0.00    -0.224 NA
ATOM      4  C   UNL d   1     -54.961-101.043 -44.058  0.00  0.00     0.083 A 
ATOM      5  C   UNL d   1     -54.799-101.688 -43.562  0.00  0.00     0.099 A 
ATOM      6  C   UNL d   1     -55.051-101.166 -44.879  0.00  0.00     0.019 A 
ATOM      7  C   UNL d   1     -54.725-102.459 -43.882  0.00  0.00     0.021 A 
ATOM      8  C   UNL d   1     -54.978-101.924 -45.196  0.00  0.00     0.002 A 
ATOM      9  C   UNL d   1     -54.816-102.569 -44.699  0.00  0.00     0.002 A 
ENDROOT
BRANCH   1  10
ATOM     10  C   UNL d   1     -55.135 -99.555 -43.680  0.00  0.00     0.082 C 
BRANCH  10  11
ATOM     11  C   UNL d   1     -55.711 -99.296 -44.203  0.00  0.00     0.018 A 
ATOM     12  C   UNL d   1     -55.504 -99.058 -44.958  0.00  0.00     0.001 A 
ATOM     13  C   UNL d   1     -56.081 -98.798 -45.483  0.00  0.00     0.000 A 
ATOM     14  C   UNL d   1     -54.712 -99.080 -45.186  0.00  0.00     0.000 C 
ATOM     15  C   UNL d   1     -56.872 -98.777 -45.250  0.00  0.00     0.000 A 
ATOM     16  C   UNL d   1     -57.082 -99.018 -44.490  0.00  0.00     0.000 A 
ATOM     17  C   UNL d   1     -56.501 -99.277 -43.967  0.00  0.00     0.002 A 
ATOM     18  C   UNL d   1     -57.873 -98.998 -44.254  0.00  0.00     0.000 C 
ENDBRANCH  10  11
ENDBRANCH   1  10
BRANCH   2  19
ATOM     19  C   UNL d   1     -54.774-100.478 -41.988  0.00  0.00     0.230 C 
ATOM     20  O   UNL d   1     -54.716 -99.715 -41.681  0.00  0.00    -0.283 OA
ATOM     21  C   UNL d   1     -54.742-101.123 -41.481  0.00  0.00     0.049 C 
ENDBRANCH   2  19
TORSDOF 3
ENDMDL
MODEL 2
REMARK VINA RESULT:      53.5      1.185      2.104
REMARK  3 active torsions:
REMARK  status: ('A' for Active; 'I' for Inactive)
REMARK    1  A    between atoms: C_5  and  N_1 
REMARK    2  A    between atoms: C_8  and  C_2 
REMARK    3  A    between atoms: C_7  and  C_5 
ROOT
ATOM      1  N   UNL d   1     -54.768-100.843 -43.786  0.00  0.00    -0.287 N 
ATOM      2  C   UNL d   1     -54.823-101.504 -44.281  0.00  0.00     0.187 A 
ATOM      3  N   UNL d   1     -54.852-102.191 -43.806  0.00  0.00    -0.224 NA
ATOM      4  C   UNL d   1     -54.761-101.111 -42.995  0.00  0.00     0.083 A 
ATOM      5  C   UNL d   1     -54.812-101.939 -43.013  0.00  0.00     0.099 A 
ATOM      6  C   UNL d   1     -54.714-100.717 -42.261  0.00  0.00     0.019 A 
ATOM      7  C   UNL d   1     -54.818-102.377 -42.299  0.00  0.00     0.021 A 
ATOM      8  C   UNL d   1     -54.720-101.146 -41.557  0.00  0.00     0.002 A 
ATOM      9  C   UNL d   1     -54.771-101.974 -41.576  0.00  0.00     0.002 A 
ENDROOT
BRANCH   1  10
ATOM     10  C   UNL d   1     -54.735-100.120 -44.181  0.00  0.00     0.082 C 
BRANCH  10  11
ATOM     11  C   UNL d   1     -55.424 -99.706 -44.340  0.00  0.00     0.018 A 
ATOM     12  C   UNL d   1     -55.451 -99.173 -44.960  0.00  0.00     0.001 A 
ATOM     13  C   UNL d   1     -56.141 -98.758 -45.120  0.00  0.00     0.000 A 
ATOM     14  C   UNL d   1     -54.778 -99.058 -45.424  0.00  0.00     0.000 C 
ATOM     15  C   UNL d   1     -56.812 -98.876 -44.654  0.00  0.00     0.000 A 
ATOM     16  C   UNL d   1     -56.786 -99.412 -44.028  0.00  0.00     0.000 A 
ATOM     17  C   UNL d   1     -56.093 -99.826 -43.872  0.00  0.00     0.002 A 
ATOM     18  C   UNL d   1     -57.456 -99.533 -43.560  0.00  0.00     0.000 C 
ENDBRANCH  10  11
ENDBRANCH   1  10
BRANCH   2  19
ATOM     19  C   UNL d   1     -54.869-101.898 -44.998  0.00  0.00     0.230 C 
ATOM     20  O   UNL d   1     -54.732-102.711 -45.034  0.00  0.00    -0.283 OA
ATOM     21  C   UNL d   1     -55.052-101.486 -45.684  0.00  0.00     0.049 C 
ENDBRANCH   2  19
TORSDOF 3
ENDMDL
