MODEL 1
REMARK VINA RESULT:      -8.8      0.000      0.000
REMARK  4 active torsions:
REMARK  status: ('A' for Active; 'I' for Inactive)
REMARK    1  A    between atoms: N_2  and  S_1 
REMARK    2  A    between atoms: C_5  and  S_1 
REMARK    3  A    between atoms: O_16  and  C_11 
REMARK    4  A    between atoms: C_19  and  O_16 
ROOT
ATOM      1  C   UNL d   1      53.406  31.566  53.630  0.00  0.00     0.107 A 
ATOM      2  C   UNL d   1      53.590  30.821  53.929  0.00  0.00     0.040 A 
ATOM      3  C   UNL d   1      53.289  30.143  53.564  0.00  0.00     0.128 A 
ATOM      4  C   UNL d   1      52.804  30.211  52.902  0.00  0.00     0.163 A 
ATOM      5  C   UNL d   1      52.920  31.635  52.967  0.00  0.00     0.015 A 
ATOM      6  C   UNL d   1      52.619  30.957  52.603  0.00  0.00     0.032 A 
ATOM      7  F   UNL d   1      52.503  29.534  52.538  0.00  0.00    -0.202 F 
ENDROOT
BRANCH   1   8
ATOM      8  S   UNL d   1      53.707  32.244  53.994  0.00  0.00     0.286 S 
ATOM      9  O   UNL d   1      54.141  32.417  53.313  0.00  0.00    -0.198 OA
ATOM     10  O   UNL d   1      53.273  32.071  54.675  0.00  0.00    -0.198 OA
BRANCH   8  11
ATOM     11  N   UNL d   1      54.008  32.921  54.358  0.00  0.00    -0.152 N 
ATOM     12  N   UNL d   1      54.761  33.009  54.680  0.00  0.00    -0.155 NA
ATOM     13  C   UNL d   1      54.829  33.768  54.984  0.00  0.00     0.104 A 
ATOM     14  C   UNL d   1      55.496  34.088  55.359  0.00  0.00     0.022 C 
ATOM     15  C   UNL d   1      54.113  34.157  54.851  0.00  0.00     0.041 A 
ATOM     16  C   UNL d   1      53.607  33.637  54.466  0.00  0.00     0.096 A 
ATOM     17  C   UNL d   1      52.833  33.795  54.225  0.00  0.00     0.022 C 
ENDBRANCH   8  11
ENDBRANCH   1   8
BRANCH   3  18
ATOM     18  O   UNL d   1      53.473  29.398  53.863  0.00  0.00    -0.303 OA
BRANCH  18  19
ATOM     19  C   UNL d   1      53.298  29.209  54.654  0.00  0.00     0.123 C 
ATOM     20  C   UNL d   1      53.516  28.477  54.963  0.00  0.00     0.029 C 
ENDBRANCH  18  19
ENDBRANCH   3  18
TORSDOF 4
ENDMDL
MODEL 2
REMARK VINA RESULT:      -8.7      1.862      4.114
REMARK  4 active torsions:
REMARK  status: ('A' for Active; 'I' for Inactive)
REMARK    1  A    between atoms: N_2  and  S_1 
REMARK    2  A    between atoms: C_5  and  S_1 
REMARK    3  A    between atoms: O_16  and  C_11 
REMARK    4  A    between atoms: C_19  and  O_16 
ROOT
ATOM      1  C   UNL d   1      54.083  32.827  54.318  0.00  0.00     0.107 A 
ATOM      2  C   UNL d   1      53.623  33.481  54.517  0.00  0.00     0.040 A 
ATOM      3  C   UNL d   1      53.973  34.143  54.866  0.00  0.00     0.128 A 
ATOM      4  C   UNL d   1      54.783  34.150  55.015  0.00  0.00     0.163 A 
ATOM      5  C   UNL d   1      54.894  32.834  54.468  0.00  0.00     0.015 A 
ATOM      6  C   UNL d   1      55.244  33.496  54.817  0.00  0.00     0.032 A 
ATOM      7  F   UNL d   1      55.133  34.812  55.364  0.00  0.00    -0.202 F 
ENDROOT
BRANCH   1   8
ATOM      8  S   UNL d   1      53.732  32.165  53.969  0.00  0.00     0.286 S 
ATOM      9  O   UNL d   1      53.355  31.989  54.683  0.00  0.00    -0.198 OA
ATOM     10  O   UNL d   1      54.110  32.341  53.256  0.00  0.00    -0.198 OA
BRANCH   8  11
ATOM     11  N   UNL d   1      53.382  31.503  53.621  0.00  0.00    -0.152 N 
ATOM     12  N   UNL d   1      53.562  30.715  53.780  0.00  0.00    -0.155 NA
ATOM     13  C   UNL d   1      53.085  30.239  53.312  0.00  0.00     0.104 A 
ATOM     14  C   UNL d   1      53.085  29.410  53.298  0.00  0.00     0.022 C 
ATOM     15  C   UNL d   1      52.603  30.733  52.858  0.00  0.00     0.041 A 
ATOM     16  C   UNL d   1      52.786  31.512  53.047  0.00  0.00     0.096 A 
ATOM     17  C   UNL d   1      52.439  32.187  52.725  0.00  0.00     0.022 C 
ENDBRANCH   8  11
ENDBRANCH   1   8
BRANCH   3  18
ATOM     18  O   UNL d   1      53.513  34.797  55.064  0.00  0.00    -0.303 OA
BRANCH  18  19
ATOM     19  C   UNL d   1      53.094  35.207  54.475  0.00  0.00     0.123 C 
ATOM     20  C   UNL d   1      52.594  35.829  54.680  0.00  0.00     0.029 C 
ENDBRANCH  18  19
ENDBRANCH   3  18
TORSDOF 4
ENDMDL
MODEL 3
REMARK VINA RESULT:      -8.3      2.129      3.339
REMARK  4 active torsions:
REMARK  status: ('A' for Active; 'I' for Inactive)
REMARK    1  A    between atoms: N_2  and  S_1 
REMARK    2  A    between atoms: C_5  and  S_1 
REMARK    3  A    between atoms: O_16  and  C_11 
REMARK    4  A    between atoms: C_19  and  O_16 
ROOT
ATOM      1  C   UNL d   1      52.608  32.576  53.336  0.00  0.00     0.107 A 
ATOM      2  C   UNL d   1      53.189  32.792  53.879  0.00  0.00     0.040 A 
ATOM      3  C   UNL d   1      53.768  32.248  54.104  0.00  0.00     0.128 A 
ATOM      4  C   UNL d   1      53.766  31.488  53.786  0.00  0.00     0.163 A 
ATOM      5  C   UNL d   1      52.605  31.815  53.018  0.00  0.00     0.015 A 
ATOM      6  C   UNL d   1      53.184  31.271  53.243  0.00  0.00     0.032 A 
ATOM      7  F   UNL d   1      54.345  30.943  54.012  0.00  0.00    -0.202 F 
ENDROOT
BRANCH   1   8
ATOM      8  S   UNL d   1      52.029  33.121  53.111  0.00  0.00     0.286 S 
ATOM      9  O   UNL d   1      52.202  32.976  52.317  0.00  0.00    -0.198 OA
ATOM     10  O   UNL d   1      51.856  33.265  53.906  0.00  0.00    -0.198 OA
BRANCH   8  11
ATOM     11  N   UNL d   1      51.450  33.665  52.886  0.00  0.00    -0.152 N 
ATOM     12  N   UNL d   1      50.635  33.552  52.919  0.00  0.00    -0.155 NA
ATOM     13  C   UNL d   1      50.266  34.231  52.643  0.00  0.00     0.104 A 
ATOM     14  C   UNL d   1      49.447  34.353  52.582  0.00  0.00     0.022 C 
ATOM     15  C   UNL d   1      50.855  34.772  52.437  0.00  0.00     0.041 A 
ATOM     16  C   UNL d   1      51.584  34.424  52.586  0.00  0.00     0.096 A 
ATOM     17  C   UNL d   1      52.324  34.768  52.461  0.00  0.00     0.022 C 
ENDBRANCH   8  11
ENDBRANCH   1   8
BRANCH   3  18
ATOM     18  O   UNL d   1      54.350  32.464  54.646  0.00  0.00    -0.303 OA
BRANCH  18  19
ATOM     19  C   UNL d   1      54.709  33.213  54.598  0.00  0.00     0.123 C 
ATOM     20  C   UNL d   1      55.088  33.533  55.255  0.00  0.00     0.029 C 
ENDBRANCH  18  19
ENDBRANCH   3  18
TORSDOF 4
ENDMDL
MODEL 4
REMARK VINA RESULT:      -8.3      2.158      4.095
REMARK  4 active torsions:
REMARK  status: ('A' for Active; 'I' for Inactive)
REMARK    1  A    between atoms: N_2  and  S_1 
REMARK    2  A    between atoms: C_5  and  S_1 
REMARK    3  A    between atoms: O_16  and  C_11 
REMARK    4  A    between atoms: C_19  and  O_16 
ROOT
ATOM      1  C   UNL d   1      52.091  33.044  53.160  0.00  0.00     0.107 A 
ATOM      2  C   UNL d   1      52.479  33.737  53.381  0.00  0.00     0.040 A 
ATOM      3  C   UNL d   1      52.087  34.463  53.337  0.00  0.00     0.128 A 
ATOM      4  C   UNL d   1      51.307  34.495  53.073  0.00  0.00     0.163 A 
ATOM      5  C   UNL d   1      51.311  33.077  52.895  0.00  0.00     0.015 A 
ATOM      6  C   UNL d   1      50.919  33.802  52.851  0.00  0.00     0.032 A 
ATOM      7  F   UNL d   1      50.915  35.221  53.029  0.00  0.00    -0.202 F 
ENDROOT
BRANCH   1   8
ATOM      8  S   UNL d   1      52.483  32.318  53.204  0.00  0.00     0.286 S 
ATOM      9  O   UNL d   1      52.323  32.280  54.013  0.00  0.00    -0.198 OA
ATOM     10  O   UNL d   1      52.644  32.356  52.394  0.00  0.00    -0.198 OA
BRANCH   8  11
ATOM     11  N   UNL d   1      52.876  31.593  53.247  0.00  0.00    -0.152 N 
ATOM     12  N   UNL d   1      52.544  30.850  53.120  0.00  0.00    -0.155 NA
ATOM     13  C   UNL d   1      53.127  30.282  53.219  0.00  0.00     0.104 A 
ATOM     14  C   UNL d   1      53.031  29.462  53.141  0.00  0.00     0.022 C 
ATOM     15  C   UNL d   1      53.829  30.673  53.410  0.00  0.00     0.041 A 
ATOM     16  C   UNL d   1      53.675  31.480  53.428  0.00  0.00     0.096 A 
ATOM     17  C   UNL d   1      54.219  32.078  53.596  0.00  0.00     0.022 C 
ENDBRANCH   8  11
ENDBRANCH   1   8
BRANCH   3  18
ATOM     18  O   UNL d   1      52.474  35.155  53.558  0.00  0.00    -0.303 OA
BRANCH  18  19
ATOM     19  C   UNL d   1      52.861  35.201  54.293  0.00  0.00     0.123 C 
ATOM     20  C   UNL d   1      53.243  35.896  54.517  0.00  0.00     0.029 C 
ENDBRANCH  18  19
ENDBRANCH   3  18
TORSDOF 4
ENDMDL
MODEL 5
REMARK VINA RESULT:      -7.7      2.948      4.251
REMARK  4 active torsions:
REMARK  status: ('A' for Active; 'I' for Inactive)
REMARK    1  A    between atoms: N_2  and  S_1 
REMARK    2  A    between atoms: C_5  and  S_1 
REMARK    3  A    between atoms: O_16  and  C_11 
REMARK    4  A    between atoms: C_19  and  O_16 
ROOT
ATOM      1  C   UNL d   1      51.518  34.182  52.912  0.00  0.00     0.107 A 
ATOM      2  C   UNL d   1      50.770  34.397  53.181  0.00  0.00     0.040 A 
ATOM      3  C   UNL d   1      50.144  34.474  52.647  0.00  0.00     0.128 A 
ATOM      4  C   UNL d   1      50.267  34.336  51.844  0.00  0.00     0.163 A 
ATOM      5  C   UNL d   1      51.641  34.043  52.108  0.00  0.00     0.015 A 
ATOM      6  C   UNL d   1      51.016  34.120  51.575  0.00  0.00     0.032 A 
ATOM      7  F   UNL d   1      49.641  34.413  51.311  0.00  0.00    -0.202 F 
ENDROOT
BRANCH   1   8
ATOM      8  S   UNL d   1      52.144  34.104  53.446  0.00  0.00     0.286 S 
ATOM      9  O   UNL d   1      51.699  33.570  53.890  0.00  0.00    -0.198 OA
ATOM     10  O   UNL d   1      52.589  34.639  53.001  0.00  0.00    -0.198 OA
BRANCH   8  11
ATOM     11  N   UNL d   1      52.769  34.027  53.979  0.00  0.00    -0.152 N 
ATOM     12  N   UNL d   1      53.179  33.335  54.155  0.00  0.00    -0.155 NA
ATOM     13  C   UNL d   1      53.755  33.506  54.712  0.00  0.00     0.104 A 
ATOM     14  C   UNL d   1      54.293  32.967  55.043  0.00  0.00     0.022 C 
ATOM     15  C   UNL d   1      53.706  34.312  54.887  0.00  0.00     0.041 A 
ATOM     16  C   UNL d   1      53.099  34.634  54.436  0.00  0.00     0.096 A 
ATOM     17  C   UNL d   1      52.857  35.423  54.435  0.00  0.00     0.022 C 
ENDBRANCH   8  11
ENDBRANCH   1   8
BRANCH   3  18
ATOM     18  O   UNL d   1      49.396  34.690  52.917  0.00  0.00    -0.303 OA
BRANCH  18  19
ATOM     19  C   UNL d   1      49.267  35.450  53.228  0.00  0.00     0.123 C 
ATOM     20  C   UNL d   1      48.506  35.688  53.438  0.00  0.00     0.029 C 
ENDBRANCH  18  19
ENDBRANCH   3  18
TORSDOF 4
ENDMDL
