MODEL 1
REMARK VINA RESULT:     -10.0      0.000      0.000
REMARK  2 active torsions:
REMARK  status: ('A' for Active; 'I' for Inactive)
REMARK    1  A    between atoms: C_3  and  C_1 
REMARK       I    between atoms: N_6  and  C_3 
REMARK    2  A    between atoms: C_11  and  N_6 
ROOT
ATOM      1  C   UNL d   1      53.625  32.843  54.222  0.00  0.00     0.121 A 
ATOM      2  C   UNL d   1      53.930  33.074  54.871  0.00  0.00     0.305 A 
ATOM      3  C   UNL d   1      53.216  33.369  53.740  0.00  0.00     0.012 A 
ATOM      4  O   UNL d   1      53.863  33.917  55.144  0.00  0.00    -0.273 OA
ATOM      5  C   UNL d   1      53.121  34.162  53.939  0.00  0.00     0.023 A 
ATOM      6  C   UNL d   1      53.449  34.439  54.651  0.00  0.00     0.103 A 
ATOM      7  O   UNL d   1      54.357  32.552  55.388  0.00  0.00    -0.259 OA
ATOM      8  C   UNL d   1      52.716  34.671  53.456  0.00  0.00     0.002 A 
ATOM      9  C   UNL d   1      53.365  35.221  54.865  0.00  0.00     0.025 A 
ATOM     10  C   UNL d   1      52.623  35.465  53.660  0.00  0.00     0.000 A 
ATOM     11  C   UNL d   1      52.951  35.743  54.372  0.00  0.00     0.002 A 
ENDROOT
BRANCH   1  12
ATOM     12  C   UNL d   1      53.710  32.046  54.003  0.00  0.00     0.284 C 
ATOM     13  N   UNL d   1      53.112  31.609  53.998  0.00  0.00    -0.208 NA
ATOM     14  O   UNL d   1      54.448  31.748  53.794  0.00  0.00    -0.265 OA
BRANCH  13  15
ATOM     15  C   UNL d   1      53.114  30.770  53.783  0.00  0.00     0.087 A 
ATOM     16  C   UNL d   1      53.359  30.152  54.261  0.00  0.00     0.049 A 
ATOM     17  C   UNL d   1      53.339  29.372  54.001  0.00  0.00     0.142 A 
ATOM     18  F   UNL d   1      53.584  28.759  54.481  0.00  0.00    -0.204 F 
ATOM     19  C   UNL d   1      53.059  29.210  53.229  0.00  0.00     0.030 A 
ATOM     20  C   UNL d   1      52.813  29.835  52.750  0.00  0.00     0.004 A 
ATOM     21  C   UNL d   1      52.834  30.607  53.008  0.00  0.00     0.019 A 
ENDBRANCH  13  15
ENDBRANCH   1  12
TORSDOF 2
ENDMDL
MODEL 2
REMARK VINA RESULT:      -9.9      2.827      4.123
REMARK  2 active torsions:
REMARK  status: ('A' for Active; 'I' for Inactive)
REMARK    1  A    between atoms: C_3  and  C_1 
REMARK       I    between atoms: N_6  and  C_3 
REMARK    2  A    between atoms: C_11  and  N_6 
ROOT
ATOM      1  C   UNL d   1      52.341  33.307  53.461  0.00  0.00     0.121 A 
ATOM      2  C   UNL d   1      52.717  32.745  53.127  0.00  0.00     0.305 A 
ATOM      3  C   UNL d   1      52.696  33.755  54.052  0.00  0.00     0.012 A 
ATOM      4  O   UNL d   1      53.551  32.543  53.353  0.00  0.00    -0.273 OA
ATOM      5  C   UNL d   1      53.467  33.615  54.303  0.00  0.00     0.023 A 
ATOM      6  C   UNL d   1      53.900  33.001  53.949  0.00  0.00     0.103 A 
ATOM      7  O   UNL d   1      52.374  32.266  52.514  0.00  0.00    -0.259 OA
ATOM      8  C   UNL d   1      53.807  34.064  54.887  0.00  0.00     0.002 A 
ATOM      9  C   UNL d   1      54.664  32.848  54.185  0.00  0.00     0.025 A 
ATOM     10  C   UNL d   1      54.580  33.920  55.136  0.00  0.00     0.000 A 
ATOM     11  C   UNL d   1      55.013  33.306  54.782  0.00  0.00     0.002 A 
ENDROOT
BRANCH   1  12
ATOM     12  C   UNL d   1      51.561  33.463  53.221  0.00  0.00     0.284 C 
ATOM     13  N   UNL d   1      51.418  34.088  52.850  0.00  0.00    -0.208 NA
ATOM     14  O   UNL d   1      50.957  32.931  53.394  0.00  0.00    -0.265 OA
BRANCH  13  15
ATOM     15  C   UNL d   1      50.635  34.326  52.564  0.00  0.00     0.087 A 
ATOM     16  C   UNL d   1      50.045  34.672  53.013  0.00  0.00     0.049 A 
ATOM     17  C   UNL d   1      49.319  34.877  52.685  0.00  0.00     0.142 A 
ATOM     18  F   UNL d   1      48.733  35.222  53.137  0.00  0.00    -0.204 F 
ATOM     19  C   UNL d   1      49.185  34.726  51.873  0.00  0.00     0.030 A 
ATOM     20  C   UNL d   1      49.782  34.377  51.424  0.00  0.00     0.004 A 
ATOM     21  C   UNL d   1      50.500  34.175  51.749  0.00  0.00     0.019 A 
ENDBRANCH  13  15
ENDBRANCH   1  12
TORSDOF 2
ENDMDL
MODEL 3
REMARK VINA RESULT:      -9.5      1.874      4.561
REMARK  2 active torsions:
REMARK  status: ('A' for Active; 'I' for Inactive)
REMARK    1  A    between atoms: C_3  and  C_1 
REMARK       I    between atoms: N_6  and  C_3 
REMARK    2  A    between atoms: C_11  and  N_6 
ROOT
ATOM      1  C   UNL d   1      53.220  31.870  53.435  0.00  0.00     0.121 A 
ATOM      2  C   UNL d   1      52.851  31.683  52.804  0.00  0.00     0.305 A 
ATOM      3  C   UNL d   1      53.451  31.291  53.973  0.00  0.00     0.012 A 
ATOM      4  O   UNL d   1      52.651  30.839  52.614  0.00  0.00    -0.273 OA
ATOM      5  C   UNL d   1      53.293  30.493  53.851  0.00  0.00     0.023 A 
ATOM      6  C   UNL d   1      52.887  30.264  53.162  0.00  0.00     0.103 A 
ATOM      7  O   UNL d   1      52.601  32.259  52.232  0.00  0.00    -0.259 OA
ATOM      8  C   UNL d   1      53.525  29.932  54.387  0.00  0.00     0.002 A 
ATOM      9  C   UNL d   1      52.722  29.478  53.025  0.00  0.00     0.025 A 
ATOM     10  C   UNL d   1      53.365  29.132  54.261  0.00  0.00     0.000 A 
ATOM     11  C   UNL d   1      52.959  28.903  53.573  0.00  0.00     0.002 A 
ENDROOT
BRANCH   1  12
ATOM     12  C   UNL d   1      53.389  32.671  53.576  0.00  0.00     0.284 C 
ATOM     13  N   UNL d   1      53.023  33.026  54.113  0.00  0.00    -0.208 NA
ATOM     14  O   UNL d   1      53.955  33.063  53.125  0.00  0.00    -0.265 OA
BRANCH  13  15
ATOM     15  C   UNL d   1      53.138  33.858  54.324  0.00  0.00     0.087 A 
ATOM     16  C   UNL d   1      52.863  34.503  53.902  0.00  0.00     0.049 A 
ATOM     17  C   UNL d   1      53.004  35.274  54.153  0.00  0.00     0.142 A 
ATOM     18  F   UNL d   1      52.727  35.914  53.729  0.00  0.00    -0.204 F 
ATOM     19  C   UNL d   1      53.441  35.397  54.856  0.00  0.00     0.030 A 
ATOM     20  C   UNL d   1      53.717  34.744  55.277  0.00  0.00     0.004 A 
ATOM     21  C   UNL d   1      53.577  33.982  55.029  0.00  0.00     0.019 A 
ENDBRANCH  13  15
ENDBRANCH   1  12
TORSDOF 2
ENDMDL
MODEL 4
REMARK VINA RESULT:      -9.4      3.073      4.620
REMARK  2 active torsions:
REMARK  status: ('A' for Active; 'I' for Inactive)
REMARK    1  A    between atoms: C_3  and  C_1 
REMARK       I    between atoms: N_6  and  C_3 
REMARK    2  A    between atoms: C_11  and  N_6 
ROOT
ATOM      1  C   UNL d   1      52.085  33.678  52.871  0.00  0.00     0.121 A 
ATOM      2  C   UNL d   1      52.621  34.082  53.215  0.00  0.00     0.305 A 
ATOM      3  C   UNL d   1      52.137  32.857  52.835  0.00  0.00     0.012 A 
ATOM      4  O   UNL d   1      53.326  33.696  53.593  0.00  0.00    -0.273 OA
ATOM      5  C   UNL d   1      52.766  32.444  53.166  0.00  0.00     0.023 A 
ATOM      6  C   UNL d   1      53.369  32.869  53.550  0.00  0.00     0.103 A 
ATOM      7  O   UNL d   1      52.592  34.930  53.267  0.00  0.00    -0.259 OA
ATOM      8  C   UNL d   1      52.807  31.636  53.125  0.00  0.00     0.002 A 
ATOM      9  C   UNL d   1      53.999  32.477  53.885  0.00  0.00     0.025 A 
ATOM     10  C   UNL d   1      53.440  31.225  53.459  0.00  0.00     0.000 A 
ATOM     11  C   UNL d   1      54.042  31.650  53.842  0.00  0.00     0.002 A 
ENDROOT
BRANCH   1  12
ATOM     12  C   UNL d   1      51.441  34.077  52.530  0.00  0.00     0.284 C 
ATOM     13  N   UNL d   1      50.771  34.008  52.838  0.00  0.00    -0.208 NA
ATOM     14  O   UNL d   1      51.548  34.542  51.859  0.00  0.00    -0.265 OA
BRANCH  13  15
ATOM     15  C   UNL d   1      50.051  34.390  52.545  0.00  0.00     0.087 A 
ATOM     16  C   UNL d   1      49.729  34.301  51.799  0.00  0.00     0.049 A 
ATOM     17  C   UNL d   1      49.039  34.690  51.577  0.00  0.00     0.142 A 
ATOM     18  F   UNL d   1      48.722  34.598  50.831  0.00  0.00    -0.204 F 
ATOM     19  C   UNL d   1      48.661  35.190  52.132  0.00  0.00     0.030 A 
ATOM     20  C   UNL d   1      48.988  35.277  52.884  0.00  0.00     0.004 A 
ATOM     21  C   UNL d   1      49.671  34.891  53.102  0.00  0.00     0.019 A 
ENDBRANCH  13  15
ENDBRANCH   1  12
TORSDOF 2
ENDMDL
