MODEL 1
REMARK VINA RESULT:      76.5      0.000      0.000
REMARK  6 active torsions:
REMARK  status: ('A' for Active; 'I' for Inactive)
REMARK    1  A    between atoms: N_2  and  S_1 
REMARK    2  A    between atoms: C_8  and  S_1 
REMARK    3  A    between atoms: C_4  and  C_3 
REMARK    4  A    between atoms: O_18  and  C_5 
REMARK    5  A    between atoms: O_20  and  C_12 
REMARK    6  A    between atoms: O_21  and  C_13 
ROOT
ATOM      1  N   UNL d   1      60.068  48.311  51.384  0.00  0.00    -0.127 NA
ATOM      2  C   UNL d   1      59.868  49.078  51.166  0.00  0.00     0.086 A 
ATOM      3  S   UNL d   1      60.350  49.705  51.381  0.00  0.00    -0.073 SA
ATOM      4  C   UNL d   1      61.238  48.792  52.035  0.00  0.00     0.074 A 
ATOM      5  C   UNL d   1      61.037  49.559  51.818  0.00  0.00     0.050 A 
ENDROOT
BRANCH   2   6
ATOM      6  C   UNL d   1      59.181  49.221  50.730  0.00  0.00     0.042 A 
ATOM      7  C   UNL d   1      59.242  49.535  49.973  0.00  0.00     0.098 A 
ATOM      8  C   UNL d   1      58.555  49.676  49.545  0.00  0.00     0.050 A 
ATOM      9  C   UNL d   1      57.821  49.509  49.860  0.00  0.00     0.118 A 
ATOM     10  C   UNL d   1      57.764  49.194  50.620  0.00  0.00     0.117 A 
ATOM     11  C   UNL d   1      58.446  49.048  51.060  0.00  0.00     0.030 A 
BRANCH   7  12
ATOM     12  O   UNL d   1      59.977  49.707  49.647  0.00  0.00    -0.328 OA
ATOM     13  C   UNL d   1      60.233  49.301  48.977  0.00  0.00     0.181 C 
ENDBRANCH   7  12
BRANCH   9  14
ATOM     14  O   UNL d   1      57.141  49.651  49.430  0.00  0.00    -0.326 OA
ATOM     15  C   UNL d   1      56.873  49.100  48.879  0.00  0.00     0.181 C 
ENDBRANCH   9  14
BRANCH  10  16
ATOM     16  O   UNL d   1      57.028  49.023  50.945  0.00  0.00    -0.326 OA
ATOM     17  C   UNL d   1      56.498  49.628  51.112  0.00  0.00     0.181 C 
ENDBRANCH  10  16
ENDBRANCH   2   6
BRANCH   1  18
ATOM     18  S   UNL d   1      60.474  47.565  51.723  0.00  0.00     0.255 S 
ATOM     19  O   UNL d   1      60.808  46.929  52.274  0.00  0.00    -0.205 OA
ATOM     20  O   UNL d   1      60.280  47.844  52.564  0.00  0.00    -0.205 OA
BRANCH  18  21
ATOM     21  C   UNL d   1      60.783  47.068  51.040  0.00  0.00     0.099 A 
ATOM     22  C   UNL d   1      61.507  47.334  50.572  0.00  0.00     0.015 A 
ATOM     23  C   UNL d   1      61.817  46.846  49.893  0.00  0.00     0.030 A 
ATOM     24  C   UNL d   1      61.405  46.078  49.672  0.00  0.00     0.140 A 
ATOM     25  C   UNL d   1      60.678  45.802  50.135  0.00  0.00     0.030 A 
ATOM     26  F   UNL d   1      61.711  45.571  48.983  0.00  0.00    -0.204 F 
ATOM     27  C   UNL d   1      60.362  46.298  50.825  0.00  0.00     0.015 A 
ENDBRANCH  18  21
ENDBRANCH   1  18
TORSDOF 6
ENDMDL
