MODEL 1
REMARK VINA RESULT:      27.1      0.000      0.000
REMARK  5 active torsions:
REMARK  status: ('A' for Active; 'I' for Inactive)
REMARK    1  A    between atoms: C_2  and  S_1 
REMARK    2  A    between atoms: N_3  and  S_1 
REMARK    3  A    between atoms: C_4  and  N_3 
REMARK    4  A    between atoms: O_16  and  C_9 
REMARK    5  A    between atoms: O_17  and  C_14 
ROOT
ATOM      1  C   UNL d   1     -51.319  25.660  33.337  0.00  0.00     0.118 A 
ATOM      2  C   UNL d   1     -50.888  24.957  33.307  0.00  0.00     0.046 A 
ATOM      3  C   UNL d   1     -50.927  26.381  33.398  0.00  0.00     0.113 A 
ATOM      4  C   UNL d   1     -50.101  26.403  33.430  0.00  0.00     0.028 A 
ATOM      5  C   UNL d   1     -50.065  24.975  33.339  0.00  0.00     0.096 A 
ATOM      6  C   UNL d   1     -49.670  25.700  33.400  0.00  0.00     0.026 A 
ENDROOT
BRANCH   1   7
ATOM      7  N   UNL d   1     -52.155  25.647  33.306  0.00  0.00    -0.156 NA
BRANCH   7   8
ATOM      8  S   UNL d   1     -52.574  24.983  33.594  0.00  0.00     0.291 S 
ATOM      9  O   UNL d   1     -53.277  25.317  33.320  0.00  0.00    -0.198 OA
ATOM     10  O   UNL d   1     -51.867  24.655  33.866  0.00  0.00    -0.198 OA
BRANCH   8  11
ATOM     11  C   UNL d   1     -52.990  24.329  33.878  0.00  0.00     0.135 A 
ATOM     12  S   UNL d   1     -53.511  24.037  33.470  0.00  0.00    -0.073 SA
ATOM     13  C   UNL d   1     -53.869  23.463  33.731  0.00  0.00     0.036 A 
ATOM     14  C   UNL d   1     -53.710  23.190  34.380  0.00  0.00     0.008 A 
ATOM     15  C   UNL d   1     -52.835  24.056  34.522  0.00  0.00     0.020 A 
ENDBRANCH   8  11
ENDBRANCH   7   8
ENDBRANCH   1   7
BRANCH   3  16
ATOM     16  O   UNL d   1     -51.358  27.084  33.428  0.00  0.00    -0.327 OA
ATOM     17  C   UNL d   1     -50.979  27.794  33.600  0.00  0.00     0.181 C 
ENDBRANCH   3  16
BRANCH   5  18
ATOM     18  O   UNL d   1     -49.634  24.273  33.309  0.00  0.00    -0.328 OA
ATOM     19  C   UNL d   1     -49.234  24.006  33.976  0.00  0.00     0.181 C 
ENDBRANCH   5  18
TORSDOF 5
ENDMDL
