MODEL 1
REMARK VINA RESULT:      74.1      0.000      0.000
REMARK  3 active torsions:
REMARK  status: ('A' for Active; 'I' for Inactive)
REMARK    1  A    between atoms: N_5  and  C_1 
REMARK       I    between atoms: C_6  and  N_5 
REMARK    2  A    between atoms: C_8  and  C_6 
REMARK    3  A    between atoms: O_16  and  C_12 
ROOT
ATOM      1  C   UNL d   1      61.394  46.438  50.324  0.00  0.00     0.124 A 
ATOM      2  C   UNL d   1      61.139  45.668  50.365  0.00  0.00     0.093 A 
ATOM      3  S   UNL d   1      61.962  46.515  49.738  0.00  0.00    -0.067 SA
ATOM      4  C   UNL d   1      61.539  45.226  49.803  0.00  0.00     0.018 A 
ATOM      5  C   UNL d   1      62.070  45.771  49.399  0.00  0.00     0.032 A 
ATOM      6  C   UNL d   1      60.539  45.346  50.910  0.00  0.00     0.103 C 
ATOM      7  N   UNL d   1      59.966  45.049  51.435  0.00  0.00    -0.191 NA
ATOM      8  C   UNL d   1      61.657  44.491  49.455  0.00  0.00     0.001 A 
ATOM      9  C   UNL d   1      62.480  45.338  48.829  0.00  0.00     0.006 A 
ATOM     10  C   UNL d   1      62.222  44.556  48.869  0.00  0.00     0.001 A 
ENDROOT
BRANCH   1  11
ATOM     11  N   UNL d   1      61.111  47.082  50.821  0.00  0.00    -0.201 NA
ATOM     12  C   UNL d   1      61.320  47.847  50.632  0.00  0.00     0.281 C 
ATOM     13  O   UNL d   1      61.803  48.045  49.969  0.00  0.00    -0.265 OA
BRANCH  12  14
ATOM     14  C   UNL d   1      61.045  48.472  51.115  0.00  0.00     0.080 A 
ATOM     15  C   UNL d   1      60.525  49.078  50.787  0.00  0.00     0.099 A 
ATOM     16  C   UNL d   1      60.255  49.691  51.261  0.00  0.00     0.024 A 
ATOM     17  C   UNL d   1      60.503  49.704  52.067  0.00  0.00     0.002 A 
ATOM     18  C   UNL d   1      60.963  49.183  52.392  0.00  0.00     0.000 A 
ATOM     19  C   UNL d   1      61.263  48.527  51.920  0.00  0.00     0.007 A 
BRANCH  15  20
ATOM     20  O   UNL d   1      60.281  49.063  49.986  0.00  0.00    -0.328 OA
ATOM     21  C   UNL d   1      59.882  49.704  49.643  0.00  0.00     0.181 C 
ENDBRANCH  15  20
ENDBRANCH  12  14
ENDBRANCH   1  11
TORSDOF 3
ENDMDL
