MODEL 1
REMARK VINA RESULT:      -6.6      0.000      0.000
REMARK  4 active torsions:
REMARK  status: ('A' for Active; 'I' for Inactive)
REMARK    1  A    between atoms: C_10  and  C_3 
REMARK    2  A    between atoms: N_11  and  C_4 
REMARK    3  A    between atoms: C_14  and  N_11 
REMARK    4  A    between atoms: C_15  and  C_14 
ROOT
ATOM      1  C   UNL d   1     -47.952  13.533  23.062  0.00  0.00     0.150 A 
ATOM      2  N   UNL d   1     -47.506  12.856  23.234  0.00  0.00    -0.275 N 
ATOM      3  C   UNL d   1     -47.577  14.227  22.861  0.00  0.00     0.056 A 
ATOM      4  C   UNL d   1     -46.693  12.893  23.200  0.00  0.00     0.149 A 
ATOM      5  N   UNL d   1     -48.761  13.515  23.090  0.00  0.00    -0.227 NA
ATOM      6  C   UNL d   1     -46.752  14.255  22.830  0.00  0.00     0.007 A 
ATOM      7  C   UNL d   1     -46.316  13.593  22.998  0.00  0.00     0.038 A 
ATOM      8  C   UNL d   1     -48.703  12.136  23.464  0.00  0.00     0.084 A 
ATOM      9  C   UNL d   1     -49.144  12.812  23.293  0.00  0.00     0.099 A 
ATOM     10  C   UNL d   1     -46.379  14.952  22.629  0.00  0.00     0.000 C 
ATOM     11  C   UNL d   1     -49.083  11.443  23.665  0.00  0.00     0.019 A 
ATOM     12  C   UNL d   1     -49.960  12.772  23.327  0.00  0.00     0.021 A 
ATOM     13  C   UNL d   1     -49.894  11.407  23.698  0.00  0.00     0.002 A 
ATOM     14  C   UNL d   1     -50.341  12.079  23.527  0.00  0.00     0.002 A 
ENDROOT
BRANCH   4  15
ATOM     15  N   UNL d   1     -46.245  12.192  23.378  0.00  0.00    -0.225 NA
BRANCH  15  16
ATOM     16  C   UNL d   1     -45.582  11.967  22.888  0.00  0.00     0.120 C 
BRANCH  16  17
ATOM     17  C   UNL d   1     -45.064  11.337  23.129  0.00  0.00     0.101 A 
ATOM     18  N   UNL d   1     -44.212  11.430  23.040  0.00  0.00    -0.242 NA
ATOM     19  C   UNL d   1     -43.693  10.799  23.281  0.00  0.00     0.099 A 
ATOM     20  C   UNL d   1     -44.018  10.076  23.609  0.00  0.00     0.021 A 
ATOM     21  C   UNL d   1     -44.880   9.983  23.698  0.00  0.00     0.003 A 
ATOM     22  C   UNL d   1     -45.390  10.621  23.454  0.00  0.00     0.021 A 
ENDBRANCH  16  17
ENDBRANCH  15  16
ENDBRANCH   4  15
BRANCH   3  23
ATOM     23  C   UNL d   1     -48.010  14.891  22.693  0.00  0.00     0.125 C 
ATOM     24  N   UNL d   1     -47.933  15.210  21.931  0.00  0.00    -0.146 N 
ENDBRANCH   3  23
TORSDOF 4
ENDMDL
MODEL 2
REMARK VINA RESULT:      -6.1      1.507      3.016
REMARK  4 active torsions:
REMARK  status: ('A' for Active; 'I' for Inactive)
REMARK    1  A    between atoms: C_10  and  C_3 
REMARK    2  A    between atoms: N_11  and  C_4 
REMARK    3  A    between atoms: C_14  and  N_11 
REMARK    4  A    between atoms: C_15  and  C_14 
ROOT
ATOM      1  C   UNL d   1     -49.547  13.010  23.480  0.00  0.00     0.150 A 
ATOM      2  N   UNL d   1     -48.796  13.337  23.349  0.00  0.00    -0.275 N 
ATOM      3  C   UNL d   1     -49.629  12.205  23.570  0.00  0.00     0.056 A 
ATOM      4  C   UNL d   1     -48.147  12.846  23.313  0.00  0.00     0.149 A 
ATOM      5  N   UNL d   1     -50.203  13.482  23.519  0.00  0.00    -0.227 NA
ATOM      6  C   UNL d   1     -48.965  11.716  23.532  0.00  0.00     0.007 A 
ATOM      7  C   UNL d   1     -48.232  12.036  23.405  0.00  0.00     0.038 A 
ATOM      8  C   UNL d   1     -49.376  14.626  23.297  0.00  0.00     0.084 A 
ATOM      9  C   UNL d   1     -50.122  14.298  23.427  0.00  0.00     0.099 A 
ATOM     10  C   UNL d   1     -49.051  10.910  23.623  0.00  0.00     0.000 C 
ATOM     11  C   UNL d   1     -49.298  15.434  23.207  0.00  0.00     0.019 A 
ATOM     12  C   UNL d   1     -50.771  14.793  23.463  0.00  0.00     0.021 A 
ATOM     13  C   UNL d   1     -49.945  15.922  23.243  0.00  0.00     0.002 A 
ATOM     14  C   UNL d   1     -50.694  15.600  23.373  0.00  0.00     0.002 A 
ENDROOT
BRANCH   4  15
ATOM     15  N   UNL d   1     -47.381  13.192  23.179  0.00  0.00    -0.225 NA
BRANCH  15  16
ATOM     16  C   UNL d   1     -46.673  12.720  23.262  0.00  0.00     0.120 C 
BRANCH  16  17
ATOM     17  C   UNL d   1     -45.977  12.906  22.811  0.00  0.00     0.101 A 
ATOM     18  N   UNL d   1     -45.805  13.728  22.616  0.00  0.00    -0.242 NA
ATOM     19  C   UNL d   1     -45.107  13.915  22.164  0.00  0.00     0.099 A 
ATOM     20  C   UNL d   1     -44.581  13.288  21.905  0.00  0.00     0.021 A 
ATOM     21  C   UNL d   1     -44.757  12.458  22.103  0.00  0.00     0.003 A 
ATOM     22  C   UNL d   1     -45.457  12.282  22.555  0.00  0.00     0.021 A 
ENDBRANCH  16  17
ENDBRANCH  15  16
ENDBRANCH   4  15
BRANCH   3  23
ATOM     23  C   UNL d   1     -50.361  11.882  23.698  0.00  0.00     0.125 C 
ATOM     24  N   UNL d   1     -50.643  11.345  23.132  0.00  0.00    -0.146 N 
ENDBRANCH   3  23
TORSDOF 4
ENDMDL
MODEL 3
REMARK VINA RESULT:      -6.0      1.529      4.239
REMARK  4 active torsions:
REMARK  status: ('A' for Active; 'I' for Inactive)
REMARK    1  A    between atoms: C_10  and  C_3 
REMARK    2  A    between atoms: N_11  and  C_4 
REMARK    3  A    between atoms: C_14  and  N_11 
REMARK    4  A    between atoms: C_15  and  C_14 
ROOT
ATOM      1  C   UNL d   1     -46.796  13.034  22.855  0.00  0.00     0.150 A 
ATOM      2  N   UNL d   1     -47.459  13.497  23.038  0.00  0.00    -0.275 N 
ATOM      3  C   UNL d   1     -46.109  13.389  22.601  0.00  0.00     0.056 A 
ATOM      4  C   UNL d   1     -47.415  14.306  22.960  0.00  0.00     0.149 A 
ATOM      5  N   UNL d   1     -46.821  12.228  22.926  0.00  0.00    -0.227 NA
ATOM      6  C   UNL d   1     -46.075  14.211  22.525  0.00  0.00     0.007 A 
ATOM      7  C   UNL d   1     -46.722  14.663  22.704  0.00  0.00     0.038 A 
ATOM      8  C   UNL d   1     -48.178  12.323  23.366  0.00  0.00     0.084 A 
ATOM      9  C   UNL d   1     -47.516  11.865  23.184  0.00  0.00     0.099 A 
ATOM     10  C   UNL d   1     -45.385  14.564  22.270  0.00  0.00     0.000 C 
ATOM     11  C   UNL d   1     -48.864  11.962  23.621  0.00  0.00     0.019 A 
ATOM     12  C   UNL d   1     -47.564  11.052  23.263  0.00  0.00     0.021 A 
ATOM     13  C   UNL d   1     -48.907  11.155  23.698  0.00  0.00     0.002 A 
ATOM     14  C   UNL d   1     -48.249  10.691  23.517  0.00  0.00     0.002 A 
ENDROOT
BRANCH   4  15
ATOM     15  N   UNL d   1     -48.101  14.772  23.150  0.00  0.00    -0.225 NA
BRANCH  15  16
ATOM     16  C   UNL d   1     -48.638  15.022  22.533  0.00  0.00     0.120 C 
BRANCH  16  17
ATOM     17  C   UNL d   1     -49.444  15.220  22.719  0.00  0.00     0.101 A 
ATOM     18  N   UNL d   1     -50.074  14.989  22.178  0.00  0.00    -0.242 NA
ATOM     19  C   UNL d   1     -50.881  15.188  22.365  0.00  0.00     0.099 A 
ATOM     20  C   UNL d   1     -51.064  15.614  23.086  0.00  0.00     0.021 A 
ATOM     21  C   UNL d   1     -50.426  15.846  23.632  0.00  0.00     0.003 A 
ATOM     22  C   UNL d   1     -49.622  15.643  23.436  0.00  0.00     0.021 A 
ENDBRANCH  16  17
ENDBRANCH  15  16
ENDBRANCH   4  15
BRANCH   3  23
ATOM     23  C   UNL d   1     -45.460  12.939  22.422  0.00  0.00     0.125 C 
ATOM     24  N   UNL d   1     -45.210  12.933  21.631  0.00  0.00    -0.146 N 
ENDBRANCH   3  23
TORSDOF 4
ENDMDL
MODEL 4
REMARK VINA RESULT:      -5.6      1.144      1.648
REMARK  4 active torsions:
REMARK  status: ('A' for Active; 'I' for Inactive)
REMARK    1  A    between atoms: C_10  and  C_3 
REMARK    2  A    between atoms: N_11  and  C_4 
REMARK    3  A    between atoms: C_14  and  N_11 
REMARK    4  A    between atoms: C_15  and  C_14 
ROOT
ATOM      1  C   UNL d   1     -49.222  14.010  22.931  0.00  0.00     0.150 A 
ATOM      2  N   UNL d   1     -48.534  13.556  23.022  0.00  0.00    -0.275 N 
ATOM      3  C   UNL d   1     -49.167  14.794  22.718  0.00  0.00     0.056 A 
ATOM      4  C   UNL d   1     -47.807  13.903  22.897  0.00  0.00     0.149 A 
ATOM      5  N   UNL d   1     -49.952  13.682  23.051  0.00  0.00    -0.227 NA
ATOM      6  C   UNL d   1     -48.426  15.135  22.594  0.00  0.00     0.007 A 
ATOM      7  C   UNL d   1     -47.753  14.692  22.683  0.00  0.00     0.038 A 
ATOM      8  C   UNL d   1     -49.327  12.434  23.358  0.00  0.00     0.084 A 
ATOM      9  C   UNL d   1     -50.010  12.887  23.267  0.00  0.00     0.099 A 
ATOM     10  C   UNL d   1     -48.374  15.921  22.380  0.00  0.00     0.000 C 
ATOM     11  C   UNL d   1     -49.386  11.648  23.572  0.00  0.00     0.019 A 
ATOM     12  C   UNL d   1     -50.738  12.537  23.393  0.00  0.00     0.021 A 
ATOM     13  C   UNL d   1     -50.111  11.304  23.696  0.00  0.00     0.002 A 
ATOM     14  C   UNL d   1     -50.798  11.752  23.607  0.00  0.00     0.002 A 
ENDROOT
BRANCH   4  15
ATOM     15  N   UNL d   1     -47.107  13.428  22.993  0.00  0.00    -0.225 NA
BRANCH  15  16
ATOM     16  C   UNL d   1     -46.651  13.189  22.311  0.00  0.00     0.120 C 
BRANCH  16  17
ATOM     17  C   UNL d   1     -45.887  12.827  22.410  0.00  0.00     0.101 A 
ATOM     18  N   UNL d   1     -45.208  13.146  21.986  0.00  0.00    -0.242 NA
ATOM     19  C   UNL d   1     -44.444  12.783  22.085  0.00  0.00     0.099 A 
ATOM     20  C   UNL d   1     -44.352  12.106  22.605  0.00  0.00     0.021 A 
ATOM     21  C   UNL d   1     -45.040  11.786  23.033  0.00  0.00     0.003 A 
ATOM     22  C   UNL d   1     -45.800  12.156  22.926  0.00  0.00     0.021 A 
ENDBRANCH  16  17
ENDBRANCH  15  16
ENDBRANCH   4  15
BRANCH   3  23
ATOM     23  C   UNL d   1     -49.838  15.239  22.628  0.00  0.00     0.125 C 
ATOM     24  N   UNL d   1     -50.297  15.099  21.952  0.00  0.00    -0.146 N 
ENDBRANCH   3  23
TORSDOF 4
ENDMDL
MODEL 5
REMARK VINA RESULT:      -5.6      0.991      4.120
REMARK  4 active torsions:
REMARK  status: ('A' for Active; 'I' for Inactive)
REMARK    1  A    between atoms: C_10  and  C_3 
REMARK    2  A    between atoms: N_11  and  C_4 
REMARK    3  A    between atoms: C_14  and  N_11 
REMARK    4  A    between atoms: C_15  and  C_14 
ROOT
ATOM      1  C   UNL d   1     -45.895  12.679  22.954  0.00  0.00     0.150 A 
ATOM      2  N   UNL d   1     -46.622  12.342  23.166  0.00  0.00    -0.275 N 
ATOM      3  C   UNL d   1     -45.862  13.457  22.717  0.00  0.00     0.056 A 
ATOM      4  C   UNL d   1     -47.297  12.796  23.135  0.00  0.00     0.149 A 
ATOM      5  N   UNL d   1     -45.213  12.243  22.978  0.00  0.00    -0.227 NA
ATOM      6  C   UNL d   1     -46.552  13.909  22.689  0.00  0.00     0.007 A 
ATOM      7  C   UNL d   1     -47.262  13.579  22.897  0.00  0.00     0.038 A 
ATOM      8  C   UNL d   1     -45.967  11.116  23.431  0.00  0.00     0.084 A 
ATOM      9  C   UNL d   1     -45.245  11.454  23.218  0.00  0.00     0.099 A 
ATOM     10  C   UNL d   1     -46.515  14.689  22.451  0.00  0.00     0.000 C 
ATOM     11  C   UNL d   1     -45.995  10.335  23.668  0.00  0.00     0.019 A 
ATOM     12  C   UNL d   1     -44.568  10.996  23.250  0.00  0.00     0.021 A 
ATOM     13  C   UNL d   1     -45.321   9.884  23.698  0.00  0.00     0.002 A 
ATOM     14  C   UNL d   1     -44.596  10.216  23.487  0.00  0.00     0.002 A 
ENDROOT
BRANCH   4  15
ATOM     15  N   UNL d   1     -48.038  12.440  23.356  0.00  0.00    -0.225 NA
BRANCH  15  16
ATOM     16  C   UNL d   1     -48.713  12.487  22.832  0.00  0.00     0.120 C 
BRANCH  16  17
ATOM     17  C   UNL d   1     -49.493  12.307  23.120  0.00  0.00     0.101 A 
ATOM     18  N   UNL d   1     -49.675  11.508  23.384  0.00  0.00    -0.242 NA
ATOM     19  C   UNL d   1     -50.456  11.328  23.672  0.00  0.00     0.099 A 
ATOM     20  C   UNL d   1     -51.057  11.940  23.698  0.00  0.00     0.021 A 
ATOM     21  C   UNL d   1     -50.871  12.748  23.430  0.00  0.00     0.003 A 
ATOM     22  C   UNL d   1     -50.086  12.917  23.144  0.00  0.00     0.021 A 
ENDBRANCH  16  17
ENDBRANCH  15  16
ENDBRANCH   4  15
BRANCH   3  23
ATOM     23  C   UNL d   1     -45.153  13.789  22.509  0.00  0.00     0.125 C 
ATOM     24  N   UNL d   1     -45.013  13.907  21.700  0.00  0.00    -0.146 N 
ENDBRANCH   3  23
TORSDOF 4
ENDMDL
MODEL 6
REMARK VINA RESULT:      -5.4      1.128      4.426
REMARK  4 active torsions:
REMARK  status: ('A' for Active; 'I' for Inactive)
REMARK    1  A    between atoms: C_10  and  C_3 
REMARK    2  A    between atoms: N_11  and  C_4 
REMARK    3  A    between atoms: C_14  and  N_11 
REMARK    4  A    between atoms: C_15  and  C_14 
ROOT
ATOM      1  C   UNL d   1     -46.219  12.302  23.212  0.00  0.00     0.150 A 
ATOM      2  N   UNL d   1     -47.037  12.365  23.334  0.00  0.00    -0.275 N 
ATOM      3  C   UNL d   1     -45.843  11.590  23.334  0.00  0.00     0.056 A 
ATOM      4  C   UNL d   1     -47.456  11.709  23.575  0.00  0.00     0.149 A 
ATOM      5  N   UNL d   1     -45.786  12.943  22.973  0.00  0.00    -0.227 NA
ATOM      6  C   UNL d   1     -46.277  10.932  23.577  0.00  0.00     0.007 A 
ATOM      7  C   UNL d   1     -47.076  10.993  23.696  0.00  0.00     0.038 A 
ATOM      8  C   UNL d   1     -46.979  13.731  22.970  0.00  0.00     0.084 A 
ATOM      9  C   UNL d   1     -46.166  13.666  22.850  0.00  0.00     0.099 A 
ATOM     10  C   UNL d   1     -45.897  10.220  23.698  0.00  0.00     0.000 C 
ATOM     11  C   UNL d   1     -47.352  14.446  22.848  0.00  0.00     0.019 A 
ATOM     12  C   UNL d   1     -45.747  14.326  22.608  0.00  0.00     0.021 A 
ATOM     13  C   UNL d   1     -46.934  15.099  22.608  0.00  0.00     0.002 A 
ATOM     14  C   UNL d   1     -46.120  15.041  22.486  0.00  0.00     0.002 A 
ENDROOT
BRANCH   4  15
ATOM     15  N   UNL d   1     -48.295  11.784  23.697  0.00  0.00    -0.225 NA
BRANCH  15  16
ATOM     16  C   UNL d   1     -48.843  11.563  23.078  0.00  0.00     0.120 C 
BRANCH  16  17
ATOM     17  C   UNL d   1     -49.578  11.981  22.986  0.00  0.00     0.101 A 
ATOM     18  N   UNL d   1     -49.977  12.296  23.682  0.00  0.00    -0.242 NA
ATOM     19  C   UNL d   1     -50.713  12.714  23.589  0.00  0.00     0.099 A 
ATOM     20  C   UNL d   1     -51.053  12.821  22.809  0.00  0.00     0.021 A 
ATOM     21  C   UNL d   1     -50.648  12.502  22.107  0.00  0.00     0.003 A 
ATOM     22  C   UNL d   1     -49.912  12.085  22.210  0.00  0.00     0.021 A 
ENDBRANCH  16  17
ENDBRANCH  15  16
ENDBRANCH   4  15
BRANCH   3  23
ATOM     23  C   UNL d   1     -45.044  11.527  23.215  0.00  0.00     0.125 C 
ATOM     24  N   UNL d   1     -44.700  10.784  23.346  0.00  0.00    -0.146 N 
ENDBRANCH   3  23
TORSDOF 4
ENDMDL
MODEL 7
REMARK VINA RESULT:      -5.4      8.559      9.504
REMARK  4 active torsions:
REMARK  status: ('A' for Active; 'I' for Inactive)
REMARK    1  A    between atoms: C_10  and  C_3 
REMARK    2  A    between atoms: N_11  and  C_4 
REMARK    3  A    between atoms: C_14  and  N_11 
REMARK    4  A    between atoms: C_15  and  C_14 
ROOT
ATOM      1  C   UNL d   1     -39.474  13.864  17.714  0.00  0.00     0.150 A 
ATOM      2  N   UNL d   1     -39.633  14.121  18.486  0.00  0.00    -0.275 N 
ATOM      3  C   UNL d   1     -38.912  13.290  17.583  0.00  0.00     0.056 A 
ATOM      4  C   UNL d   1     -39.223  13.792  19.108  0.00  0.00     0.149 A 
ATOM      5  N   UNL d   1     -39.872  14.179  17.083  0.00  0.00    -0.227 NA
ATOM      6  C   UNL d   1     -38.502  12.963  18.221  0.00  0.00     0.007 A 
ATOM      7  C   UNL d   1     -38.657  13.213  18.976  0.00  0.00     0.038 A 
ATOM      8  C   UNL d   1     -40.602  15.019  17.981  0.00  0.00     0.084 A 
ATOM      9  C   UNL d   1     -40.442  14.762  17.213  0.00  0.00     0.099 A 
ATOM     10  C   UNL d   1     -37.940  12.387  18.087  0.00  0.00     0.000 C 
ATOM     11  C   UNL d   1     -41.166  15.595  18.107  0.00  0.00     0.019 A 
ATOM     12  C   UNL d   1     -40.856  15.094  16.591  0.00  0.00     0.021 A 
ATOM     13  C   UNL d   1     -41.575  15.922  17.486  0.00  0.00     0.002 A 
ATOM     14  C   UNL d   1     -41.420  15.670  16.716  0.00  0.00     0.002 A 
ENDROOT
BRANCH   4  15
ATOM     15  N   UNL d   1     -39.393  14.062  19.897  0.00  0.00    -0.225 NA
BRANCH  15  16
ATOM     16  C   UNL d   1     -38.763  14.152  20.469  0.00  0.00     0.120 C 
BRANCH  16  17
ATOM     17  C   UNL d   1     -38.885  14.613  21.173  0.00  0.00     0.101 A 
ATOM     18  N   UNL d   1     -39.058  15.455  21.105  0.00  0.00    -0.242 NA
ATOM     19  C   UNL d   1     -39.180  15.917  21.810  0.00  0.00     0.099 A 
ATOM     20  C   UNL d   1     -39.130  15.546  22.582  0.00  0.00     0.021 A 
ATOM     21  C   UNL d   1     -38.955  14.695  22.649  0.00  0.00     0.003 A 
ATOM     22  C   UNL d   1     -38.835  14.242  21.937  0.00  0.00     0.021 A 
ENDBRANCH  16  17
ENDBRANCH  15  16
ENDBRANCH   4  15
BRANCH   3  23
ATOM     23  C   UNL d   1     -38.755  13.038  16.830  0.00  0.00     0.125 C 
ATOM     24  N   UNL d   1     -38.143  13.420  16.422  0.00  0.00    -0.146 N 
ENDBRANCH   3  23
TORSDOF 4
ENDMDL
MODEL 8
REMARK VINA RESULT:      -5.1      7.269      9.218
REMARK  4 active torsions:
REMARK  status: ('A' for Active; 'I' for Inactive)
REMARK    1  A    between atoms: C_10  and  C_3 
REMARK    2  A    between atoms: N_11  and  C_4 
REMARK    3  A    between atoms: C_14  and  N_11 
REMARK    4  A    between atoms: C_15  and  C_14 
ROOT
ATOM      1  C   UNL d   1     -39.912  14.692  20.722  0.00  0.00     0.150 A 
ATOM      2  N   UNL d   1     -39.391  14.430  20.132  0.00  0.00    -0.275 N 
ATOM      3  C   UNL d   1     -40.529  15.186  20.528  0.00  0.00     0.056 A 
ATOM      4  C   UNL d   1     -39.504  14.672  19.363  0.00  0.00     0.149 A 
ATOM      5  N   UNL d   1     -39.815  14.462  21.492  0.00  0.00    -0.227 NA
ATOM      6  C   UNL d   1     -40.635  15.425  19.745  0.00  0.00     0.007 A 
ATOM      7  C   UNL d   1     -40.126  15.169  19.169  0.00  0.00     0.038 A 
ATOM      8  C   UNL d   1     -38.669  13.699  21.106  0.00  0.00     0.084 A 
ATOM      9  C   UNL d   1     -39.189  13.961  21.690  0.00  0.00     0.099 A 
ATOM     10  C   UNL d   1     -41.255  15.920  19.555  0.00  0.00     0.000 C 
ATOM     11  C   UNL d   1     -38.052  13.204  21.304  0.00  0.00     0.019 A 
ATOM     12  C   UNL d   1     -39.073  13.717  22.462  0.00  0.00     0.021 A 
ATOM     13  C   UNL d   1     -37.940  12.964  22.072  0.00  0.00     0.002 A 
ATOM     14  C   UNL d   1     -38.456  13.223  22.661  0.00  0.00     0.002 A 
ENDROOT
BRANCH   4  15
ATOM     15  N   UNL d   1     -38.964  14.397  18.766  0.00  0.00    -0.225 NA
BRANCH  15  16
ATOM     16  C   UNL d   1     -39.217  13.822  18.185  0.00  0.00     0.120 C 
BRANCH  16  17
ATOM     17  C   UNL d   1     -38.800  13.743  17.448  0.00  0.00     0.101 A 
ATOM     18  N   UNL d   1     -38.588  14.450  17.003  0.00  0.00    -0.242 NA
ATOM     19  C   UNL d   1     -38.171  14.372  16.264  0.00  0.00     0.099 A 
ATOM     20  C   UNL d   1     -37.963  13.594  15.967  0.00  0.00     0.021 A 
ATOM     21  C   UNL d   1     -38.178  12.881  16.419  0.00  0.00     0.003 A 
ATOM     22  C   UNL d   1     -38.596  12.970  17.156  0.00  0.00     0.021 A 
ENDBRANCH  16  17
ENDBRANCH  15  16
ENDBRANCH   4  15
BRANCH   3  23
ATOM     23  C   UNL d   1     -41.040  15.443  21.102  0.00  0.00     0.125 C 
ATOM     24  N   UNL d   1     -41.799  15.110  21.111  0.00  0.00    -0.146 N 
ENDBRANCH   3  23
TORSDOF 4
ENDMDL
MODEL 9
REMARK VINA RESULT:      -3.9      7.863      9.245
REMARK  4 active torsions:
REMARK  status: ('A' for Active; 'I' for Inactive)
REMARK    1  A    between atoms: C_10  and  C_3 
REMARK    2  A    between atoms: N_11  and  C_4 
REMARK    3  A    between atoms: C_14  and  N_11 
REMARK    4  A    between atoms: C_15  and  C_14 
ROOT
ATOM      1  C   UNL d   1     -40.135  15.168  19.313  0.00  0.00     0.150 A 
ATOM      2  N   UNL d   1     -39.573  14.767  18.853  0.00  0.00    -0.275 N 
ATOM      3  C   UNL d   1     -40.062  15.182  20.124  0.00  0.00     0.056 A 
ATOM      4  C   UNL d   1     -38.952  14.390  19.221  0.00  0.00     0.149 A 
ATOM      5  N   UNL d   1     -40.759  15.548  18.965  0.00  0.00    -0.227 NA
ATOM      6  C   UNL d   1     -39.429  14.796  20.486  0.00  0.00     0.007 A 
ATOM      7  C   UNL d   1     -38.880  14.404  20.038  0.00  0.00     0.038 A 
ATOM      8  C   UNL d   1     -40.278  15.137  17.683  0.00  0.00     0.084 A 
ATOM      9  C   UNL d   1     -40.835  15.536  18.143  0.00  0.00     0.099 A 
ATOM     10  C   UNL d   1     -39.359  14.812  21.299  0.00  0.00     0.000 C 
ATOM     11  C   UNL d   1     -40.354  15.126  16.871  0.00  0.00     0.019 A 
ATOM     12  C   UNL d   1     -41.458  15.913  17.771  0.00  0.00     0.021 A 
ATOM     13  C   UNL d   1     -40.974  15.502  16.505  0.00  0.00     0.002 A 
ATOM     14  C   UNL d   1     -41.535  15.902  16.959  0.00  0.00     0.002 A 
ENDROOT
BRANCH   4  15
ATOM     15  N   UNL d   1     -38.381  13.981  18.740  0.00  0.00    -0.225 NA
BRANCH  15  16
ATOM     16  C   UNL d   1     -38.153  13.179  18.929  0.00  0.00     0.120 C 
BRANCH  16  17
ATOM     17  C   UNL d   1     -38.082  12.596  18.313  0.00  0.00     0.101 A 
ATOM     18  N   UNL d   1     -38.011  11.763  18.523  0.00  0.00    -0.242 NA
ATOM     19  C   UNL d   1     -37.940  11.180  17.906  0.00  0.00     0.099 A 
ATOM     20  C   UNL d   1     -37.940  11.421  17.082  0.00  0.00     0.021 A 
ATOM     21  C   UNL d   1     -38.012  12.264  16.872  0.00  0.00     0.003 A 
ATOM     22  C   UNL d   1     -38.082  12.839  17.497  0.00  0.00     0.021 A 
ENDBRANCH  16  17
ENDBRANCH  15  16
ENDBRANCH   4  15
BRANCH   3  23
ATOM     23  C   UNL d   1     -40.610  15.573  20.575  0.00  0.00     0.125 C 
ATOM     24  N   UNL d   1     -41.033  15.125  21.129  0.00  0.00    -0.146 N 
ENDBRANCH   3  23
TORSDOF 4
ENDMDL
