MODEL 1
REMARK VINA RESULT:      35.8      0.000      0.000
REMARK  2 active torsions:
REMARK  status: ('A' for Active; 'I' for Inactive)
REMARK       I    between atoms: C_6  and  N_7 
REMARK    1  A    between atoms: C_9  and  C_6 
REMARK    2  A    between atoms: N_7  and  C_13 
ROOT
ATOM      1  N   UNL d   1     -51.628  23.229  33.337  0.00  0.00    -0.169 NA
ATOM      2  C   UNL d   1     -52.266  23.747  33.324  0.00  0.00     0.282 A 
ATOM      3  C   UNL d   1     -50.939  23.673  33.345  0.00  0.00     0.282 A 
ATOM      4  C   UNL d   1     -51.965  24.521  33.324  0.00  0.00     0.064 A 
ATOM      5  C   UNL d   1     -51.149  24.467  33.337  0.00  0.00     0.063 A 
ATOM      6  C   UNL d   1     -50.696  25.158  33.340  0.00  0.00     0.006 A 
ATOM      7  C   UNL d   1     -52.344  25.255  33.314  0.00  0.00     0.024 A 
ATOM      8  O   UNL d   1     -53.057  23.518  33.313  0.00  0.00    -0.265 OA
ATOM      9  O   UNL d   1     -50.169  23.381  33.358  0.00  0.00    -0.265 OA
ATOM     10  C   UNL d   1     -51.893  25.940  33.317  0.00  0.00     0.085 A 
ATOM     11  C   UNL d   1     -51.065  25.896  33.330  0.00  0.00     0.019 A 
ENDROOT
BRANCH  10  12
ATOM     12  N   UNL d   1     -52.270  26.675  33.307  0.00  0.00    -0.208 NA
ATOM     13  C   UNL d   1     -51.830  27.363  33.394  0.00  0.00     0.279 C 
ATOM     14  O   UNL d   1     -52.210  28.091  33.383  0.00  0.00    -0.265 OA
BRANCH  13  15
ATOM     15  C   UNL d   1     -51.020  27.327  33.489  0.00  0.00     0.058 A 
ATOM     16  C   UNL d   1     -50.591  28.029  33.568  0.00  0.00     0.005 A 
ATOM     17  C   UNL d   1     -49.776  28.006  33.664  0.00  0.00     0.000 A 
ATOM     18  C   UNL d   1     -49.380  27.274  33.683  0.00  0.00     0.000 A 
ATOM     19  C   UNL d   1     -49.812  26.575  33.604  0.00  0.00     0.000 A 
ATOM     20  C   UNL d   1     -48.555  27.243  33.781  0.00  0.00     0.000 C 
ATOM     21  C   UNL d   1     -50.629  26.609  33.508  0.00  0.00     0.005 A 
ENDBRANCH  13  15
ENDBRANCH  10  12
TORSDOF 2
ENDMDL
MODEL 2
REMARK VINA RESULT:      37.5      1.496      3.135
REMARK  2 active torsions:
REMARK  status: ('A' for Active; 'I' for Inactive)
REMARK       I    between atoms: C_6  and  N_7 
REMARK    1  A    between atoms: C_9  and  C_6 
REMARK    2  A    between atoms: N_7  and  C_13 
ROOT
ATOM      1  N   UNL d   1     -48.526  24.547  33.444  0.00  0.00    -0.169 NA
ATOM      2  C   UNL d   1     -48.755  25.335  33.466  0.00  0.00     0.282 A 
ATOM      3  C   UNL d   1     -49.202  24.086  33.385  0.00  0.00     0.282 A 
ATOM      4  C   UNL d   1     -49.583  25.361  33.420  0.00  0.00     0.064 A 
ATOM      5  C   UNL d   1     -49.850  24.589  33.370  0.00  0.00     0.063 A 
ATOM      6  C   UNL d   1     -50.662  24.443  33.316  0.00  0.00     0.006 A 
ATOM      7  C   UNL d   1     -50.112  25.996  33.417  0.00  0.00     0.024 A 
ATOM      8  O   UNL d   1     -48.237  25.974  33.525  0.00  0.00    -0.265 OA
ATOM      9  O   UNL d   1     -49.232  23.263  33.346  0.00  0.00    -0.265 OA
ATOM     10  C   UNL d   1     -50.917  25.849  33.364  0.00  0.00     0.085 A 
ATOM     11  C   UNL d   1     -51.197  25.070  33.313  0.00  0.00     0.019 A 
ENDROOT
BRANCH  10  12
ATOM     12  N   UNL d   1     -51.446  26.483  33.362  0.00  0.00    -0.208 NA
ATOM     13  C   UNL d   1     -52.255  26.341  33.366  0.00  0.00     0.279 C 
ATOM     14  O   UNL d   1     -52.778  26.975  33.363  0.00  0.00    -0.265 OA
BRANCH  13  15
ATOM     15  C   UNL d   1     -52.542  25.577  33.372  0.00  0.00     0.058 A 
ATOM     16  C   UNL d   1     -53.357  25.451  33.323  0.00  0.00     0.005 A 
ATOM     17  C   UNL d   1     -53.658  24.687  33.328  0.00  0.00     0.000 A 
ATOM     18  C   UNL d   1     -53.140  24.036  33.383  0.00  0.00     0.000 A 
ATOM     19  C   UNL d   1     -52.326  24.167  33.431  0.00  0.00     0.000 A 
ATOM     20  C   UNL d   1     -53.437  23.260  33.389  0.00  0.00     0.000 C 
ATOM     21  C   UNL d   1     -52.036  24.937  33.425  0.00  0.00     0.005 A 
ENDBRANCH  13  15
ENDBRANCH  10  12
TORSDOF 2
ENDMDL
