MODEL 1
REMARK VINA RESULT:      -7.8      0.000      0.000
REMARK  5 active torsions:
REMARK  status: ('A' for Active; 'I' for Inactive)
REMARK    1  A    between atoms: C_15  and  C_4 
REMARK       I    between atoms: C_11  and  N_14 
REMARK    2  A    between atoms: C_19  and  C_11 
REMARK    3  A    between atoms: N_14  and  C_16 
REMARK    4  A    between atoms: C_16  and  C_15 
REMARK    5  A    between atoms: C_20  and  C_19 
ROOT
ATOM      1  N   UNL d   1     -49.905  12.525  23.395  0.00  0.00    -0.208 NA
ATOM      2  C   UNL d   1     -49.361  11.913  23.504  0.00  0.00     0.279 A 
ATOM      3  C   UNL d   1     -49.634  13.295  23.217  0.00  0.00     0.085 A 
ATOM      4  C   UNL d   1     -48.544  12.066  23.436  0.00  0.00     0.059 A 
ATOM      5  C   UNL d   1     -48.281  12.830  23.260  0.00  0.00     0.006 A 
ATOM      6  C   UNL d   1     -48.824  13.439  23.151  0.00  0.00     0.018 A 
ATOM      7  C   UNL d   1     -50.186  13.901  23.110  0.00  0.00     0.019 A 
ATOM      8  C   UNL d   1     -48.562  14.206  22.975  0.00  0.00     0.002 A 
ATOM      9  C   UNL d   1     -49.106  14.815  22.866  0.00  0.00     0.000 A 
ATOM     10  C   UNL d   1     -49.923  14.661  22.934  0.00  0.00     0.002 A 
ATOM     11  O   UNL d   1     -49.624  11.153  23.679  0.00  0.00    -0.265 OA
ATOM     12  C   UNL d   1     -48.850  15.572  22.692  0.00  0.00     0.000 C 
ATOM     13  C   UNL d   1     -50.466  15.269  22.826  0.00  0.00     0.000 C 
ENDROOT
BRANCH   4  14
ATOM     14  C   UNL d   1     -48.008  11.456  23.544  0.00  0.00     0.026 C 
BRANCH  14  15
ATOM     15  C   UNL d   1     -47.206  11.574  23.423  0.00  0.00     0.102 C 
BRANCH  15  16
ATOM     16  N   UNL d   1     -46.662  10.963  23.537  0.00  0.00    -0.206 NA
ATOM     17  C   UNL d   1     -45.854  11.127  23.583  0.00  0.00     0.279 C 
ATOM     18  O   UNL d   1     -45.583  11.899  23.516  0.00  0.00    -0.265 OA
BRANCH  17  19
ATOM     19  C   UNL d   1     -45.316  10.508  23.697  0.00  0.00     0.062 C 
BRANCH  19  20
ATOM     20  C   UNL d   1     -44.510  10.628  23.546  0.00  0.00     0.005 C 
ATOM     21  C   UNL d   1     -43.967  10.038  23.689  0.00  0.00     0.000 C 
ENDBRANCH  19  20
ENDBRANCH  17  19
ENDBRANCH  15  16
ENDBRANCH  14  15
ENDBRANCH   4  14
TORSDOF 5
ENDMDL
MODEL 2
REMARK VINA RESULT:      -7.6      2.001      2.670
REMARK  5 active torsions:
REMARK  status: ('A' for Active; 'I' for Inactive)
REMARK    1  A    between atoms: C_15  and  C_4 
REMARK       I    between atoms: C_11  and  N_14 
REMARK    2  A    between atoms: C_19  and  C_11 
REMARK    3  A    between atoms: N_14  and  C_16 
REMARK    4  A    between atoms: C_16  and  C_15 
REMARK    5  A    between atoms: C_20  and  C_19 
ROOT
ATOM      1  N   UNL d   1     -48.815  14.362  22.817  0.00  0.00    -0.208 NA
ATOM      2  C   UNL d   1     -48.000  14.475  22.736  0.00  0.00     0.279 A 
ATOM      3  C   UNL d   1     -49.110  13.613  23.040  0.00  0.00     0.085 A 
ATOM      4  C   UNL d   1     -47.476  13.841  22.877  0.00  0.00     0.059 A 
ATOM      5  C   UNL d   1     -47.774  13.102  23.098  0.00  0.00     0.006 A 
ATOM      6  C   UNL d   1     -48.586  12.991  23.178  0.00  0.00     0.018 A 
ATOM      7  C   UNL d   1     -49.927  13.510  23.118  0.00  0.00     0.019 A 
ATOM      8  C   UNL d   1     -48.886  12.250  23.399  0.00  0.00     0.002 A 
ATOM      9  C   UNL d   1     -49.698  12.139  23.480  0.00  0.00     0.000 A 
ATOM     10  C   UNL d   1     -50.222  12.773  23.338  0.00  0.00     0.002 A 
ATOM     11  O   UNL d   1     -47.706  15.211  22.516  0.00  0.00    -0.265 OA
ATOM     12  C   UNL d   1     -49.997  11.409  23.698  0.00  0.00     0.000 C 
ATOM     13  C   UNL d   1     -51.033  12.663  23.418  0.00  0.00     0.000 C 
ENDROOT
BRANCH   4  14
ATOM     14  C   UNL d   1     -46.670  13.958  22.796  0.00  0.00     0.026 C 
BRANCH  14  15
ATOM     15  C   UNL d   1     -46.175  13.341  22.581  0.00  0.00     0.102 C 
BRANCH  15  16
ATOM     16  N   UNL d   1     -45.514  13.469  22.105  0.00  0.00    -0.206 NA
ATOM     17  C   UNL d   1     -44.891  12.927  22.100  0.00  0.00     0.279 C 
ATOM     18  O   UNL d   1     -44.923  12.254  22.569  0.00  0.00    -0.265 OA
BRANCH  17  19
ATOM     19  C   UNL d   1     -44.231  13.064  21.619  0.00  0.00     0.062 C 
BRANCH  19  20
ATOM     20  C   UNL d   1     -43.559  12.583  21.692  0.00  0.00     0.005 C 
ATOM     21  C   UNL d   1     -42.874  12.761  21.288  0.00  0.00     0.000 C 
ENDBRANCH  19  20
ENDBRANCH  17  19
ENDBRANCH  15  16
ENDBRANCH  14  15
ENDBRANCH   4  14
TORSDOF 5
ENDMDL
MODEL 3
REMARK VINA RESULT:      -7.4      1.418      2.025
REMARK  5 active torsions:
REMARK  status: ('A' for Active; 'I' for Inactive)
REMARK    1  A    between atoms: C_15  and  C_4 
REMARK       I    between atoms: C_11  and  N_14 
REMARK    2  A    between atoms: C_19  and  C_11 
REMARK    3  A    between atoms: N_14  and  C_16 
REMARK    4  A    between atoms: C_16  and  C_15 
REMARK    5  A    between atoms: C_20  and  C_19 
ROOT
ATOM      1  N   UNL d   1     -48.044  14.607  22.432  0.00  0.00    -0.208 NA
ATOM      2  C   UNL d   1     -47.297  14.288  22.585  0.00  0.00     0.279 A 
ATOM      3  C   UNL d   1     -48.707  14.103  22.373  0.00  0.00     0.085 A 
ATOM      4  C   UNL d   1     -47.208  13.464  22.681  0.00  0.00     0.059 A 
ATOM      5  C   UNL d   1     -47.868  12.969  22.621  0.00  0.00     0.006 A 
ATOM      6  C   UNL d   1     -48.612  13.289  22.468  0.00  0.00     0.018 A 
ATOM      7  C   UNL d   1     -49.450  14.432  22.219  0.00  0.00     0.019 A 
ATOM      8  C   UNL d   1     -49.275  12.794  22.408  0.00  0.00     0.002 A 
ATOM      9  C   UNL d   1     -50.018  13.113  22.255  0.00  0.00     0.000 A 
ATOM     10  C   UNL d   1     -50.106  13.937  22.160  0.00  0.00     0.002 A 
ATOM     11  O   UNL d   1     -46.642  14.782  22.644  0.00  0.00    -0.265 OA
ATOM     12  C   UNL d   1     -50.674  12.627  22.195  0.00  0.00     0.000 C 
ATOM     13  C   UNL d   1     -50.849  14.257  22.007  0.00  0.00     0.000 C 
ENDROOT
BRANCH   4  14
ATOM     14  C   UNL d   1     -46.467  13.152  22.833  0.00  0.00     0.026 C 
BRANCH  14  15
ATOM     15  C   UNL d   1     -46.384  12.429  23.210  0.00  0.00     0.102 C 
BRANCH  15  16
ATOM     16  N   UNL d   1     -45.640  12.088  23.321  0.00  0.00    -0.206 NA
ATOM     17  C   UNL d   1     -45.573  11.302  23.565  0.00  0.00     0.279 C 
ATOM     18  O   UNL d   1     -46.246  10.851  23.698  0.00  0.00    -0.265 OA
BRANCH  17  19
ATOM     19  C   UNL d   1     -44.824  10.968  23.674  0.00  0.00     0.062 C 
BRANCH  19  20
ATOM     20  C   UNL d   1     -44.737  10.144  23.698  0.00  0.00     0.005 C 
ATOM     21  C   UNL d   1     -43.997   9.803  23.694  0.00  0.00     0.000 C 
ENDBRANCH  19  20
ENDBRANCH  17  19
ENDBRANCH  15  16
ENDBRANCH  14  15
ENDBRANCH   4  14
TORSDOF 5
ENDMDL
MODEL 4
REMARK VINA RESULT:      -6.8      1.640      1.782
REMARK  5 active torsions:
REMARK  status: ('A' for Active; 'I' for Inactive)
REMARK    1  A    between atoms: C_15  and  C_4 
REMARK       I    between atoms: C_11  and  N_14 
REMARK    2  A    between atoms: C_19  and  C_11 
REMARK    3  A    between atoms: N_14  and  C_16 
REMARK    4  A    between atoms: C_16  and  C_15 
REMARK    5  A    between atoms: C_20  and  C_19 
ROOT
ATOM      1  N   UNL d   1     -49.025  12.243  22.922  0.00  0.00    -0.208 NA
ATOM      2  C   UNL d   1     -48.230  12.028  22.994  0.00  0.00     0.279 A 
ATOM      3  C   UNL d   1     -49.244  13.047  22.968  0.00  0.00     0.085 A 
ATOM      4  C   UNL d   1     -47.650  12.616  23.113  0.00  0.00     0.059 A 
ATOM      5  C   UNL d   1     -47.873  13.411  23.158  0.00  0.00     0.006 A 
ATOM      6  C   UNL d   1     -48.665  13.623  23.085  0.00  0.00     0.018 A 
ATOM      7  C   UNL d   1     -50.042  13.251  22.894  0.00  0.00     0.019 A 
ATOM      8  C   UNL d   1     -48.890  14.420  23.130  0.00  0.00     0.002 A 
ATOM      9  C   UNL d   1     -49.683  14.632  23.057  0.00  0.00     0.000 A 
ATOM     10  C   UNL d   1     -50.262  14.044  22.939  0.00  0.00     0.002 A 
ATOM     11  O   UNL d   1     -48.010  11.237  22.949  0.00  0.00    -0.265 OA
ATOM     12  C   UNL d   1     -49.907  15.418  23.101  0.00  0.00     0.000 C 
ATOM     13  C   UNL d   1     -51.054  14.254  22.866  0.00  0.00     0.000 C 
ENDROOT
BRANCH   4  14
ATOM     14  C   UNL d   1     -46.864  12.400  23.184  0.00  0.00     0.026 C 
BRANCH  14  15
ATOM     15  C   UNL d   1     -46.270  12.858  22.855  0.00  0.00     0.102 C 
BRANCH  15  16
ATOM     16  N   UNL d   1     -45.551  12.524  22.622  0.00  0.00    -0.206 NA
ATOM     17  C   UNL d   1     -44.966  12.992  22.275  0.00  0.00     0.279 C 
ATOM     18  O   UNL d   1     -45.092  13.795  22.157  0.00  0.00    -0.265 OA
BRANCH  17  19
ATOM     19  C   UNL d   1     -44.249  12.649  22.045  0.00  0.00     0.062 C 
BRANCH  19  20
ATOM     20  C   UNL d   1     -43.851  12.931  21.375  0.00  0.00     0.005 C 
ATOM     21  C   UNL d   1     -43.050  12.813  21.284  0.00  0.00     0.000 C 
ENDBRANCH  19  20
ENDBRANCH  17  19
ENDBRANCH  15  16
ENDBRANCH  14  15
ENDBRANCH   4  14
TORSDOF 5
ENDMDL
MODEL 5
REMARK VINA RESULT:      -5.1      3.691      4.920
REMARK  5 active torsions:
REMARK  status: ('A' for Active; 'I' for Inactive)
REMARK    1  A    between atoms: C_15  and  C_4 
REMARK       I    between atoms: C_11  and  N_14 
REMARK    2  A    between atoms: C_19  and  C_11 
REMARK    3  A    between atoms: N_14  and  C_16 
REMARK    4  A    between atoms: C_16  and  C_15 
REMARK    5  A    between atoms: C_20  and  C_19 
ROOT
ATOM      1  N   UNL d   1     -44.792  11.907  22.878  0.00  0.00    -0.208 NA
ATOM      2  C   UNL d   1     -44.106  11.964  22.420  0.00  0.00     0.279 A 
ATOM      3  C   UNL d   1     -45.397  12.476  22.793  0.00  0.00     0.085 A 
ATOM      4  C   UNL d   1     -44.021  12.590  21.875  0.00  0.00     0.059 A 
ATOM      5  C   UNL d   1     -44.624  13.151  21.795  0.00  0.00     0.006 A 
ATOM      6  C   UNL d   1     -45.306  13.092  22.252  0.00  0.00     0.018 A 
ATOM      7  C   UNL d   1     -46.080  12.410  23.256  0.00  0.00     0.019 A 
ATOM      8  C   UNL d   1     -45.911  13.654  22.173  0.00  0.00     0.002 A 
ATOM      9  C   UNL d   1     -46.594  13.596  22.630  0.00  0.00     0.000 A 
ATOM     10  C   UNL d   1     -46.678  12.970  23.175  0.00  0.00     0.002 A 
ATOM     11  O   UNL d   1     -43.509  11.405  22.501  0.00  0.00    -0.265 OA
ATOM     12  C   UNL d   1     -47.192  14.149  22.554  0.00  0.00     0.000 C 
ATOM     13  C   UNL d   1     -47.360  12.911  23.632  0.00  0.00     0.000 C 
ENDROOT
BRANCH   4  14
ATOM     14  C   UNL d   1     -43.341  12.643  21.424  0.00  0.00     0.026 C 
BRANCH  14  15
ATOM     15  C   UNL d   1     -42.919  13.344  21.380  0.00  0.00     0.102 C 
BRANCH  15  16
ATOM     16  N   UNL d   1     -42.151  13.363  21.076  0.00  0.00    -0.206 NA
ATOM     17  C   UNL d   1     -41.761  14.083  20.971  0.00  0.00     0.279 C 
ATOM     18  O   UNL d   1     -42.132  14.788  21.167  0.00  0.00    -0.265 OA
BRANCH  17  19
ATOM     19  C   UNL d   1     -40.992  14.092  20.665  0.00  0.00     0.062 C 
BRANCH  19  20
ATOM     20  C   UNL d   1     -40.478  14.714  20.857  0.00  0.00     0.005 C 
ATOM     21  C   UNL d   1     -39.701  14.703  20.611  0.00  0.00     0.000 C 
ENDBRANCH  19  20
ENDBRANCH  17  19
ENDBRANCH  15  16
ENDBRANCH  14  15
ENDBRANCH   4  14
TORSDOF 5
ENDMDL
MODEL 6
REMARK VINA RESULT:      -4.9      8.862     10.141
REMARK  5 active torsions:
REMARK  status: ('A' for Active; 'I' for Inactive)
REMARK    1  A    between atoms: C_15  and  C_4 
REMARK       I    between atoms: C_11  and  N_14 
REMARK    2  A    between atoms: C_19  and  C_11 
REMARK    3  A    between atoms: N_14  and  C_16 
REMARK    4  A    between atoms: C_16  and  C_15 
REMARK    5  A    between atoms: C_20  and  C_19 
ROOT
ATOM      1  N   UNL d   1     -40.520  14.164  17.762  0.00  0.00    -0.208 NA
ATOM      2  C   UNL d   1     -40.679  14.120  18.573  0.00  0.00     0.279 A 
ATOM      3  C   UNL d   1     -39.866  14.606  17.490  0.00  0.00     0.085 A 
ATOM      4  C   UNL d   1     -40.185  14.517  19.115  0.00  0.00     0.059 A 
ATOM      5  C   UNL d   1     -39.538  14.954  18.840  0.00  0.00     0.006 A 
ATOM      6  C   UNL d   1     -39.382  14.996  18.032  0.00  0.00     0.018 A 
ATOM      7  C   UNL d   1     -39.716  14.644  16.678  0.00  0.00     0.019 A 
ATOM      8  C   UNL d   1     -38.734  15.434  17.755  0.00  0.00     0.002 A 
ATOM      9  C   UNL d   1     -38.578  15.476  16.947  0.00  0.00     0.000 A 
ATOM     10  C   UNL d   1     -39.072  15.079  16.405  0.00  0.00     0.002 A 
ATOM     11  O   UNL d   1     -41.322  13.685  18.844  0.00  0.00    -0.265 OA
ATOM     12  C   UNL d   1     -37.940  15.907  16.671  0.00  0.00     0.000 C 
ATOM     13  C   UNL d   1     -38.917  15.121  15.599  0.00  0.00     0.000 C 
ENDROOT
BRANCH   4  14
ATOM     14  C   UNL d   1     -40.345  14.471  19.916  0.00  0.00     0.026 C 
BRANCH  14  15
ATOM     15  C   UNL d   1     -39.743  14.530  20.470  0.00  0.00     0.102 C 
BRANCH  15  16
ATOM     16  N   UNL d   1     -39.806  14.167  21.208  0.00  0.00    -0.206 NA
ATOM     17  C   UNL d   1     -39.282  14.364  21.816  0.00  0.00     0.279 C 
ATOM     18  O   UNL d   1     -38.694  14.923  21.692  0.00  0.00    -0.265 OA
BRANCH  17  19
ATOM     19  C   UNL d   1     -39.352  13.996  22.554  0.00  0.00     0.062 C 
BRANCH  19  20
ATOM     20  C   UNL d   1     -38.683  13.902  23.035  0.00  0.00     0.005 C 
ATOM     21  C   UNL d   1     -38.629  13.279  23.557  0.00  0.00     0.000 C 
ENDBRANCH  19  20
ENDBRANCH  17  19
ENDBRANCH  15  16
ENDBRANCH  14  15
ENDBRANCH   4  14
TORSDOF 5
ENDMDL
