MODEL 1
REMARK VINA RESULT:      40.8      0.000      0.000
REMARK  2 active torsions:
REMARK  status: ('A' for Active; 'I' for Inactive)
REMARK    1  A    between atoms: C_13  and  C_5 
REMARK    2  A    between atoms: C_16  and  C_13 
ROOT
ATOM      1  C   UNL d   1      13.559  14.172  -3.603  0.00  0.00     0.111 A 
ATOM      2  C   UNL d   1      13.861  13.093  -2.721  0.00  0.00     0.062 A 
ATOM      3  C   UNL d   1      14.032  14.666  -3.160  0.00  0.00     0.213 A 
ATOM      4  C   UNL d   1      14.334  13.587  -2.278  0.00  0.00     0.101 A 
ATOM      5  C   UNL d   1      13.473  13.391  -3.386  0.00  0.00     0.018 A 
ATOM      6  O   UNL d   1      14.417  14.377  -2.503  0.00  0.00    -0.288 OA
ATOM      7  C   UNL d   1      13.775  12.312  -2.504  0.00  0.00     0.194 A 
ATOM      8  C   UNL d   1      13.171  14.511  -4.286  0.00  0.00     0.105 C 
ATOM      9  N   UNL d   1      12.779  14.826  -4.965  0.00  0.00    -0.191 NA
ATOM     10  C   UNL d   1      14.719  13.298  -1.621  0.00  0.00     0.002 A 
ATOM     11  C   UNL d   1      14.636  12.506  -1.394  0.00  0.00     0.042 A 
ATOM     12  C   UNL d   1      14.163  12.012  -1.837  0.00  0.00     0.019 A 
ATOM     13  O   UNL d   1      13.291  11.806  -2.957  0.00  0.00    -0.287 OA
ATOM     14  N   UNL d   1      14.097  15.479  -3.419  0.00  0.00    -0.120 N 
ATOM     15  C   UNL d   1      14.675  11.780  -1.029  0.00  0.00     0.009 C 
ATOM     16  C   UNL d   1      15.084  12.396  -0.727  0.00  0.00     0.009 C 
ENDROOT
BRANCH   5  17
ATOM     17  C   UNL d   1      12.989  12.885  -3.839  0.00  0.00     0.001 C 
BRANCH  17  18
ATOM     18  C   UNL d   1      13.262  12.575  -4.546  0.00  0.00     0.000 A 
ATOM     19  C   UNL d   1      14.038  12.745  -4.805  0.00  0.00     0.000 A 
ATOM     20  C   UNL d   1      14.313  12.424  -5.531  0.00  0.00     0.000 A 
ATOM     21  C   UNL d   1      13.843  11.959  -5.974  0.00  0.00     0.000 A 
ATOM     22  C   UNL d   1      13.062  11.780  -5.726  0.00  0.00     0.000 A 
ATOM     23  C   UNL d   1      12.769  12.087  -5.011  0.00  0.00     0.000 A 
ENDBRANCH  17  18
ENDBRANCH   5  17
TORSDOF 2
ENDMDL
MODEL 2
REMARK VINA RESULT:      41.4      0.987      3.320
REMARK  2 active torsions:
REMARK  status: ('A' for Active; 'I' for Inactive)
REMARK    1  A    between atoms: C_13  and  C_5 
REMARK    2  A    between atoms: C_16  and  C_13 
ROOT
ATOM      1  C   UNL d   1      14.086  14.029  -2.214  0.00  0.00     0.111 A 
ATOM      2  C   UNL d   1      13.549  13.011  -3.057  0.00  0.00     0.062 A 
ATOM      3  C   UNL d   1      14.200  14.507  -2.865  0.00  0.00     0.213 A 
ATOM      4  C   UNL d   1      13.664  13.488  -3.707  0.00  0.00     0.101 A 
ATOM      5  C   UNL d   1      13.763  13.286  -2.308  0.00  0.00     0.018 A 
ATOM      6  O   UNL d   1      13.991  14.239  -3.605  0.00  0.00    -0.288 OA
ATOM      7  C   UNL d   1      13.227  12.268  -3.150  0.00  0.00     0.194 A 
ATOM      8  C   UNL d   1      14.317  14.344  -1.454  0.00  0.00     0.105 C 
ATOM      9  N   UNL d   1      14.539  14.635  -0.692  0.00  0.00    -0.191 NA
ATOM     10  C   UNL d   1      13.455  13.221  -4.448  0.00  0.00     0.002 A 
ATOM     11  C   UNL d   1      13.127  12.468  -4.551  0.00  0.00     0.042 A 
ATOM     12  C   UNL d   1      13.012  11.990  -3.900  0.00  0.00     0.019 A 
ATOM     13  O   UNL d   1      13.109  11.779  -2.484  0.00  0.00    -0.287 OA
ATOM     14  N   UNL d   1      14.541  15.279  -2.727  0.00  0.00    -0.120 N 
ATOM     15  C   UNL d   1      12.801  11.779  -4.838  0.00  0.00     0.009 C 
ATOM     16  C   UNL d   1      12.982  12.372  -5.344  0.00  0.00     0.009 C 
ENDROOT
BRANCH   5  17
ATOM     17  C   UNL d   1      13.646  12.797  -1.642  0.00  0.00     0.001 C 
BRANCH  17  18
ATOM     18  C   UNL d   1      14.286  12.461  -1.259  0.00  0.00     0.000 A 
ATOM     19  C   UNL d   1      14.308  12.435  -0.425  0.00  0.00     0.000 A 
ATOM     20  C   UNL d   1      14.968  12.088  -0.037  0.00  0.00     0.000 A 
ATOM     21  C   UNL d   1      15.572  11.785  -0.457  0.00  0.00     0.000 A 
ATOM     22  C   UNL d   1      15.564  11.804  -1.296  0.00  0.00     0.000 A 
ATOM     23  C   UNL d   1      14.920  12.143  -1.699  0.00  0.00     0.000 A 
ENDBRANCH  17  18
ENDBRANCH   5  17
TORSDOF 2
ENDMDL
