MODEL 1
REMARK VINA RESULT:      17.1      0.000      0.000
REMARK  2 active torsions:
REMARK  status: ('A' for Active; 'I' for Inactive)
REMARK    1  A    between atoms: C_5  and  C_1 
REMARK    2  A    between atoms: N_2  and  C_6 
ROOT
ATOM      1  C   UNL d   1     -55.026-102.256 -37.498  0.00  0.00     0.077 A 
ATOM      2  C   UNL d   1     -54.858-101.122 -36.745  0.00  0.00     0.160 A 
ATOM      3  C   UNL d   1     -54.873-101.474 -37.555  0.00  0.00     0.024 A 
ATOM      4  C   UNL d   1     -55.117-102.488 -36.786  0.00  0.00    -0.014 A 
ATOM      5  C   UNL d   1     -55.185-102.880 -36.892  0.00  0.00    -0.014 A 
ATOM      6  C   UNL d   1     -55.176-102.605 -36.217  0.00  0.00    -0.000 A 
ATOM      7  C   UNL d   1     -55.102-102.129 -35.950  0.00  0.00    -0.000 A 
ATOM      8  C   UNL d   1     -54.981-101.603 -36.259  0.00  0.00     0.038 A 
ATOM      9  C   UNL d   1     -54.953-101.367 -36.005  0.00  0.00     0.038 A 
ATOM     10  C   UNL d   1     -55.262-102.750 -35.318  0.00  0.00    -0.000 A 
ATOM     11  O   UNL d   1     -54.716-100.408 -36.822  0.00  0.00    -0.290 OA
ENDROOT
BRANCH   1  12
ATOM     12  C   UNL d   1     -54.965-102.211 -38.311  0.00  0.00    -0.011 A 
ATOM     13  C   UNL d   1     -54.772-101.505 -38.683  0.00  0.00    -0.002 A 
ATOM     14  C   UNL d   1     -54.711-101.466 -39.515  0.00  0.00     0.023 A 
ATOM     15  C   UNL d   1     -54.847-102.148 -39.960  0.00  0.00     0.127 A 
ATOM     16  C   UNL d   1     -55.041-102.855 -39.582  0.00  0.00     0.023 A 
ATOM     17  C   UNL d   1     -55.098-102.879 -38.748  0.00  0.00    -0.002 A 
BRANCH  15  18
ATOM     18  N   UNL d   1     -54.791-102.127 -40.783  0.00  0.00    -0.114 N 
ATOM     19  O   UNL d   1     -54.810-102.844 -41.181  0.00  0.00    -0.532 OA
ATOM     20  O   UNL d   1     -54.716-101.384 -41.202  0.00  0.00    -0.532 OA
ENDBRANCH  15  18
ENDBRANCH   1  12
TORSDOF 2
ENDMDL
