MODEL 1
REMARK VINA RESULT:      -8.7      0.000      0.000
REMARK  4 active torsions:
REMARK  status: ('A' for Active; 'I' for Inactive)
REMARK    1  A    between atoms: C_10  and  C_3 
REMARK    2  A    between atoms: C_12  and  C_5 
REMARK    3  A    between atoms: C_15  and  C_12 
REMARK    4  A    between atoms: C_18  and  C_15 
ROOT
ATOM      1  C   UNL d   1      52.853  32.784  53.447  0.00  0.00     0.152 A 
ATOM      2  N   UNL d   1      52.169  32.497  53.062  0.00  0.00    -0.258 N 
ATOM      3  C   UNL d   1      52.936  33.590  53.592  0.00  0.00     0.056 A 
ATOM      4  C   UNL d   1      51.579  33.021  52.828  0.00  0.00     0.266 A 
ATOM      5  C   UNL d   1      51.658  33.836  52.972  0.00  0.00     0.057 A 
ATOM      6  N   UNL d   1      53.447  32.251  53.682  0.00  0.00    -0.227 NA
ATOM      7  C   UNL d   1      52.342  34.123  53.357  0.00  0.00     0.009 A 
ATOM      8  C   UNL d   1      52.682  31.154  53.152  0.00  0.00     0.086 A 
ATOM      9  C   UNL d   1      53.371  31.428  53.538  0.00  0.00     0.099 A 
ATOM     10  O   UNL d   1      50.882  32.729  52.435  0.00  0.00    -0.267 OA
ATOM     11  C   UNL d   1      52.430  34.927  53.505  0.00  0.00     0.000 C 
ATOM     12  C   UNL d   1      52.603  30.338  53.007  0.00  0.00     0.019 A 
ATOM     13  C   UNL d   1      53.952  30.905  53.768  0.00  0.00     0.021 A 
ATOM     14  C   UNL d   1      53.203  29.824  53.248  0.00  0.00     0.002 A 
ATOM     15  C   UNL d   1      53.867  30.103  53.622  0.00  0.00     0.002 A 
ENDROOT
BRANCH   5  16
ATOM     16  C   UNL d   1      51.069  34.366  52.739  0.00  0.00     0.005 C 
BRANCH  16  17
ATOM     17  C   UNL d   1      50.286  34.229  52.942  0.00  0.00     0.000 C 
BRANCH  17  18
ATOM     18  C   UNL d   1      49.704  34.747  52.686  0.00  0.00     0.000 C 
ATOM     19  C   UNL d   1      49.325  35.235  53.237  0.00  0.00     0.000 C 
ATOM     20  C   UNL d   1      49.498  34.782  51.887  0.00  0.00     0.000 C 
ENDBRANCH  17  18
ENDBRANCH  16  17
ENDBRANCH   5  16
BRANCH   3  21
ATOM     21  C   UNL d   1      53.610  33.869  53.971  0.00  0.00     0.125 C 
ATOM     22  N   UNL d   1      53.563  34.166  54.733  0.00  0.00    -0.146 N 
ENDBRANCH   3  21
TORSDOF 4
ENDMDL
MODEL 2
REMARK VINA RESULT:      -8.3      0.908      4.044
REMARK  4 active torsions:
REMARK  status: ('A' for Active; 'I' for Inactive)
REMARK    1  A    between atoms: C_10  and  C_3 
REMARK    2  A    between atoms: C_12  and  C_5 
REMARK    3  A    between atoms: C_15  and  C_12 
REMARK    4  A    between atoms: C_18  and  C_15 
ROOT
ATOM      1  C   UNL d   1      52.630  33.164  53.542  0.00  0.00     0.152 A 
ATOM      2  N   UNL d   1      52.189  32.536  53.212  0.00  0.00    -0.258 N 
ATOM      3  C   UNL d   1      53.370  33.019  53.871  0.00  0.00     0.056 A 
ATOM      4  C   UNL d   1      52.495  31.772  53.216  0.00  0.00     0.266 A 
ATOM      5  C   UNL d   1      53.243  31.620  53.547  0.00  0.00     0.057 A 
ATOM      6  N   UNL d   1      52.316  33.935  53.536  0.00  0.00    -0.227 NA
ATOM      7  C   UNL d   1      53.684  32.249  53.878  0.00  0.00     0.009 A 
ATOM      8  C   UNL d   1      51.131  33.455  52.876  0.00  0.00     0.086 A 
ATOM      9  C   UNL d   1      51.562  34.092  53.203  0.00  0.00     0.099 A 
ATOM     10  O   UNL d   1      52.046  31.132  52.880  0.00  0.00    -0.267 OA
ATOM     11  C   UNL d   1      54.424  32.109  54.207  0.00  0.00     0.000 C 
ATOM     12  C   UNL d   1      50.383  33.607  52.545  0.00  0.00     0.019 A 
ATOM     13  C   UNL d   1      51.254  34.847  53.196  0.00  0.00     0.021 A 
ATOM     14  C   UNL d   1      50.088  34.378  52.548  0.00  0.00     0.002 A 
ATOM     15  C   UNL d   1      50.516  34.989  52.868  0.00  0.00     0.002 A 
ENDROOT
BRANCH   5  16
ATOM     16  C   UNL d   1      53.555  30.856  53.554  0.00  0.00     0.005 C 
BRANCH  16  17
ATOM     17  C   UNL d   1      53.161  30.252  53.944  0.00  0.00     0.000 C 
BRANCH  17  18
ATOM     18  C   UNL d   1      53.512  29.514  54.009  0.00  0.00     0.000 C 
ATOM     19  C   UNL d   1      53.354  29.047  54.674  0.00  0.00     0.000 C 
ATOM     20  C   UNL d   1      54.019  29.238  53.418  0.00  0.00     0.000 C 
ENDBRANCH  17  18
ENDBRANCH  16  17
ENDBRANCH   5  16
BRANCH   3  21
ATOM     21  C   UNL d   1      53.801  33.639  54.195  0.00  0.00     0.125 C 
ATOM     22  N   UNL d   1      53.951  33.664  55.000  0.00  0.00    -0.146 N 
ENDBRANCH   3  21
TORSDOF 4
ENDMDL
MODEL 3
REMARK VINA RESULT:      -8.0      1.384      4.194
REMARK  4 active torsions:
REMARK  status: ('A' for Active; 'I' for Inactive)
REMARK    1  A    between atoms: C_10  and  C_3 
REMARK    2  A    between atoms: C_12  and  C_5 
REMARK    3  A    between atoms: C_15  and  C_12 
REMARK    4  A    between atoms: C_18  and  C_15 
ROOT
ATOM      1  C   UNL d   1      52.074  33.092  53.152  0.00  0.00     0.152 A 
ATOM      2  N   UNL d   1      52.152  33.735  53.681  0.00  0.00    -0.258 N 
ATOM      3  C   UNL d   1      52.636  32.491  53.149  0.00  0.00     0.056 A 
ATOM      4  C   UNL d   1      52.790  33.766  54.198  0.00  0.00     0.266 A 
ATOM      5  C   UNL d   1      53.361  33.161  54.200  0.00  0.00     0.057 A 
ATOM      6  N   UNL d   1      51.426  33.065  52.630  0.00  0.00    -0.227 NA
ATOM      7  C   UNL d   1      53.283  32.518  53.671  0.00  0.00     0.009 A 
ATOM      8  C   UNL d   1      50.938  34.311  53.159  0.00  0.00     0.086 A 
ATOM      9  C   UNL d   1      50.848  33.673  52.625  0.00  0.00     0.099 A 
ATOM     10  O   UNL d   1      52.870  34.420  54.737  0.00  0.00    -0.267 OA
ATOM     11  C   UNL d   1      53.842  31.915  53.664  0.00  0.00     0.000 C 
ATOM     12  C   UNL d   1      50.367  34.915  53.158  0.00  0.00     0.019 A 
ATOM     13  C   UNL d   1      50.213  33.648  52.115  0.00  0.00     0.021 A 
ATOM     14  C   UNL d   1      49.731  34.872  52.633  0.00  0.00     0.002 A 
ATOM     15  C   UNL d   1      49.655  34.247  52.119  0.00  0.00     0.002 A 
ENDROOT
BRANCH   5  16
ATOM     16  C   UNL d   1      54.004  33.187  54.717  0.00  0.00     0.005 C 
BRANCH  16  17
ATOM     17  C   UNL d   1      54.539  33.807  54.681  0.00  0.00     0.000 C 
BRANCH  17  18
ATOM     18  C   UNL d   1      55.200  33.802  55.166  0.00  0.00     0.000 C 
ATOM     19  C   UNL d   1      55.938  33.999  54.847  0.00  0.00     0.000 C 
ATOM     20  C   UNL d   1      55.131  33.603  55.965  0.00  0.00     0.000 C 
ENDBRANCH  17  18
ENDBRANCH  16  17
ENDBRANCH   5  16
BRANCH   3  21
ATOM     21  C   UNL d   1      52.556  31.861  52.628  0.00  0.00     0.125 C 
ATOM     22  N   UNL d   1      52.531  31.091  52.909  0.00  0.00    -0.146 N 
ENDBRANCH   3  21
TORSDOF 4
ENDMDL
MODEL 4
REMARK VINA RESULT:      -8.0      1.233      2.495
REMARK  4 active torsions:
REMARK  status: ('A' for Active; 'I' for Inactive)
REMARK    1  A    between atoms: C_10  and  C_3 
REMARK    2  A    between atoms: C_12  and  C_5 
REMARK    3  A    between atoms: C_15  and  C_12 
REMARK    4  A    between atoms: C_18  and  C_15 
ROOT
ATOM      1  C   UNL d   1      52.755  33.192  53.777  0.00  0.00     0.152 A 
ATOM      2  N   UNL d   1      52.660  34.022  53.790  0.00  0.00    -0.258 N 
ATOM      3  C   UNL d   1      52.216  32.722  53.370  0.00  0.00     0.056 A 
ATOM      4  C   UNL d   1      52.025  34.369  53.397  0.00  0.00     0.266 A 
ATOM      5  C   UNL d   1      51.477  33.899  52.984  0.00  0.00     0.057 A 
ATOM      6  N   UNL d   1      53.398  32.846  54.176  0.00  0.00    -0.227 NA
ATOM      7  C   UNL d   1      51.573  33.068  52.971  0.00  0.00     0.009 A 
ATOM      8  C   UNL d   1      53.846  34.146  54.598  0.00  0.00     0.086 A 
ATOM      9  C   UNL d   1      53.953  33.317  54.593  0.00  0.00     0.099 A 
ATOM     10  O   UNL d   1      51.928  35.215  53.410  0.00  0.00    -0.267 OA
ATOM     11  C   UNL d   1      51.037  32.594  52.567  0.00  0.00     0.000 C 
ATOM     12  C   UNL d   1      54.394  34.617  55.011  0.00  0.00     0.019 A 
ATOM     13  C   UNL d   1      54.583  32.979  54.984  0.00  0.00     0.021 A 
ATOM     14  C   UNL d   1      55.026  34.256  55.401  0.00  0.00     0.002 A 
ATOM     15  C   UNL d   1      55.119  33.449  55.388  0.00  0.00     0.002 A 
ENDROOT
BRANCH   5  16
ATOM     16  C   UNL d   1      50.839  34.241  52.588  0.00  0.00     0.005 C 
BRANCH  16  17
ATOM     17  C   UNL d   1      50.173  34.477  53.003  0.00  0.00     0.000 C 
BRANCH  17  18
ATOM     18  C   UNL d   1      49.539  34.807  52.601  0.00  0.00     0.000 C 
ATOM     19  C   UNL d   1      48.990  35.266  53.016  0.00  0.00     0.000 C 
ATOM     20  C   UNL d   1      49.448  34.682  51.789  0.00  0.00     0.000 C 
ENDBRANCH  17  18
ENDBRANCH  16  17
ENDBRANCH   5  16
BRANCH   3  21
ATOM     21  C   UNL d   1      52.313  31.906  53.359  0.00  0.00     0.125 C 
ATOM     22  N   UNL d   1      52.600  31.532  52.689  0.00  0.00    -0.146 N 
ENDBRANCH   3  21
TORSDOF 4
ENDMDL
MODEL 5
REMARK VINA RESULT:      -7.4      1.332      2.452
REMARK  4 active torsions:
REMARK  status: ('A' for Active; 'I' for Inactive)
REMARK    1  A    between atoms: C_10  and  C_3 
REMARK    2  A    between atoms: C_12  and  C_5 
REMARK    3  A    between atoms: C_15  and  C_12 
REMARK    4  A    between atoms: C_18  and  C_15 
ROOT
ATOM      1  C   UNL d   1      52.403  32.433  53.151  0.00  0.00     0.152 A 
ATOM      2  N   UNL d   1      53.139  32.583  53.519  0.00  0.00    -0.258 N 
ATOM      3  C   UNL d   1      51.903  33.059  52.961  0.00  0.00     0.056 A 
ATOM      4  C   UNL d   1      53.362  33.357  53.691  0.00  0.00     0.266 A 
ATOM      5  C   UNL d   1      52.860  33.992  53.502  0.00  0.00     0.057 A 
ATOM      6  N   UNL d   1      52.182  31.650  52.979  0.00  0.00    -0.227 NA
ATOM      7  C   UNL d   1      52.125  33.842  53.134  0.00  0.00     0.009 A 
ATOM      8  C   UNL d   1      53.418  31.170  53.537  0.00  0.00     0.086 A 
ATOM      9  C   UNL d   1      52.685  31.006  53.169  0.00  0.00     0.099 A 
ATOM     10  O   UNL d   1      54.111  33.509  54.066  0.00  0.00    -0.267 OA
ATOM     11  C   UNL d   1      51.621  34.463  52.942  0.00  0.00     0.000 C 
ATOM     12  C   UNL d   1      53.920  30.534  53.727  0.00  0.00     0.019 A 
ATOM     13  C   UNL d   1      52.469  30.239  53.001  0.00  0.00     0.021 A 
ATOM     14  C   UNL d   1      53.683  29.764  53.548  0.00  0.00     0.002 A 
ATOM     15  C   UNL d   1      52.969  29.618  53.191  0.00  0.00     0.002 A 
ENDROOT
BRANCH   5  16
ATOM     16  C   UNL d   1      53.079  34.769  53.672  0.00  0.00     0.005 C 
BRANCH  16  17
ATOM     17  C   UNL d   1      53.092  35.035  54.448  0.00  0.00     0.000 C 
BRANCH  17  18
ATOM     18  C   UNL d   1      53.187  35.835  54.602  0.00  0.00     0.000 C 
ATOM     19  C   UNL d   1      52.667  36.211  55.125  0.00  0.00     0.000 C 
ATOM     20  C   UNL d   1      53.794  36.262  54.239  0.00  0.00     0.000 C 
ENDBRANCH  17  18
ENDBRANCH  16  17
ENDBRANCH   5  16
BRANCH   3  21
ATOM     21  C   UNL d   1      51.181  32.908  52.600  0.00  0.00     0.125 C 
ATOM     22  N   UNL d   1      50.480  33.099  52.978  0.00  0.00    -0.146 N 
ENDBRANCH   3  21
TORSDOF 4
ENDMDL
MODEL 6
REMARK VINA RESULT:      -7.3      1.699      4.345
REMARK  4 active torsions:
REMARK  status: ('A' for Active; 'I' for Inactive)
REMARK    1  A    between atoms: C_10  and  C_3 
REMARK    2  A    between atoms: C_12  and  C_5 
REMARK    3  A    between atoms: C_15  and  C_12 
REMARK    4  A    between atoms: C_18  and  C_15 
ROOT
ATOM      1  C   UNL d   1      52.742  33.162  53.600  0.00  0.00     0.152 A 
ATOM      2  N   UNL d   1      53.368  32.913  54.096  0.00  0.00    -0.258 N 
ATOM      3  C   UNL d   1      52.361  32.618  53.114  0.00  0.00     0.056 A 
ATOM      4  C   UNL d   1      53.603  32.124  54.096  0.00  0.00     0.266 A 
ATOM      5  C   UNL d   1      53.221  31.571  53.607  0.00  0.00     0.057 A 
ATOM      6  N   UNL d   1      52.508  33.960  53.603  0.00  0.00    -0.227 NA
ATOM      7  C   UNL d   1      52.595  31.820  53.111  0.00  0.00     0.009 A 
ATOM      8  C   UNL d   1      53.515  34.260  54.586  0.00  0.00     0.086 A 
ATOM      9  C   UNL d   1      52.891  34.522  54.096  0.00  0.00     0.099 A 
ATOM     10  O   UNL d   1      54.240  31.871  54.601  0.00  0.00    -0.267 OA
ATOM     11  C   UNL d   1      52.211  31.281  52.624  0.00  0.00     0.000 C 
ATOM     12  C   UNL d   1      53.897  34.813  55.076  0.00  0.00     0.019 A 
ATOM     13  C   UNL d   1      52.662  35.304  54.099  0.00  0.00     0.021 A 
ATOM     14  C   UNL d   1      53.651  35.601  55.065  0.00  0.00     0.002 A 
ATOM     15  C   UNL d   1      53.043  35.843  54.584  0.00  0.00     0.002 A 
ENDROOT
BRANCH   5  16
ATOM     16  C   UNL d   1      53.452  30.778  53.603  0.00  0.00     0.005 C 
BRANCH  16  17
ATOM     17  C   UNL d   1      53.160  30.260  54.167  0.00  0.00     0.000 C 
BRANCH  17  18
ATOM     18  C   UNL d   1      53.371  29.468  54.139  0.00  0.00     0.000 C 
ATOM     19  C   UNL d   1      53.342  29.016  54.832  0.00  0.00     0.000 C 
ATOM     20  C   UNL d   1      53.609  29.124  53.426  0.00  0.00     0.000 C 
ENDBRANCH  17  18
ENDBRANCH  16  17
ENDBRANCH   5  16
BRANCH   3  21
ATOM     21  C   UNL d   1      51.747  32.866  52.628  0.00  0.00     0.125 C 
ATOM     22  N   UNL d   1      50.967  32.752  52.855  0.00  0.00    -0.146 N 
ENDBRANCH   3  21
TORSDOF 4
ENDMDL
MODEL 7
REMARK VINA RESULT:      -6.0      9.883     10.572
REMARK  4 active torsions:
REMARK  status: ('A' for Active; 'I' for Inactive)
REMARK    1  A    between atoms: C_10  and  C_3 
REMARK    2  A    between atoms: C_12  and  C_5 
REMARK    3  A    between atoms: C_15  and  C_12 
REMARK    4  A    between atoms: C_18  and  C_15 
ROOT
ATOM      1  C   UNL d   1      44.960  29.213  58.731  0.00  0.00     0.152 A 
ATOM      2  N   UNL d   1      44.774  28.704  59.368  0.00  0.00    -0.258 N 
ATOM      3  C   UNL d   1      44.930  30.029  58.836  0.00  0.00     0.056 A 
ATOM      4  C   UNL d   1      44.562  29.019  60.098  0.00  0.00     0.266 A 
ATOM      5  C   UNL d   1      44.530  29.842  60.208  0.00  0.00     0.057 A 
ATOM      6  N   UNL d   1      45.174  28.891  57.995  0.00  0.00    -0.227 NA
ATOM      7  C   UNL d   1      44.715  30.352  59.572  0.00  0.00     0.009 A 
ATOM      8  C   UNL d   1      45.019  27.561  58.524  0.00  0.00     0.086 A 
ATOM      9  C   UNL d   1      45.207  28.060  57.880  0.00  0.00     0.099 A 
ATOM     10  O   UNL d   1      44.373  28.500  60.745  0.00  0.00    -0.267 OA
ATOM     11  C   UNL d   1      44.687  31.167  59.670  0.00  0.00     0.000 C 
ATOM     12  C   UNL d   1      45.051  26.738  58.414  0.00  0.00     0.019 A 
ATOM     13  C   UNL d   1      45.417  27.743  57.159  0.00  0.00     0.021 A 
ATOM     14  C   UNL d   1      45.266  26.435  57.676  0.00  0.00     0.002 A 
ATOM     15  C   UNL d   1      45.446  26.930  57.058  0.00  0.00     0.002 A 
ENDROOT
BRANCH   5  16
ATOM     16  C   UNL d   1      44.318  30.164  60.938  0.00  0.00     0.005 C 
BRANCH  16  17
ATOM     17  C   UNL d   1      44.875  30.240  61.534  0.00  0.00     0.000 C 
BRANCH  17  18
ATOM     18  C   UNL d   1      44.648  30.526  62.268  0.00  0.00     0.000 C 
ATOM     19  C   UNL d   1      44.644  30.013  62.919  0.00  0.00     0.000 C 
ATOM     20  C   UNL d   1      44.426  31.316  62.359  0.00  0.00     0.000 C 
ENDBRANCH  17  18
ENDBRANCH  16  17
ENDBRANCH   5  16
BRANCH   3  21
ATOM     21  C   UNL d   1      45.112  30.527  58.208  0.00  0.00     0.125 C 
ATOM     22  N   UNL d   1      44.572  31.087  57.951  0.00  0.00    -0.146 N 
ENDBRANCH   3  21
TORSDOF 4
ENDMDL
MODEL 8
REMARK VINA RESULT:      -5.8      1.815      2.197
REMARK  4 active torsions:
REMARK  status: ('A' for Active; 'I' for Inactive)
REMARK    1  A    between atoms: C_10  and  C_3 
REMARK    2  A    between atoms: C_12  and  C_5 
REMARK    3  A    between atoms: C_15  and  C_12 
REMARK    4  A    between atoms: C_18  and  C_15 
ROOT
ATOM      1  C   UNL d   1      53.668  32.037  54.164  0.00  0.00     0.152 A 
ATOM      2  N   UNL d   1      53.219  32.329  53.522  0.00  0.00    -0.258 N 
ATOM      3  C   UNL d   1      54.041  32.561  54.677  0.00  0.00     0.056 A 
ATOM      4  C   UNL d   1      53.150  33.140  53.404  0.00  0.00     0.266 A 
ATOM      5  C   UNL d   1      53.526  33.674  53.920  0.00  0.00     0.057 A 
ATOM      6  N   UNL d   1      53.734  31.216  54.280  0.00  0.00    -0.227 NA
ATOM      7  C   UNL d   1      53.975  33.382  54.562  0.00  0.00     0.009 A 
ATOM      8  C   UNL d   1      52.910  30.979  53.124  0.00  0.00     0.086 A 
ATOM      9  C   UNL d   1      53.356  30.673  53.762  0.00  0.00     0.099 A 
ATOM     10  O   UNL d   1      52.693  33.438  52.751  0.00  0.00    -0.267 OA
ATOM     11  C   UNL d   1      54.350  33.901  55.077  0.00  0.00     0.000 C 
ATOM     12  C   UNL d   1      52.535  30.445  52.608  0.00  0.00     0.019 A 
ATOM     13  C   UNL d   1      53.420  29.869  53.874  0.00  0.00     0.021 A 
ATOM     14  C   UNL d   1      52.611  29.633  52.738  0.00  0.00     0.002 A 
ATOM     15  C   UNL d   1      53.048  29.350  53.362  0.00  0.00     0.002 A 
ENDROOT
BRANCH   5  16
ATOM     16  C   UNL d   1      53.461  34.489  53.806  0.00  0.00     0.005 C 
BRANCH  16  17
ATOM     17  C   UNL d   1      52.797  34.892  54.070  0.00  0.00     0.000 C 
BRANCH  17  18
ATOM     18  C   UNL d   1      52.841  35.698  54.210  0.00  0.00     0.000 C 
ATOM     19  C   UNL d   1      52.340  36.039  54.774  0.00  0.00     0.000 C 
ATOM     20  C   UNL d   1      53.378  36.167  53.793  0.00  0.00     0.000 C 
ENDBRANCH  17  18
ENDBRANCH  16  17
ENDBRANCH   5  16
BRANCH   3  21
ATOM     21  C   UNL d   1      54.482  32.270  55.307  0.00  0.00     0.125 C 
ATOM     22  N   UNL d   1      54.306  32.496  56.075  0.00  0.00    -0.146 N 
ENDBRANCH   3  21
TORSDOF 4
ENDMDL
