MODEL 1
REMARK VINA RESULT:      88.4      0.000      0.000
REMARK  2 active torsions:
REMARK  status: ('A' for Active; 'I' for Inactive)
REMARK    1  A    between atoms: N_10  and  C_3 
REMARK    2  A    between atoms: C_11  and  C_5 
ROOT
ATOM      1  N   UNL d   1     -49.765  26.564  33.748  0.00  0.00    -0.196 N 
ATOM      2  C   UNL d   1     -50.321  25.959  33.633  0.00  0.00     0.167 A 
ATOM      3  C   UNL d   1     -50.016  27.346  33.722  0.00  0.00     0.152 A 
ATOM      4  N   UNL d   1     -48.752  25.598  33.908  0.00  0.00    -0.163 NA
ATOM      5  C   UNL d   1     -50.094  25.182  33.654  0.00  0.00     0.055 A 
ATOM      6  N   UNL d   1     -51.114  26.148  33.493  0.00  0.00    -0.227 NA
ATOM      7  C   UNL d   1     -50.798  27.536  33.585  0.00  0.00     0.052 A 
ATOM      8  C   UNL d   1     -49.304  24.996  33.793  0.00  0.00     0.104 A 
ATOM      9  C   UNL d   1     -51.350  26.933  33.470  0.00  0.00     0.086 A 
ATOM     10  C   UNL d   1     -51.030  28.331  33.563  0.00  0.00     0.004 A 
ATOM     11  C   UNL d   1     -49.065  24.226  33.817  0.00  0.00     0.023 C 
ATOM     12  C   UNL d   1     -52.140  27.120  33.331  0.00  0.00     0.019 A 
ATOM     13  C   UNL d   1     -51.833  28.516  33.422  0.00  0.00     0.000 A 
ATOM     14  C   UNL d   1     -52.385  27.914  33.306  0.00  0.00     0.002 A 
ENDROOT
BRANCH   3  15
ATOM     15  N   UNL d   1     -49.455  27.964  33.840  0.00  0.00    -0.285 N 
ATOM     16  C   UNL d   1     -48.679  27.788  34.134  0.00  0.00     0.108 A 
ATOM     17  C   UNL d   1     -48.124  28.405  34.250  0.00  0.00     0.142 A 
ATOM     18  O   UNL d   1     -48.331  29.214  34.073  0.00  0.00    -0.300 OA
ATOM     19  C   UNL d   1     -49.107  29.378  33.780  0.00  0.00     0.142 A 
ATOM     20  C   UNL d   1     -49.662  28.761  33.665  0.00  0.00     0.108 A 
ENDBRANCH   3  15
BRANCH   5  21
ATOM     21  C   UNL d   1     -50.646  24.580  33.539  0.00  0.00     0.004 A 
ATOM     22  C   UNL d   1     -51.432  24.771  33.443  0.00  0.00     0.000 A 
ATOM     23  C   UNL d   1     -51.984  24.169  33.327  0.00  0.00     0.000 A 
ATOM     24  C   UNL d   1     -51.741  23.385  33.311  0.00  0.00     0.000 A 
ATOM     25  C   UNL d   1     -50.948  23.204  33.409  0.00  0.00     0.000 A 
ATOM     26  C   UNL d   1     -50.396  23.806  33.524  0.00  0.00     0.000 A 
ENDBRANCH   5  21
TORSDOF 2
ENDMDL
