MODEL 1
REMARK VINA RESULT:      -3.4      0.000      0.000
REMARK  1 active torsions:
REMARK  status: ('A' for Active; 'I' for Inactive)
REMARK    1  A    between atoms: C_7  and  C_5 
ROOT
ATOM      1  C   UNL d   1     -41.449-122.459 -51.760  0.00  0.00     0.110 A 
ATOM      2  C   UNL d   1     -41.380-123.178 -52.888  0.00  0.00     0.332 A 
ATOM      3  C   UNL d   1     -41.259-121.951 -52.379  0.00  0.00     0.060 A 
ATOM      4  S   UNL d   1     -41.216-122.391 -53.075  0.00  0.00    -0.018 SA
ATOM      5  C   UNL d   1     -41.532-122.176 -50.990  0.00  0.00     0.027 A 
ATOM      6  O   UNL d   1     -41.525-123.221 -52.075  0.00  0.00    -0.268 OA
ATOM      7  C   UNL d   1     -41.150-121.136 -52.217  0.00  0.00     0.051 A 
ATOM      8  C   UNL d   1     -41.424-121.374 -50.832  0.00  0.00     0.044 A 
ATOM      9  O   UNL d   1     -41.398-123.815 -53.415  0.00  0.00    -0.251 OA
ATOM     10  C   UNL d   1     -41.232-120.853 -51.446  0.00  0.00     0.196 A 
ATOM     11  O   UNL d   1     -41.124-120.048 -51.286  0.00  0.00    -0.286 OA
ENDROOT
BRANCH   5  12
ATOM     12  C   UNL d   1     -41.724-122.696 -50.376  0.00  0.00     0.004 A 
ATOM     13  C   UNL d   1     -42.513-122.824 -50.174  0.00  0.00     0.030 A 
ATOM     14  C   UNL d   1     -42.704-123.344 -49.560  0.00  0.00     0.140 A 
ATOM     15  F   UNL d   1     -43.495-123.475 -49.354  0.00  0.00    -0.204 F 
ATOM     16  C   UNL d   1     -42.106-123.735 -49.149  0.00  0.00     0.030 A 
ATOM     17  C   UNL d   1     -41.317-123.607 -49.350  0.00  0.00     0.002 A 
ATOM     18  C   UNL d   1     -41.125-123.087 -49.964  0.00  0.00     0.000 A 
ENDBRANCH   5  12
TORSDOF 1
ENDMDL
MODEL 2
REMARK VINA RESULT:      -2.7      0.750      1.993
REMARK  1 active torsions:
REMARK  status: ('A' for Active; 'I' for Inactive)
REMARK    1  A    between atoms: C_7  and  C_5 
ROOT
ATOM      1  C   UNL d   1     -41.423-122.121 -51.119  0.00  0.00     0.110 A 
ATOM      2  C   UNL d   1     -41.208-120.799 -51.115  0.00  0.00     0.332 A 
ATOM      3  C   UNL d   1     -41.256-121.883 -51.889  0.00  0.00     0.060 A 
ATOM      4  S   UNL d   1     -41.123-121.070 -51.890  0.00  0.00    -0.018 SA
ATOM      5  C   UNL d   1     -41.581-122.911 -50.943  0.00  0.00     0.027 A 
ATOM      6  O   UNL d   1     -41.394-121.448 -50.637  0.00  0.00    -0.268 OA
ATOM      7  C   UNL d   1     -41.248-122.459 -52.498  0.00  0.00     0.051 A 
ATOM      8  C   UNL d   1     -41.572-123.475 -51.545  0.00  0.00     0.044 A 
ATOM      9  O   UNL d   1     -41.124-120.018 -50.856  0.00  0.00    -0.251 OA
ATOM     10  C   UNL d   1     -41.406-123.249 -52.322  0.00  0.00     0.196 A 
ATOM     11  O   UNL d   1     -41.397-123.817 -52.925  0.00  0.00    -0.286 OA
ENDROOT
BRANCH   5  12
ATOM     12  C   UNL d   1     -41.747-123.137 -50.165  0.00  0.00     0.004 A 
ATOM     13  C   UNL d   1     -42.525-123.126 -49.890  0.00  0.00     0.030 A 
ATOM     14  C   UNL d   1     -42.691-123.353 -49.112  0.00  0.00     0.140 A 
ATOM     15  F   UNL d   1     -43.469-123.343 -48.831  0.00  0.00    -0.204 F 
ATOM     16  C   UNL d   1     -42.080-123.589 -48.611  0.00  0.00     0.030 A 
ATOM     17  C   UNL d   1     -41.303-123.600 -48.887  0.00  0.00     0.002 A 
ATOM     18  C   UNL d   1     -41.136-123.374 -49.664  0.00  0.00     0.000 A 
ENDBRANCH   5  12
TORSDOF 1
ENDMDL
MODEL 3
REMARK VINA RESULT:      -2.6      2.268      3.405
REMARK  1 active torsions:
REMARK  status: ('A' for Active; 'I' for Inactive)
REMARK    1  A    between atoms: C_7  and  C_5 
ROOT
ATOM      1  C   UNL d   1     -42.676-123.205 -49.548  0.00  0.00     0.110 A 
ATOM      2  C   UNL d   1     -43.957-123.586 -49.632  0.00  0.00     0.332 A 
ATOM      3  C   UNL d   1     -42.945-123.376 -48.790  0.00  0.00     0.060 A 
ATOM      4  S   UNL d   1     -43.734-123.610 -48.838  0.00  0.00    -0.018 SA
ATOM      5  C   UNL d   1     -41.901-122.954 -49.677  0.00  0.00     0.027 A 
ATOM      6  O   UNL d   1     -43.303-123.336 -50.072  0.00  0.00    -0.268 OA
ATOM      7  C   UNL d   1     -42.418-123.290 -48.143  0.00  0.00     0.051 A 
ATOM      8  C   UNL d   1     -41.384-122.871 -49.039  0.00  0.00     0.044 A 
ATOM      9  O   UNL d   1     -44.701-123.777 -49.939  0.00  0.00    -0.251 OA
ATOM     10  C   UNL d   1     -41.643-123.039 -48.272  0.00  0.00     0.196 A 
ATOM     11  O   UNL d   1     -41.123-122.955 -47.633  0.00  0.00    -0.286 OA
ENDROOT
BRANCH   5  12
ATOM     12  C   UNL d   1     -41.641-122.786 -50.444  0.00  0.00     0.004 A 
ATOM     13  C   UNL d   1     -41.641-122.008 -50.719  0.00  0.00     0.030 A 
ATOM     14  C   UNL d   1     -41.382-121.840 -51.486  0.00  0.00     0.140 A 
ATOM     15  F   UNL d   1     -41.381-121.062 -51.766  0.00  0.00    -0.204 F 
ATOM     16  C   UNL d   1     -41.124-122.450 -51.977  0.00  0.00     0.030 A 
ATOM     17  C   UNL d   1     -41.124-123.228 -51.702  0.00  0.00     0.002 A 
ATOM     18  C   UNL d   1     -41.383-123.396 -50.935  0.00  0.00     0.000 A 
ENDBRANCH   5  12
TORSDOF 1
ENDMDL
MODEL 4
REMARK VINA RESULT:      -2.3      1.988      3.643
REMARK  1 active torsions:
REMARK  status: ('A' for Active; 'I' for Inactive)
REMARK    1  A    between atoms: C_7  and  C_5 
ROOT
ATOM      1  C   UNL d   1     -41.384-121.710 -52.231  0.00  0.00     0.110 A 
ATOM      2  C   UNL d   1     -41.203-120.430 -51.881  0.00  0.00     0.332 A 
ATOM      3  C   UNL d   1     -41.271-121.679 -51.417  0.00  0.00     0.060 A 
ATOM      4  S   UNL d   1     -41.159-120.892 -51.198  0.00  0.00    -0.018 SA
ATOM      5  C   UNL d   1     -41.511-122.430 -52.614  0.00  0.00     0.027 A 
ATOM      6  O   UNL d   1     -41.342-120.936 -52.521  0.00  0.00    -0.268 OA
ATOM      7  C   UNL d   1     -41.286-122.392 -50.977  0.00  0.00     0.051 A 
ATOM      8  C   UNL d   1     -41.526-123.130 -52.179  0.00  0.00     0.044 A 
ATOM      9  O   UNL d   1     -41.123-119.608 -51.924  0.00  0.00    -0.251 OA
ATOM     10  C   UNL d   1     -41.413-123.111 -51.360  0.00  0.00     0.196 A 
ATOM     11  O   UNL d   1     -41.428-123.816 -50.924  0.00  0.00    -0.286 OA
ENDROOT
BRANCH   5  12
ATOM     12  C   UNL d   1     -41.624-122.449 -53.433  0.00  0.00     0.004 A 
ATOM     13  C   UNL d   1     -42.236-122.015 -53.776  0.00  0.00     0.030 A 
ATOM     14  C   UNL d   1     -42.349-122.034 -54.595  0.00  0.00     0.140 A 
ATOM     15  F   UNL d   1     -42.962-121.601 -54.943  0.00  0.00    -0.204 F 
ATOM     16  C   UNL d   1     -41.850-122.487 -55.070  0.00  0.00     0.030 A 
ATOM     17  C   UNL d   1     -41.238-122.921 -54.727  0.00  0.00     0.002 A 
ATOM     18  C   UNL d   1     -41.125-122.902 -53.908  0.00  0.00     0.000 A 
ENDBRANCH   5  12
TORSDOF 1
ENDMDL
MODEL 5
REMARK VINA RESULT:      -1.4      2.373      3.740
REMARK  1 active torsions:
REMARK  status: ('A' for Active; 'I' for Inactive)
REMARK    1  A    between atoms: C_7  and  C_5 
ROOT
ATOM      1  C   UNL d   1     -42.404-123.174 -49.197  0.00  0.00     0.110 A 
ATOM      2  C   UNL d   1     -41.729-123.169 -48.040  0.00  0.00     0.332 A 
ATOM      3  C   UNL d   1     -42.906-123.446 -48.604  0.00  0.00     0.060 A 
ATOM      4  S   UNL d   1     -42.493-123.444 -47.890  0.00  0.00    -0.018 SA
ATOM      5  C   UNL d   1     -42.663-123.114 -49.977  0.00  0.00     0.027 A 
ATOM      6  O   UNL d   1     -41.673-123.002 -48.848  0.00  0.00    -0.268 OA
ATOM      7  C   UNL d   1     -43.690-123.662 -48.804  0.00  0.00     0.051 A 
ATOM      8  C   UNL d   1     -43.436-123.328 -50.172  0.00  0.00     0.044 A 
ATOM      9  O   UNL d   1     -41.123-123.076 -47.484  0.00  0.00    -0.251 OA
ATOM     10  C   UNL d   1     -43.950-123.602 -49.584  0.00  0.00     0.196 A 
ATOM     11  O   UNL d   1     -44.725-123.817 -49.781  0.00  0.00    -0.286 OA
ENDROOT
BRANCH   5  12
ATOM     12  C   UNL d   1     -42.150-122.840 -50.565  0.00  0.00     0.004 A 
ATOM     13  C   UNL d   1     -41.907-123.346 -51.170  0.00  0.00     0.030 A 
ATOM     14  C   UNL d   1     -41.393-123.071 -51.757  0.00  0.00     0.140 A 
ATOM     15  F   UNL d   1     -41.147-123.575 -52.365  0.00  0.00    -0.204 F 
ATOM     16  C   UNL d   1     -41.123-122.292 -51.739  0.00  0.00     0.030 A 
ATOM     17  C   UNL d   1     -41.366-121.787 -51.134  0.00  0.00     0.002 A 
ATOM     18  C   UNL d   1     -41.880-122.061 -50.546  0.00  0.00     0.000 A 
ENDBRANCH   5  12
TORSDOF 1
ENDMDL
