MODEL 1
REMARK VINA RESULT:      68.8      0.000      0.000
REMARK  5 active torsions:
REMARK  status: ('A' for Active; 'I' for Inactive)
REMARK    1  A    between atoms: C_12  and  N_3 
REMARK    2  A    between atoms: C_10  and  N_7 
REMARK    3  A    between atoms: C_11  and  C_10 
REMARK    4  A    between atoms: C_14  and  C_11 
REMARK    5  A    between atoms: C_19  and  C_12 
ROOT
ATOM      1  C   UNL d   1     -47.824  29.320  35.175  0.00  0.00     0.191 A 
ATOM      2  C   UNL d   1     -48.272  28.944  35.769  0.00  0.00     0.196 A 
ATOM      3  N   UNL d   1     -47.417  29.950  35.532  0.00  0.00    -0.191 N 
ATOM      4  N   UNL d   1     -47.851  29.038  34.408  0.00  0.00    -0.204 NA
ATOM      5  N   UNL d   1     -48.132  29.351  36.480  0.00  0.00    -0.122 NA
ATOM      6  N   UNL d   1     -47.614  29.956  36.325  0.00  0.00    -0.058 NA
ATOM      7  N   UNL d   1     -48.765  28.010  34.807  0.00  0.00    -0.251 N 
ATOM      8  C   UNL d   1     -48.735  28.298  35.580  0.00  0.00     0.289 A 
ATOM      9  C   UNL d   1     -48.317  28.386  34.212  0.00  0.00     0.187 A 
ATOM     10  O   UNL d   1     -49.183  27.922  36.174  0.00  0.00    -0.265 OA
ENDROOT
BRANCH   7  11
ATOM     11  C   UNL d   1     -49.234  27.353  34.607  0.00  0.00     0.127 C 
BRANCH  11  12
ATOM     12  C   UNL d   1     -49.639  27.328  33.880  0.00  0.00     0.213 C 
ATOM     13  O   UNL d   1     -49.496  27.909  33.310  0.00  0.00    -0.285 OA
BRANCH  12  14
ATOM     14  C   UNL d   1     -50.177  26.725  33.737  0.00  0.00     0.041 A 
ATOM     15  C   UNL d   1     -49.908  25.961  33.567  0.00  0.00     0.004 A 
ATOM     16  C   UNL d   1     -50.445  25.366  33.425  0.00  0.00     0.011 A 
ATOM     17  C   UNL d   1     -51.256  25.520  33.451  0.00  0.00     0.058 A 
ATOM     18  C   UNL d   1     -51.526  26.284  33.621  0.00  0.00     0.011 A 
ATOM     19 CL   UNL d   1     -51.805  24.910  33.306  0.00  0.00    -0.082 Cl
ATOM     20  C   UNL d   1     -50.988  26.879  33.762  0.00  0.00     0.004 A 
ENDBRANCH  12  14
ENDBRANCH  11  12
ENDBRANCH   7  11
BRANCH   3  21
ATOM     21  C   UNL d   1     -46.897  30.485  35.150  0.00  0.00     0.104 C 
BRANCH  21  22
ATOM     22  C   UNL d   1     -47.175  31.233  34.911  0.00  0.00     0.019 A 
ATOM     23  C   UNL d   1     -47.222  31.425  34.110  0.00  0.00     0.002 A 
ATOM     24  C   UNL d   1     -47.495  32.159  33.897  0.00  0.00     0.000 A 
ATOM     25  C   UNL d   1     -47.725  32.710  34.451  0.00  0.00     0.000 A 
ATOM     26  C   UNL d   1     -47.676  32.512  35.274  0.00  0.00     0.000 A 
ATOM     27  C   UNL d   1     -47.400  31.771  35.491  0.00  0.00     0.002 A 
ENDBRANCH  21  22
ENDBRANCH   3  21
TORSDOF 5
ENDMDL
MODEL 2
REMARK VINA RESULT:      69.8      1.571      2.513
REMARK  5 active torsions:
REMARK  status: ('A' for Active; 'I' for Inactive)
REMARK    1  A    between atoms: C_12  and  N_3 
REMARK    2  A    between atoms: C_10  and  N_7 
REMARK    3  A    between atoms: C_11  and  C_10 
REMARK    4  A    between atoms: C_14  and  C_11 
REMARK    5  A    between atoms: C_19  and  C_12 
ROOT
ATOM      1  C   UNL d   1     -49.106  27.616  34.831  0.00  0.00     0.191 A 
ATOM      2  C   UNL d   1     -48.736  27.158  34.240  0.00  0.00     0.196 A 
ATOM      3  N   UNL d   1     -48.563  28.199  35.068  0.00  0.00    -0.191 N 
ATOM      4  N   UNL d   1     -49.869  27.439  35.063  0.00  0.00    -0.204 NA
ATOM      5  N   UNL d   1     -47.974  27.469  34.125  0.00  0.00    -0.122 NA
ATOM      6  N   UNL d   1     -47.880  28.097  34.630  0.00  0.00    -0.058 NA
ATOM      7  N   UNL d   1     -49.912  26.353  34.129  0.00  0.00    -0.251 N 
ATOM      8  C   UNL d   1     -49.141  26.536  33.898  0.00  0.00     0.289 A 
ATOM      9  C   UNL d   1     -50.281  26.811  34.720  0.00  0.00     0.187 A 
ATOM     10  O   UNL d   1     -48.772  26.078  33.306  0.00  0.00    -0.265 OA
ENDROOT
BRANCH   7  11
ATOM     11  C   UNL d   1     -50.330  25.722  33.786  0.00  0.00     0.127 C 
BRANCH  11  12
ATOM     12  C   UNL d   1     -51.125  25.816  33.557  0.00  0.00     0.213 C 
ATOM     13  O   UNL d   1     -51.409  26.566  33.358  0.00  0.00    -0.285 OA
BRANCH  12  14
ATOM     14  C   UNL d   1     -51.619  25.161  33.531  0.00  0.00     0.041 A 
ATOM     15  C   UNL d   1     -51.302  24.400  33.601  0.00  0.00     0.004 A 
ATOM     16  C   UNL d   1     -51.795  23.753  33.575  0.00  0.00     0.011 A 
ATOM     17  C   UNL d   1     -52.609  23.851  33.479  0.00  0.00     0.058 A 
ATOM     18  C   UNL d   1     -52.928  24.613  33.409  0.00  0.00     0.011 A 
ATOM     19 CL   UNL d   1     -53.113  23.188  33.453  0.00  0.00    -0.082 Cl
ATOM     20  C   UNL d   1     -52.434  25.260  33.435  0.00  0.00     0.004 A 
ENDBRANCH  12  14
ENDBRANCH  11  12
ENDBRANCH   7  11
BRANCH   3  21
ATOM     21  C   UNL d   1     -48.690  28.788  35.650  0.00  0.00     0.104 C 
BRANCH  21  22
ATOM     22  C   UNL d   1     -48.058  29.272  35.894  0.00  0.00     0.019 A 
ATOM     23  C   UNL d   1     -47.510  28.998  36.446  0.00  0.00     0.002 A 
ATOM     24  C   UNL d   1     -46.900  29.485  36.672  0.00  0.00     0.000 A 
ATOM     25  C   UNL d   1     -46.816  30.236  36.368  0.00  0.00     0.000 A 
ATOM     26  C   UNL d   1     -47.380  30.517  35.801  0.00  0.00     0.000 A 
ATOM     27  C   UNL d   1     -47.996  30.027  35.572  0.00  0.00     0.002 A 
ENDBRANCH  21  22
ENDBRANCH   3  21
TORSDOF 5
ENDMDL
