MODEL 1
REMARK VINA RESULT:      11.3      0.000      0.000
REMARK  5 active torsions:
REMARK  status: ('A' for Active; 'I' for Inactive)
REMARK       I    between atoms: C_2  and  N_6 
REMARK    1  A    between atoms: C_7  and  C_2 
REMARK    2  A    between atoms: N_3  and  C_4 
REMARK    3  A    between atoms: C_12  and  N_5 
REMARK    4  A    between atoms: N_6  and  C_18 
REMARK    5  A    between atoms: O_33  and  C_30 
ROOT
ATOM      1  C   UNL d   1      32.265  21.175 -20.646  0.00  0.00     0.086 A 
ATOM      2  C   UNL d   1      32.685  20.468 -20.643  0.00  0.00     0.074 A 
ATOM      3  C   UNL d   1      31.781  21.366 -21.281  0.00  0.00     0.102 C 
ATOM      4  N   UNL d   1      31.297  21.554 -21.918  0.00  0.00    -0.191 NA
ATOM      5  C   UNL d   1      33.170  20.276 -20.007  0.00  0.00     0.020 A 
ATOM      6  C   UNL d   1      32.330  21.700 -20.006  0.00  0.00     0.031 A 
ATOM      7  C   UNL d   1      32.813  21.515 -19.367  0.00  0.00     0.085 A 
ATOM      8  C   UNL d   1      33.240  20.795 -19.363  0.00  0.00     0.021 A 
ENDROOT
BRANCH   2   9
ATOM      9  N   UNL d   1      32.625  19.941 -21.276  0.00  0.00    -0.301 N 
ATOM     10  C   UNL d   1      33.145  19.306 -21.318  0.00  0.00     0.100 A 
ATOM     11  C   UNL d   1      33.090  18.772 -21.952  0.00  0.00     0.100 A 
ATOM     12  N   UNL d   1      32.514  18.886 -22.534  0.00  0.00    -0.301 N 
ATOM     13  C   UNL d   1      31.995  19.527 -22.485  0.00  0.00     0.100 A 
ATOM     14  C   UNL d   1      32.049  20.055 -21.858  0.00  0.00     0.100 A 
BRANCH  12  15
ATOM     15  C   UNL d   1      32.460  18.352 -23.168  0.00  0.00     0.064 A 
ATOM     16  C   UNL d   1      31.737  18.007 -23.353  0.00  0.00     0.020 A 
ATOM     17  C   UNL d   1      31.682  17.476 -23.984  0.00  0.00     0.026 A 
ATOM     18  C   UNL d   1      32.356  17.286 -24.435  0.00  0.00     0.094 A 
ATOM     19  C   UNL d   1      33.091  17.634 -24.250  0.00  0.00     0.026 A 
ATOM     20  C   UNL d   1      33.141  18.166 -23.617  0.00  0.00     0.020 A 
BRANCH  18  21
ATOM     21  O   UNL d   1      32.310  16.755 -25.067  0.00  0.00    -0.328 OA
ATOM     22  C   UNL d   1      32.365  15.949 -24.918  0.00  0.00     0.181 C 
ENDBRANCH  18  21
ENDBRANCH  12  15
ENDBRANCH   2   9
BRANCH   7  23
ATOM     23  N   UNL d   1      32.880  22.033 -18.730  0.00  0.00    -0.208 NA
ATOM     24  C   UNL d   1      32.955  21.738 -17.968  0.00  0.00     0.279 C 
ATOM     25  O   UNL d   1      32.964  20.927 -17.836  0.00  0.00    -0.265 OA
BRANCH  24  26
ATOM     26  C   UNL d   1      33.022  22.259 -17.329  0.00  0.00     0.060 A 
ATOM     27  C   UNL d   1      32.996  21.977 -16.568  0.00  0.00     0.031 A 
ATOM     28  C   UNL d   1      33.063  22.500 -15.933  0.00  0.00     0.119 A 
ATOM     29  O   UNL d   1      33.057  22.385 -15.124  0.00  0.00    -0.300 OA
ATOM     30  C   UNL d   1      33.156  23.299 -16.077  0.00  0.00     0.119 A 
ATOM     31  C   UNL d   1      33.146  23.116 -14.761  0.00  0.00     0.304 A 
ATOM     32  O   UNL d   1      33.207  23.682 -15.350  0.00  0.00    -0.300 OA
ATOM     33  C   UNL d   1      33.183  23.588 -16.846  0.00  0.00     0.026 A 
ATOM     34  C   UNL d   1      33.116  23.068 -17.474  0.00  0.00     0.007 A 
ENDBRANCH  24  26
ENDBRANCH   7  23
TORSDOF 5
ENDMDL
