MODEL 1
REMARK VINA RESULT:      -7.0      0.000      0.000
REMARK  8 active torsions:
REMARK  status: ('A' for Active; 'I' for Inactive)
REMARK    1  A    between atoms: C_2  and  C_1 
REMARK    2  A    between atoms: C_3  and  C_1 
REMARK    3  A    between atoms: C_5  and  C_1 
REMARK    4  A    between atoms: N_4  and  C_6 
REMARK    5  A    between atoms: C_7  and  N_4 
REMARK    6  A    between atoms: C_8  and  N_4 
REMARK    7  A    between atoms: C_20  and  C_7 
REMARK    8  A    between atoms: C_21  and  C_8 
ROOT
ATOM      1  C   UNL d   1     -46.426  13.248  22.633  0.00  0.00     0.044 A 
ATOM      2  C   UNL d   1     -48.060  13.368  22.865  0.00  0.00     0.064 A 
ATOM      3  C   UNL d   1     -46.718  13.580  23.334  0.00  0.00     0.004 A 
ATOM      4  C   UNL d   1     -46.947  12.978  22.054  0.00  0.00     0.004 A 
ATOM      5  C   UNL d   1     -47.538  13.641  23.452  0.00  0.00     0.018 A 
ATOM      6  C   UNL d   1     -47.767  13.040  22.172  0.00  0.00     0.018 A 
ENDROOT
BRANCH   2   7
ATOM      7  N   UNL d   1     -48.870  13.429  22.982  0.00  0.00    -0.304 N 
BRANCH   7   8
ATOM      8  C   UNL d   1     -49.210  13.135  23.668  0.00  0.00     0.080 C 
BRANCH   8   9
ATOM      9  C   UNL d   1     -49.563  12.398  23.678  0.00  0.00     0.018 A 
ATOM     10  C   UNL d   1     -49.086  11.725  23.679  0.00  0.00     0.002 A 
ATOM     11  C   UNL d   1     -49.431  10.964  23.689  0.00  0.00     0.000 A 
ATOM     12  C   UNL d   1     -50.263  10.891  23.698  0.00  0.00     0.000 A 
ATOM     13  C   UNL d   1     -50.740  11.564  23.697  0.00  0.00     0.000 A 
ATOM     14  C   UNL d   1     -50.385  12.320  23.687  0.00  0.00     0.002 A 
ENDBRANCH   8   9
ENDBRANCH   7   8
BRANCH   7  15
ATOM     15  C   UNL d   1     -49.342  13.782  22.413  0.00  0.00     0.080 C 
BRANCH  15  16
ATOM     16  C   UNL d   1     -49.720  14.488  22.574  0.00  0.00     0.018 A 
ATOM     17  C   UNL d   1     -49.289  15.147  22.832  0.00  0.00     0.002 A 
ATOM     18  C   UNL d   1     -49.670  15.860  22.995  0.00  0.00     0.000 A 
ATOM     19  C   UNL d   1     -50.486  15.922  22.900  0.00  0.00     0.000 A 
ATOM     20  C   UNL d   1     -50.929  15.268  22.641  0.00  0.00     0.000 A 
ATOM     21  C   UNL d   1     -50.531  14.552  22.481  0.00  0.00     0.002 A 
ENDBRANCH  15  16
ENDBRANCH   7  15
ENDBRANCH   2   7
BRANCH   1  22
ATOM     22  C   UNL d   1     -45.612  13.187  22.516  0.00  0.00     0.297 C 
ATOM     23  O   UNL d   1     -44.797  13.126  22.399  0.00  0.00    -0.281 OA
BRANCH  22  24
ATOM     24  C   UNL d   1     -45.579  13.981  22.328  0.00  0.00     0.457 C 
ATOM     25  F   UNL d   1     -45.863  14.171  23.079  0.00  0.00    -0.163 F 
ATOM     26  F   UNL d   1     -45.296  13.792  21.576  0.00  0.00    -0.163 F 
ATOM     27  F   UNL d   1     -45.547  14.783  22.138  0.00  0.00    -0.163 F 
ENDBRANCH  22  24
BRANCH  22  28
ATOM     28  C   UNL d   1     -45.644  12.376  22.708  0.00  0.00     0.457 C 
ATOM     29  F   UNL d   1     -45.677  11.583  22.896  0.00  0.00    -0.163 F 
ATOM     30  F   UNL d   1     -45.556  12.183  21.910  0.00  0.00    -0.163 F 
ATOM     31  F   UNL d   1     -45.732  12.568  23.505  0.00  0.00    -0.163 F 
ENDBRANCH  22  28
ENDBRANCH   1  22
TORSDOF 8
ENDMDL
MODEL 2
REMARK VINA RESULT:      -6.2      2.664      4.735
REMARK  8 active torsions:
REMARK  status: ('A' for Active; 'I' for Inactive)
REMARK    1  A    between atoms: C_2  and  C_1 
REMARK    2  A    between atoms: C_3  and  C_1 
REMARK    3  A    between atoms: C_5  and  C_1 
REMARK    4  A    between atoms: N_4  and  C_6 
REMARK    5  A    between atoms: C_7  and  N_4 
REMARK    6  A    between atoms: C_8  and  N_4 
REMARK    7  A    between atoms: C_20  and  C_7 
REMARK    8  A    between atoms: C_21  and  C_8 
ROOT
ATOM      1  C   UNL d   1     -49.434  12.552  22.436  0.00  0.00     0.044 A 
ATOM      2  C   UNL d   1     -47.806  12.527  22.735  0.00  0.00     0.064 A 
ATOM      3  C   UNL d   1     -49.148  12.801  23.172  0.00  0.00     0.004 A 
ATOM      4  C   UNL d   1     -48.911  12.292  21.855  0.00  0.00     0.004 A 
ATOM      5  C   UNL d   1     -48.331  12.790  23.324  0.00  0.00     0.018 A 
ATOM      6  C   UNL d   1     -48.094  12.280  22.007  0.00  0.00     0.018 A 
ENDROOT
BRANCH   2   7
ATOM      7  N   UNL d   1     -47.000  12.515  22.885  0.00  0.00    -0.304 N 
BRANCH   7   8
ATOM      8  C   UNL d   1     -46.475  12.829  22.338  0.00  0.00     0.080 C 
BRANCH   8   9
ATOM      9  C   UNL d   1     -46.197  13.594  22.416  0.00  0.00     0.018 A 
ATOM     10  C   UNL d   1     -45.423  13.765  22.190  0.00  0.00     0.002 A 
ATOM     11  C   UNL d   1     -45.125  14.542  22.264  0.00  0.00     0.000 A 
ATOM     12  C   UNL d   1     -45.617  15.144  22.569  0.00  0.00     0.000 A 
ATOM     13  C   UNL d   1     -46.392  14.973  22.795  0.00  0.00     0.000 A 
ATOM     14  C   UNL d   1     -46.681  14.192  22.717  0.00  0.00     0.002 A 
ENDBRANCH   8   9
ENDBRANCH   7   8
BRANCH   7  15
ATOM     15  C   UNL d   1     -46.715  12.190  23.580  0.00  0.00     0.080 C 
BRANCH  15  16
ATOM     16  C   UNL d   1     -46.273  11.503  23.562  0.00  0.00     0.018 A 
ATOM     17  C   UNL d   1     -46.630  10.769  23.698  0.00  0.00     0.002 A 
ATOM     18  C   UNL d   1     -46.183  10.075  23.680  0.00  0.00     0.000 A 
ATOM     19  C   UNL d   1     -45.375  10.110  23.525  0.00  0.00     0.000 A 
ATOM     20  C   UNL d   1     -45.005  10.842  23.387  0.00  0.00     0.000 A 
ATOM     21  C   UNL d   1     -45.468  11.535  23.409  0.00  0.00     0.002 A 
ENDBRANCH  15  16
ENDBRANCH   7  15
ENDBRANCH   2   7
BRANCH   1  22
ATOM     22  C   UNL d   1     -50.245  12.563  22.285  0.00  0.00     0.297 C 
ATOM     23  O   UNL d   1     -51.056  12.575  22.135  0.00  0.00    -0.281 OA
BRANCH  22  24
ATOM     24  C   UNL d   1     -50.154  13.249  21.850  0.00  0.00     0.457 C 
ATOM     25  F   UNL d   1     -50.169  13.692  22.545  0.00  0.00    -0.163 F 
ATOM     26  F   UNL d   1     -50.139  12.805  21.155  0.00  0.00    -0.163 F 
ATOM     27  F   UNL d   1     -50.062  13.941  21.410  0.00  0.00    -0.163 F 
ENDBRANCH  22  24
BRANCH  22  28
ATOM     28  C   UNL d   1     -50.338  11.864  22.730  0.00  0.00     0.457 C 
ATOM     29  F   UNL d   1     -50.428  11.179  23.165  0.00  0.00    -0.163 F 
ATOM     30  F   UNL d   1     -50.478  12.313  23.408  0.00  0.00    -0.163 F 
ATOM     31  F   UNL d   1     -50.197  11.415  22.052  0.00  0.00    -0.163 F 
ENDBRANCH  22  28
ENDBRANCH   1  22
TORSDOF 8
ENDMDL
MODEL 3
REMARK VINA RESULT:      -6.0      2.641      4.043
REMARK  8 active torsions:
REMARK  status: ('A' for Active; 'I' for Inactive)
REMARK    1  A    between atoms: C_2  and  C_1 
REMARK    2  A    between atoms: C_3  and  C_1 
REMARK    3  A    between atoms: C_5  and  C_1 
REMARK    4  A    between atoms: N_4  and  C_6 
REMARK    5  A    between atoms: C_7  and  N_4 
REMARK    6  A    between atoms: C_8  and  N_4 
REMARK    7  A    between atoms: C_20  and  C_7 
REMARK    8  A    between atoms: C_21  and  C_8 
ROOT
ATOM      1  C   UNL d   1     -49.447  12.474  22.508  0.00  0.00     0.044 A 
ATOM      2  C   UNL d   1     -47.823  12.447  22.829  0.00  0.00     0.064 A 
ATOM      3  C   UNL d   1     -49.168  12.742  23.241  0.00  0.00     0.004 A 
ATOM      4  C   UNL d   1     -48.918  12.195  21.942  0.00  0.00     0.004 A 
ATOM      5  C   UNL d   1     -48.353  12.729  23.404  0.00  0.00     0.018 A 
ATOM      6  C   UNL d   1     -48.103  12.182  22.104  0.00  0.00     0.018 A 
ENDROOT
BRANCH   2   7
ATOM      7  N   UNL d   1     -47.019  12.434  22.990  0.00  0.00    -0.304 N 
BRANCH   7   8
ATOM      8  C   UNL d   1     -46.744  12.108  23.691  0.00  0.00     0.080 C 
BRANCH   8   9
ATOM      9  C   UNL d   1     -46.291  11.428  23.687  0.00  0.00     0.018 A 
ATOM     10  C   UNL d   1     -46.667  10.694  23.697  0.00  0.00     0.002 A 
ATOM     11  C   UNL d   1     -46.218   9.990  23.693  0.00  0.00     0.000 A 
ATOM     12  C   UNL d   1     -45.384  10.035  23.678  0.00  0.00     0.000 A 
ATOM     13  C   UNL d   1     -45.007  10.769  23.667  0.00  0.00     0.000 A 
ATOM     14  C   UNL d   1     -45.466  11.468  23.672  0.00  0.00     0.002 A 
ENDBRANCH   8   9
ENDBRANCH   7   8
BRANCH   7  15
ATOM     15  C   UNL d   1     -46.487  12.746  22.451  0.00  0.00     0.080 C 
BRANCH  15  16
ATOM     16  C   UNL d   1     -46.253  13.527  22.509  0.00  0.00     0.018 A 
ATOM     17  C   UNL d   1     -45.549  13.783  22.156  0.00  0.00     0.002 A 
ATOM     18  C   UNL d   1     -45.314  14.571  22.215  0.00  0.00     0.000 A 
ATOM     19  C   UNL d   1     -45.780  15.111  22.626  0.00  0.00     0.000 A 
ATOM     20  C   UNL d   1     -46.489  14.865  22.984  0.00  0.00     0.000 A 
ATOM     21  C   UNL d   1     -46.716  14.065  22.917  0.00  0.00     0.002 A 
ENDBRANCH  15  16
ENDBRANCH   7  15
ENDBRANCH   2   7
BRANCH   1  22
ATOM     22  C   UNL d   1     -50.255  12.486  22.347  0.00  0.00     0.297 C 
ATOM     23  O   UNL d   1     -51.064  12.499  22.185  0.00  0.00    -0.281 OA
BRANCH  22  24
ATOM     24  C   UNL d   1     -50.156  13.165  21.904  0.00  0.00     0.457 C 
ATOM     25  F   UNL d   1     -50.241  13.623  22.585  0.00  0.00    -0.163 F 
ATOM     26  F   UNL d   1     -50.072  12.708  21.222  0.00  0.00    -0.163 F 
ATOM     27  F   UNL d   1     -50.056  13.851  21.456  0.00  0.00    -0.163 F 
ENDBRANCH  22  24
BRANCH  22  28
ATOM     28  C   UNL d   1     -50.357  11.793  22.799  0.00  0.00     0.457 C 
ATOM     29  F   UNL d   1     -50.456  11.115  23.242  0.00  0.00    -0.163 F 
ATOM     30  F   UNL d   1     -49.860  11.384  22.284  0.00  0.00    -0.163 F 
ATOM     31  F   UNL d   1     -50.854  12.202  23.315  0.00  0.00    -0.163 F 
ENDBRANCH  22  28
ENDBRANCH   1  22
TORSDOF 8
ENDMDL
MODEL 4
REMARK VINA RESULT:      -5.8      2.576      4.801
REMARK  8 active torsions:
REMARK  status: ('A' for Active; 'I' for Inactive)
REMARK    1  A    between atoms: C_2  and  C_1 
REMARK    2  A    between atoms: C_3  and  C_1 
REMARK    3  A    between atoms: C_5  and  C_1 
REMARK    4  A    between atoms: N_4  and  C_6 
REMARK    5  A    between atoms: C_7  and  N_4 
REMARK    6  A    between atoms: C_8  and  N_4 
REMARK    7  A    between atoms: C_20  and  C_7 
REMARK    8  A    between atoms: C_21  and  C_8 
ROOT
ATOM      1  C   UNL d   1     -49.468  13.553  22.600  0.00  0.00     0.044 A 
ATOM      2  C   UNL d   1     -47.910  13.038  22.814  0.00  0.00     0.064 A 
ATOM      3  C   UNL d   1     -49.057  13.213  21.965  0.00  0.00     0.004 A 
ATOM      4  C   UNL d   1     -49.103  13.634  23.333  0.00  0.00     0.004 A 
ATOM      5  C   UNL d   1     -48.275  12.954  22.071  0.00  0.00     0.018 A 
ATOM      6  C   UNL d   1     -48.321  13.375  23.439  0.00  0.00     0.018 A 
ENDROOT
BRANCH   2   7
ATOM      7  N   UNL d   1     -47.138  12.782  22.918  0.00  0.00    -0.304 N 
BRANCH   7   8
ATOM      8  C   UNL d   1     -46.587  12.881  22.318  0.00  0.00     0.080 C 
BRANCH   8   9
ATOM      9  C   UNL d   1     -46.071  13.515  22.324  0.00  0.00     0.018 A 
ATOM     10  C   UNL d   1     -45.326  13.430  21.981  0.00  0.00     0.002 A 
ATOM     11  C   UNL d   1     -44.788  14.069  21.979  0.00  0.00     0.000 A 
ATOM     12  C   UNL d   1     -45.011  14.795  22.328  0.00  0.00     0.000 A 
ATOM     13  C   UNL d   1     -45.756  14.880  22.671  0.00  0.00     0.000 A 
ATOM     14  C   UNL d   1     -46.287  14.235  22.668  0.00  0.00     0.002 A 
ENDBRANCH   8   9
ENDBRANCH   7   8
BRANCH   7  15
ATOM     15  C   UNL d   1     -46.913  12.428  23.621  0.00  0.00     0.080 C 
BRANCH  15  16
ATOM     16  C   UNL d   1     -46.714  11.636  23.637  0.00  0.00     0.018 A 
ATOM     17  C   UNL d   1     -47.303  11.055  23.682  0.00  0.00     0.002 A 
ATOM     18  C   UNL d   1     -47.102  10.255  23.698  0.00  0.00     0.000 A 
ATOM     19  C   UNL d   1     -46.311  10.028  23.669  0.00  0.00     0.000 A 
ATOM     20  C   UNL d   1     -45.712  10.602  23.623  0.00  0.00     0.000 A 
ATOM     21  C   UNL d   1     -45.928  11.407  23.608  0.00  0.00     0.002 A 
ENDBRANCH  15  16
ENDBRANCH   7  15
ENDBRANCH   2   7
BRANCH   1  22
ATOM     22  C   UNL d   1     -50.245  13.810  22.495  0.00  0.00     0.297 C 
ATOM     23  O   UNL d   1     -51.022  14.068  22.389  0.00  0.00    -0.281 OA
BRANCH  22  24
ATOM     24  C   UNL d   1     -50.511  13.043  22.580  0.00  0.00     0.457 C 
ATOM     25  F   UNL d   1     -50.595  13.162  23.392  0.00  0.00    -0.163 F 
ATOM     26  F   UNL d   1     -50.427  12.923  21.768  0.00  0.00    -0.163 F 
ATOM     27  F   UNL d   1     -50.779  12.267  22.667  0.00  0.00    -0.163 F 
ENDBRANCH  22  24
BRANCH  22  28
ATOM     28  C   UNL d   1     -49.974  14.594  22.407  0.00  0.00     0.457 C 
ATOM     29  F   UNL d   1     -49.708  15.361  22.321  0.00  0.00    -0.163 F 
ATOM     30  F   UNL d   1     -50.013  14.699  23.224  0.00  0.00    -0.163 F 
ATOM     31  F   UNL d   1     -49.934  14.489  21.590  0.00  0.00    -0.163 F 
ENDBRANCH  22  28
ENDBRANCH   1  22
TORSDOF 8
ENDMDL
MODEL 5
REMARK VINA RESULT:      -5.1      2.538      4.188
REMARK  8 active torsions:
REMARK  status: ('A' for Active; 'I' for Inactive)
REMARK    1  A    between atoms: C_2  and  C_1 
REMARK    2  A    between atoms: C_3  and  C_1 
REMARK    3  A    between atoms: C_5  and  C_1 
REMARK    4  A    between atoms: N_4  and  C_6 
REMARK    5  A    between atoms: C_7  and  N_4 
REMARK    6  A    between atoms: C_8  and  N_4 
REMARK    7  A    between atoms: C_20  and  C_7 
REMARK    8  A    between atoms: C_21  and  C_8 
ROOT
ATOM      1  C   UNL d   1     -49.194  14.108  22.364  0.00  0.00     0.044 A 
ATOM      2  C   UNL d   1     -47.741  13.329  22.506  0.00  0.00     0.064 A 
ATOM      3  C   UNL d   1     -48.894  13.679  21.722  0.00  0.00     0.004 A 
ATOM      4  C   UNL d   1     -48.772  14.147  23.070  0.00  0.00     0.004 A 
ATOM      5  C   UNL d   1     -48.165  13.287  21.792  0.00  0.00     0.018 A 
ATOM      6  C   UNL d   1     -48.042  13.755  23.140  0.00  0.00     0.018 A 
ENDROOT
BRANCH   2   7
ATOM      7  N   UNL d   1     -47.022  12.942  22.575  0.00  0.00    -0.304 N 
BRANCH   7   8
ATOM      8  C   UNL d   1     -46.803  12.604  23.290  0.00  0.00     0.080 C 
BRANCH   8   9
ATOM      9  C   UNL d   1     -46.909  11.805  23.425  0.00  0.00     0.018 A 
ATOM     10  C   UNL d   1     -46.248  11.315  23.485  0.00  0.00     0.002 A 
ATOM     11  C   UNL d   1     -46.341  10.497  23.622  0.00  0.00     0.000 A 
ATOM     12  C   UNL d   1     -47.109  10.177  23.698  0.00  0.00     0.000 A 
ATOM     13  C   UNL d   1     -47.771  10.666  23.638  0.00  0.00     0.000 A 
ATOM     14  C   UNL d   1     -47.667  11.484  23.501  0.00  0.00     0.002 A 
ENDBRANCH   8   9
ENDBRANCH   7   8
BRANCH   7  15
ATOM     15  C   UNL d   1     -46.518  12.891  21.931  0.00  0.00     0.080 C 
BRANCH  15  16
ATOM     16  C   UNL d   1     -45.790  13.262  21.948  0.00  0.00     0.018 A 
ATOM     17  C   UNL d   1     -45.729  14.059  22.163  0.00  0.00     0.002 A 
ATOM     18  C   UNL d   1     -44.994  14.434  22.180  0.00  0.00     0.000 A 
ATOM     19  C   UNL d   1     -44.313  14.015  21.983  0.00  0.00     0.000 A 
ATOM     20  C   UNL d   1     -44.363  13.214  21.766  0.00  0.00     0.000 A 
ATOM     21  C   UNL d   1     -45.112  12.847  21.753  0.00  0.00     0.002 A 
ENDBRANCH  15  16
ENDBRANCH   7  15
ENDBRANCH   2   7
BRANCH   1  22
ATOM     22  C   UNL d   1     -49.918  14.498  22.295  0.00  0.00     0.297 C 
ATOM     23  O   UNL d   1     -50.643  14.887  22.225  0.00  0.00    -0.281 OA
BRANCH  22  24
ATOM     24  C   UNL d   1     -50.278  13.792  22.093  0.00  0.00     0.457 C 
ATOM     25  F   UNL d   1     -50.196  13.979  21.293  0.00  0.00    -0.163 F 
ATOM     26  F   UNL d   1     -50.361  13.605  22.892  0.00  0.00    -0.163 F 
ATOM     27  F   UNL d   1     -50.641  13.080  21.889  0.00  0.00    -0.163 F 
ENDBRANCH  22  24
BRANCH  22  28
ATOM     28  C   UNL d   1     -49.551  15.217  22.501  0.00  0.00     0.457 C 
ATOM     29  F   UNL d   1     -49.192  15.922  22.703  0.00  0.00    -0.163 F 
ATOM     30  F   UNL d   1     -49.799  15.120  23.282  0.00  0.00    -0.163 F 
ATOM     31  F   UNL d   1     -49.304  15.315  21.720  0.00  0.00    -0.163 F 
ENDBRANCH  22  28
ENDBRANCH   1  22
TORSDOF 8
ENDMDL
MODEL 6
REMARK VINA RESULT:      -4.9      2.149      3.582
REMARK  8 active torsions:
REMARK  status: ('A' for Active; 'I' for Inactive)
REMARK    1  A    between atoms: C_2  and  C_1 
REMARK    2  A    between atoms: C_3  and  C_1 
REMARK    3  A    between atoms: C_5  and  C_1 
REMARK    4  A    between atoms: N_4  and  C_6 
REMARK    5  A    between atoms: C_7  and  N_4 
REMARK    6  A    between atoms: C_8  and  N_4 
REMARK    7  A    between atoms: C_20  and  C_7 
REMARK    8  A    between atoms: C_21  and  C_8 
ROOT
ATOM      1  C   UNL d   1     -49.141  12.044  22.849  0.00  0.00     0.044 A 
ATOM      2  C   UNL d   1     -48.625  13.616  22.889  0.00  0.00     0.064 A 
ATOM      3  C   UNL d   1     -49.055  12.466  22.141  0.00  0.00     0.004 A 
ATOM      4  C   UNL d   1     -48.970  12.404  23.569  0.00  0.00     0.004 A 
ATOM      5  C   UNL d   1     -48.796  13.255  22.160  0.00  0.00     0.018 A 
ATOM      6  C   UNL d   1     -48.711  13.193  23.588  0.00  0.00     0.018 A 
ENDROOT
BRANCH   2   7
ATOM      7  N   UNL d   1     -48.370  14.395  22.908  0.00  0.00    -0.304 N 
BRANCH   7   8
ATOM      8  C   UNL d   1     -47.730  14.607  23.376  0.00  0.00     0.080 C 
BRANCH   8   9
ATOM      9  C   UNL d   1     -46.966  14.550  23.091  0.00  0.00     0.018 A 
ATOM     10  C   UNL d   1     -46.434  14.042  23.466  0.00  0.00     0.002 A 
ATOM     11  C   UNL d   1     -45.651  13.972  23.186  0.00  0.00     0.000 A 
ATOM     12  C   UNL d   1     -45.409  14.421  22.524  0.00  0.00     0.000 A 
ATOM     13  C   UNL d   1     -45.940  14.929  22.149  0.00  0.00     0.000 A 
ATOM     14  C   UNL d   1     -46.722  14.991  22.437  0.00  0.00     0.002 A 
ENDBRANCH   8   9
ENDBRANCH   7   8
BRANCH   7  15
ATOM     15  C   UNL d   1     -48.751  14.964  22.460  0.00  0.00     0.080 C 
BRANCH  15  16
ATOM     16  C   UNL d   1     -49.474  15.260  22.700  0.00  0.00     0.018 A 
ATOM     17  C   UNL d   1     -49.558  15.613  23.444  0.00  0.00     0.002 A 
ATOM     18  C   UNL d   1     -50.287  15.912  23.687  0.00  0.00     0.000 A 
ATOM     19  C   UNL d   1     -50.940  15.861  23.188  0.00  0.00     0.000 A 
ATOM     20  C   UNL d   1     -50.868  15.509  22.438  0.00  0.00     0.000 A 
ATOM     21  C   UNL d   1     -50.124  15.211  22.205  0.00  0.00     0.002 A 
ENDBRANCH  15  16
ENDBRANCH   7  15
ENDBRANCH   2   7
BRANCH   1  22
ATOM     22  C   UNL d   1     -49.398  11.260  22.830  0.00  0.00     0.297 C 
ATOM     23  O   UNL d   1     -49.655  10.476  22.811  0.00  0.00    -0.281 OA
BRANCH  22  24
ATOM     24  C   UNL d   1     -50.173  11.515  22.781  0.00  0.00     0.457 C 
ATOM     25  F   UNL d   1     -50.245  11.452  23.600  0.00  0.00    -0.163 F 
ATOM     26  F   UNL d   1     -50.100  11.579  21.962  0.00  0.00    -0.163 F 
ATOM     27  F   UNL d   1     -50.955  11.773  22.732  0.00  0.00    -0.163 F 
ENDBRANCH  22  24
BRANCH  22  28
ATOM     28  C   UNL d   1     -48.607  10.999  22.880  0.00  0.00     0.457 C 
ATOM     29  F   UNL d   1     -47.834  10.744  22.929  0.00  0.00    -0.163 F 
ATOM     30  F   UNL d   1     -48.703  10.862  23.688  0.00  0.00    -0.163 F 
ATOM     31  F   UNL d   1     -48.511  11.136  22.072  0.00  0.00    -0.163 F 
ENDBRANCH  22  28
ENDBRANCH   1  22
TORSDOF 8
ENDMDL
