MODEL 1
REMARK VINA RESULT:     111.3      0.000      0.000
REMARK  5 active torsions:
REMARK  status: ('A' for Active; 'I' for Inactive)
REMARK    1  A    between atoms: C_5  and  C_1 
REMARK    2  A    between atoms: N_7  and  C_5 
REMARK    3  A    between atoms: C_10  and  C_5 
REMARK    4  A    between atoms: C_16  and  C_19 
REMARK    5  A    between atoms: C_20  and  C_16 
ROOT
ATOM      1  C   UNL d   1     -48.935  28.435  35.839  0.00  0.00     0.085 C 
ENDROOT
BRANCH   1   2
ATOM      2  C   UNL d   1     -48.418  29.099  35.749  0.00  0.00     0.059 A 
ATOM      3  C   UNL d   1     -48.608  29.716  35.216  0.00  0.00     0.214 A 
ATOM      4  C   UNL d   1     -48.090  30.360  35.139  0.00  0.00     0.121 A 
ATOM      5  O   UNL d   1     -49.295  29.691  34.773  0.00  0.00    -0.285 OA
ATOM      6  N   UNL d   1     -48.270  30.968  34.620  0.00  0.00    -0.241 NA
ATOM      7  C   UNL d   1     -47.390  30.386  35.590  0.00  0.00     0.032 A 
ATOM      8  C   UNL d   1     -47.738  31.612  34.552  0.00  0.00     0.099 A 
ATOM      9  C   UNL d   1     -47.065  31.636  34.986  0.00  0.00     0.021 A 
ATOM     10  C   UNL d   1     -46.878  31.019  35.517  0.00  0.00     0.004 A 
ATOM     11  C   UNL d   1     -47.216  29.767  36.113  0.00  0.00     0.059 A 
ATOM     12  C   UNL d   1     -47.745  29.123  36.183  0.00  0.00     0.016 A 
ATOM     13 CL   UNL d   1     -46.527  29.792  36.558  0.00  0.00    -0.082 Cl
ENDBRANCH   1   2
BRANCH   1  14
ATOM     14  N   UNL d   1     -49.065  27.922  35.206  0.00  0.00    -0.302 N 
ATOM     15  C   UNL d   1     -49.807  27.884  34.835  0.00  0.00     0.080 A 
ATOM     16  C   UNL d   1     -49.938  27.371  34.202  0.00  0.00     0.019 A 
ATOM     17  C   UNL d   1     -49.328  26.891  33.933  0.00  0.00     0.003 A 
ATOM     18  C   UNL d   1     -48.586  26.924  34.298  0.00  0.00     0.019 A 
ATOM     19  C   UNL d   1     -48.457  27.432  34.925  0.00  0.00     0.080 A 
BRANCH  17  20
ATOM     20  C   UNL d   1     -49.456  26.383  33.306  0.00  0.00     0.000 C 
BRANCH  20  21
ATOM     21  C   UNL d   1     -50.087  25.874  33.316  0.00  0.00     0.000 A 
ATOM     22  C   UNL d   1     -49.962  25.063  33.337  0.00  0.00     0.000 A 
ATOM     23  C   UNL d   1     -50.596  24.546  33.347  0.00  0.00     0.000 A 
ATOM     24  C   UNL d   1     -51.365  24.844  33.337  0.00  0.00     0.000 A 
ATOM     25  C   UNL d   1     -51.495  25.652  33.316  0.00  0.00     0.000 A 
ATOM     26  C   UNL d   1     -50.848  26.177  33.306  0.00  0.00     0.000 A 
ENDBRANCH  20  21
ENDBRANCH  17  20
ENDBRANCH   1  14
BRANCH   1  27
ATOM     27  C   UNL d   1     -49.318  28.299  36.581  0.00  0.00     0.098 A 
ATOM     28  N   UNL d   1     -49.871  27.679  36.645  0.00  0.00    -0.243 NA
ATOM     29  C   UNL d   1     -50.243  27.546  37.362  0.00  0.00     0.099 A 
ATOM     30  C   UNL d   1     -50.067  28.024  38.007  0.00  0.00     0.021 A 
ATOM     31  C   UNL d   1     -49.519  28.642  37.949  0.00  0.00     0.003 A 
ATOM     32  C   UNL d   1     -49.147  28.775  37.233  0.00  0.00     0.021 A 
ENDBRANCH   1  27
TORSDOF 5
ENDMDL
MODEL 2
REMARK VINA RESULT:     114.2      1.363      2.053
REMARK  5 active torsions:
REMARK  status: ('A' for Active; 'I' for Inactive)
REMARK    1  A    between atoms: C_5  and  C_1 
REMARK    2  A    between atoms: N_7  and  C_5 
REMARK    3  A    between atoms: C_10  and  C_5 
REMARK    4  A    between atoms: C_16  and  C_19 
REMARK    5  A    between atoms: C_20  and  C_16 
ROOT
ATOM      1  C   UNL d   1     -50.027  27.280  35.933  0.00  0.00     0.085 C 
ENDROOT
BRANCH   1   2
ATOM      2  C   UNL d   1     -49.376  27.812  35.830  0.00  0.00     0.059 A 
ATOM      3  C   UNL d   1     -49.170  28.353  36.436  0.00  0.00     0.214 A 
ATOM      4  C   UNL d   1     -48.529  28.868  36.319  0.00  0.00     0.121 A 
ATOM      5  O   UNL d   1     -49.590  28.378  37.136  0.00  0.00    -0.285 OA
ATOM      6  N   UNL d   1     -48.322  29.399  36.907  0.00  0.00    -0.241 NA
ATOM      7  C   UNL d   1     -48.101  28.842  35.605  0.00  0.00     0.032 A 
ATOM      8  C   UNL d   1     -47.673  29.913  36.776  0.00  0.00     0.099 A 
ATOM      9  C   UNL d   1     -47.261  29.888  36.090  0.00  0.00     0.021 A 
ATOM     10  C   UNL d   1     -47.470  29.348  35.487  0.00  0.00     0.004 A 
ATOM     11  C   UNL d   1     -48.318  28.301  35.016  0.00  0.00     0.059 A 
ATOM     12  C   UNL d   1     -48.964  27.787  35.144  0.00  0.00     0.016 A 
ATOM     13 CL   UNL d   1     -47.896  28.276  34.313  0.00  0.00    -0.082 Cl
ENDBRANCH   1   2
BRANCH   1  14
ATOM     14  N   UNL d   1     -50.379  26.925  35.276  0.00  0.00    -0.302 N 
ATOM     15  C   UNL d   1     -49.916  26.560  34.691  0.00  0.00     0.080 A 
ATOM     16  C   UNL d   1     -50.268  26.205  34.034  0.00  0.00     0.019 A 
ATOM     17  C   UNL d   1     -51.085  26.212  33.956  0.00  0.00     0.003 A 
ATOM     18  C   UNL d   1     -51.552  26.574  34.535  0.00  0.00     0.019 A 
ATOM     19  C   UNL d   1     -51.203  26.925  35.185  0.00  0.00     0.080 A 
BRANCH  17  20
ATOM     20  C   UNL d   1     -51.435  25.861  33.306  0.00  0.00     0.000 C 
BRANCH  20  21
ATOM     21  C   UNL d   1     -51.629  25.074  33.322  0.00  0.00     0.000 A 
ATOM     22  C   UNL d   1     -52.416  24.843  33.355  0.00  0.00     0.000 A 
ATOM     23  C   UNL d   1     -52.615  24.050  33.371  0.00  0.00     0.000 A 
ATOM     24  C   UNL d   1     -52.020  23.480  33.355  0.00  0.00     0.000 A 
ATOM     25  C   UNL d   1     -51.233  23.705  33.322  0.00  0.00     0.000 A 
ATOM     26  C   UNL d   1     -51.031  24.513  33.306  0.00  0.00     0.000 A 
ENDBRANCH  20  21
ENDBRANCH  17  20
ENDBRANCH   1  14
BRANCH   1  27
ATOM     27  C   UNL d   1     -50.314  27.113  36.710  0.00  0.00     0.098 A 
ATOM     28  N   UNL d   1     -49.888  26.586  37.196  0.00  0.00    -0.243 NA
ATOM     29  C   UNL d   1     -50.164  26.423  37.949  0.00  0.00     0.099 A 
ATOM     30  C   UNL d   1     -50.854  26.780  38.216  0.00  0.00     0.021 A 
ATOM     31  C   UNL d   1     -51.281  27.304  37.739  0.00  0.00     0.003 A 
ATOM     32  C   UNL d   1     -51.006  27.468  36.985  0.00  0.00     0.021 A 
ENDBRANCH   1  27
TORSDOF 5
ENDMDL
