MODEL 1
REMARK VINA RESULT:      24.2      0.000      0.000
REMARK  1 active torsions:
REMARK  status: ('A' for Active; 'I' for Inactive)
REMARK    1  A    between atoms: C_7  and  C_4 
ROOT
ATOM      1  N   UNL d   1     -51.109  24.383  33.373  0.00  0.00    -0.211 NA
ATOM      2  C   UNL d   1     -50.388  24.785  33.340  0.00  0.00     0.140 A 
ATOM      3  C   UNL d   1     -50.379  25.610  33.340  0.00  0.00     0.051 A 
ATOM      4  C   UNL d   1     -51.822  24.809  33.407  0.00  0.00     0.183 A 
ATOM      5  C   UNL d   1     -51.092  26.035  33.373  0.00  0.00     0.104 A 
ATOM      6  O   UNL d   1     -51.811  25.633  33.407  0.00  0.00    -0.289 OA
ATOM      7  S   UNL d   1     -49.678  24.365  33.306  0.00  0.00    -0.057 SA
ATOM      8  C   UNL d   1     -49.662  26.014  33.306  0.00  0.00     0.004 A 
ATOM      9  C   UNL d   1     -51.075  26.847  33.373  0.00  0.00     0.025 A 
ATOM     10  C   UNL d   1     -49.655  26.826  33.307  0.00  0.00     0.000 A 
ATOM     11  C   UNL d   1     -50.354  27.249  33.340  0.00  0.00     0.002 A 
ENDROOT
BRANCH   4  12
ATOM     12  C   UNL d   1     -52.541  24.407  33.440  0.00  0.00     0.041 A 
ATOM     13  C   UNL d   1     -52.550  23.597  33.609  0.00  0.00     0.004 A 
ATOM     14  C   UNL d   1     -53.263  23.191  33.644  0.00  0.00     0.007 A 
ATOM     15  C   UNL d   1     -53.982  23.595  33.509  0.00  0.00     0.035 A 
ATOM     16  C   UNL d   1     -53.969  24.402  33.341  0.00  0.00     0.007 A 
ATOM     17 BR   UNL d   1     -54.703  23.189  33.543  0.00  0.00    -0.049 Br
ATOM     18  C   UNL d   1     -53.249  24.813  33.306  0.00  0.00     0.004 A 
ENDBRANCH   4  12
TORSDOF 1
ENDMDL
