MODEL 1
REMARK VINA RESULT:      -4.9      0.000      0.000
REMARK  5 active torsions:
REMARK  status: ('A' for Active; 'I' for Inactive)
REMARK    1  A    between atoms: C_2  and  S_1 
REMARK    2  A    between atoms: N_11  and  S_1 
REMARK    3  A    between atoms: N_3  and  C_17 
REMARK    4  A    between atoms: C_16  and  N_11 
REMARK    5  A    between atoms: C_17  and  C_16 
ROOT
ATOM      1  S   UNL d   1      58.639  -0.331  29.388  0.00  0.00     0.285 S 
ATOM      2  O   UNL d   1      58.657   0.029  28.646  0.00  0.00    -0.198 OA
ATOM      3  O   UNL d   1      58.033   0.180  29.626  0.00  0.00    -0.198 OA
ENDROOT
BRANCH   1   4
ATOM      4  C   UNL d   1      59.248  -0.853  29.167  0.00  0.00     0.105 A 
ATOM      5  C   UNL d   1      60.032  -0.665  29.340  0.00  0.00     0.012 A 
ATOM      6  C   UNL d   1      60.635  -1.177  29.125  0.00  0.00     0.001 A 
ATOM      7  C   UNL d   1      60.216   0.042  29.733  0.00  0.00     0.001 C 
ATOM      8  C   UNL d   1      60.458  -1.887  28.731  0.00  0.00     0.000 A 
ATOM      9  C   UNL d   1      59.665  -2.068  28.560  0.00  0.00     0.001 A 
ATOM     10  C   UNL d   1      61.054  -2.410  28.508  0.00  0.00     0.000 C 
ATOM     11  C   UNL d   1      59.065  -1.546  28.782  0.00  0.00     0.012 A 
ATOM     12  C   UNL d   1      58.281  -1.730  28.610  0.00  0.00     0.001 C 
ENDBRANCH   1   4
BRANCH   1  13
ATOM     13  N   UNL d   1      58.461  -0.542  30.164  0.00  0.00    -0.155 NA
BRANCH  13  14
ATOM     14  C   UNL d   1      57.770  -0.266  30.521  0.00  0.00     0.131 C 
BRANCH  14  15
ATOM     15  C   UNL d   1      57.441  -0.681  31.153  0.00  0.00     0.102 C 
BRANCH  15  16
ATOM     16  N   UNL d   1      56.959  -0.290  31.696  0.00  0.00    -0.303 N 
ATOM     17  C   UNL d   1      56.911   0.530  31.801  0.00  0.00     0.080 A 
ATOM     18  C   UNL d   1      56.364   0.681  32.397  0.00  0.00     0.021 A 
ATOM     19  C   UNL d   1      56.068  -0.040  32.667  0.00  0.00     0.018 A 
ATOM     20  C   UNL d   1      56.434  -0.642  32.236  0.00  0.00     0.064 A 
ATOM     21  C   UNL d   1      55.517  -0.238  33.245  0.00  0.00     0.002 A 
ATOM     22  C   UNL d   1      56.254  -1.432  32.378  0.00  0.00     0.018 A 
ATOM     23  C   UNL d   1      55.703  -1.629  32.957  0.00  0.00     0.002 A 
ATOM     24  C   UNL d   1      55.325  -1.032  33.400  0.00  0.00     0.000 A 
ENDBRANCH  15  16
ENDBRANCH  14  15
ENDBRANCH  13  14
ENDBRANCH   1  13
TORSDOF 5
ENDMDL
MODEL 2
REMARK VINA RESULT:      -2.5      1.852      5.194
REMARK  5 active torsions:
REMARK  status: ('A' for Active; 'I' for Inactive)
REMARK    1  A    between atoms: C_2  and  S_1 
REMARK    2  A    between atoms: N_11  and  S_1 
REMARK    3  A    between atoms: N_3  and  C_17 
REMARK    4  A    between atoms: C_16  and  N_11 
REMARK    5  A    between atoms: C_17  and  C_16 
ROOT
ATOM      1  S   UNL d   1      56.725  -0.556  32.261  0.00  0.00     0.285 S 
ATOM      2  O   UNL d   1      56.634  -1.325  32.546  0.00  0.00    -0.198 OA
ATOM      3  O   UNL d   1      57.109  -0.847  31.588  0.00  0.00    -0.198 OA
ENDROOT
BRANCH   1   4
ATOM      4  C   UNL d   1      56.341  -0.246  32.931  0.00  0.00     0.105 A 
ATOM      5  C   UNL d   1      55.540  -0.398  33.051  0.00  0.00     0.012 A 
ATOM      6  C   UNL d   1      55.158  -0.094  33.710  0.00  0.00     0.001 A 
ATOM      7  C   UNL d   1      55.115  -0.860  32.509  0.00  0.00     0.001 C 
ATOM      8  C   UNL d   1      55.576   0.370  34.258  0.00  0.00     0.000 A 
ATOM      9  C   UNL d   1      56.384   0.518  34.128  0.00  0.00     0.001 A 
ATOM     10  C   UNL d   1      55.205   0.682  34.923  0.00  0.00     0.000 C 
ATOM     11  C   UNL d   1      56.759   0.207  33.461  0.00  0.00     0.012 A 
ATOM     12  C   UNL d   1      57.559   0.357  33.338  0.00  0.00     0.001 C 
ENDBRANCH   1   4
BRANCH   1  13
ATOM     13  N   UNL d   1      56.914   0.105  31.808  0.00  0.00    -0.155 NA
BRANCH  13  14
ATOM     14  C   UNL d   1      57.317   0.019  31.094  0.00  0.00     0.131 C 
BRANCH  14  15
ATOM     15  C   UNL d   1      57.829   0.612  30.837  0.00  0.00     0.102 C 
BRANCH  15  16
ATOM     16  N   UNL d   1      58.080   0.628  30.051  0.00  0.00    -0.303 N 
ATOM     17  C   UNL d   1      57.589   0.629  29.385  0.00  0.00     0.080 A 
ATOM     18  C   UNL d   1      58.066   0.647  28.714  0.00  0.00     0.021 A 
ATOM     19  C   UNL d   1      58.855   0.656  28.957  0.00  0.00     0.018 A 
ATOM     20  C   UNL d   1      58.866   0.645  29.784  0.00  0.00     0.064 A 
ATOM     21  C   UNL d   1      59.567   0.674  28.546  0.00  0.00     0.002 A 
ATOM     22  C   UNL d   1      59.578   0.651  30.196  0.00  0.00     0.018 A 
ATOM     23  C   UNL d   1      60.290   0.668  29.783  0.00  0.00     0.002 A 
ATOM     24  C   UNL d   1      60.295   0.680  28.949  0.00  0.00     0.000 A 
ENDBRANCH  15  16
ENDBRANCH  14  15
ENDBRANCH  13  14
ENDBRANCH   1  13
TORSDOF 5
ENDMDL
