MODEL 1
REMARK VINA RESULT:      59.5      0.000      0.000
REMARK  6 active torsions:
REMARK  status: ('A' for Active; 'I' for Inactive)
REMARK    1  A    between atoms: N_2  and  S_1 
REMARK    2  A    between atoms: C_4  and  S_1 
REMARK    3  A    between atoms: C_5  and  N_3 
REMARK    4  A    between atoms: C_10  and  C_4 
REMARK    5  A    between atoms: C_14  and  C_10 
REMARK    6  A    between atoms: O_15  and  C_13 
ROOT
ATOM      1  N   UNL d   1      13.785  16.246  -5.449  0.00  0.00    -0.226 N 
ATOM      2  N   UNL d   1      13.746  17.866  -5.796  0.00  0.00    -0.300 N 
ATOM      3  C   UNL d   1      13.604  16.505  -6.221  0.00  0.00     0.111 A 
ATOM      4  C   UNL d   1      13.941  16.793  -4.873  0.00  0.00     0.111 A 
ATOM      5  C   UNL d   1      13.924  17.594  -5.034  0.00  0.00     0.100 A 
ATOM      6  C   UNL d   1      13.587  17.306  -6.382  0.00  0.00     0.100 A 
ENDROOT
BRANCH   1   7
ATOM      7  S   UNL d   1      13.805  15.433  -5.275  0.00  0.00     0.272 S 
ATOM      8  O   UNL d   1      13.639  15.258  -6.087  0.00  0.00    -0.200 OA
ATOM      9  O   UNL d   1      13.964  15.604  -4.492  0.00  0.00    -0.200 OA
BRANCH   7  10
ATOM     10  C   UNL d   1      13.822  14.632  -5.115  0.00  0.00     0.116 C 
BRANCH  10  11
ATOM     11  C   UNL d   1      13.111  14.228  -4.934  0.00  0.00     0.014 C 
BRANCH  11  12
ATOM     12  C   UNL d   1      13.123  13.412  -4.680  0.00  0.00     0.001 A 
ATOM     13  C   UNL d   1      13.283  12.799  -5.237  0.00  0.00     0.000 A 
ATOM     14  C   UNL d   1      13.292  12.016  -4.978  0.00  0.00     0.000 A 
ATOM     15  C   UNL d   1      13.150  11.829  -4.199  0.00  0.00     0.000 A 
ATOM     16  C   UNL d   1      12.992  12.449  -3.656  0.00  0.00     0.000 A 
ATOM     17  C   UNL d   1      12.979  13.239  -3.894  0.00  0.00     0.000 A 
ENDBRANCH  11  12
ENDBRANCH  10  11
ENDBRANCH   7  10
ENDBRANCH   1   7
BRANCH   2  18
ATOM     18  C   UNL d   1      13.723  18.663  -5.978  0.00  0.00     0.086 A 
ATOM     19  C   UNL d   1      14.432  19.121  -5.933  0.00  0.00     0.110 A 
ATOM     20  C   UNL d   1      14.414  19.929  -6.116  0.00  0.00     0.026 A 
ATOM     21  C   UNL d   1      13.686  20.302  -6.349  0.00  0.00     0.002 A 
ATOM     22  C   UNL d   1      13.008  19.835  -6.386  0.00  0.00     0.002 A 
ATOM     23  C   UNL d   1      13.035  19.018  -6.199  0.00  0.00     0.019 A 
BRANCH  19  24
ATOM     24  O   UNL d   1      15.137  18.764  -5.708  0.00  0.00    -0.327 OA
ATOM     25  C   UNL d   1      15.737  19.198  -5.347  0.00  0.00     0.181 C 
ENDBRANCH  19  24
ENDBRANCH   2  18
TORSDOF 6
ENDMDL
