MODEL 1
REMARK VINA RESULT:      35.1      0.000      0.000
REMARK  5 active torsions:
REMARK  status: ('A' for Active; 'I' for Inactive)
REMARK    1  A    between atoms: N_8  and  C_1 
REMARK    2  A    between atoms: C_3  and  S_13 
REMARK       I    between atoms: C_12  and  N_8 
REMARK    3  A    between atoms: C_16  and  C_9 
REMARK    4  A    between atoms: C_15  and  C_12 
REMARK    5  A    between atoms: S_13  and  C_15 
ROOT
ATOM      1  C   UNL d   1      14.827  13.031  -0.016  0.00  0.00     0.100 C 
ENDROOT
BRANCH   1   2
ATOM      2  S   UNL d   1      15.535  13.444  -0.130  0.00  0.00    -0.056 SA
BRANCH   2   3
ATOM      3  C   UNL d   1      15.508  14.255  -0.244  0.00  0.00     0.141 A 
ATOM      4  N   UNL d   1      14.870  14.699  -0.530  0.00  0.00    -0.232 NA
ATOM      5  C   UNL d   1      15.085  15.493  -0.555  0.00  0.00     0.088 A 
ATOM      6  C   UNL d   1      14.685  16.181  -0.788  0.00  0.00     0.020 A 
ATOM      7  C   UNL d   1      15.872  15.551  -0.280  0.00  0.00     0.049 A 
ATOM      8  C   UNL d   1      15.061  16.914  -0.747  0.00  0.00     0.002 A 
ATOM      9  C   UNL d   1      15.833  16.965  -0.477  0.00  0.00     0.001 A 
ATOM     10  C   UNL d   1      16.245  16.277  -0.240  0.00  0.00     0.008 A 
ATOM     11  S   UNL d   1      16.129  14.785  -0.089  0.00  0.00    -0.060 SA
ENDBRANCH   2   3
ENDBRANCH   1   2
BRANCH   1  12
ATOM     12  C   UNL d   1      14.507  12.597  -0.638  0.00  0.00     0.288 C 
ATOM     13  N   UNL d   1      14.120  12.984  -1.254  0.00  0.00    -0.181 NA
ATOM     14  O   UNL d   1      14.571  11.779  -0.651  0.00  0.00    -0.265 OA
BRANCH  13  15
ATOM     15  C   UNL d   1      13.799  12.559  -1.877  0.00  0.00     0.219 A 
ATOM     16  S   UNL d   1      14.108  12.497  -2.635  0.00  0.00    -0.026 SA
ATOM     17  C   UNL d   1      13.608  12.016  -3.082  0.00  0.00     0.135 A 
ATOM     18  N   UNL d   1      12.985  11.780  -2.591  0.00  0.00    -0.139 NA
ATOM     19  N   UNL d   1      13.103  12.115  -1.848  0.00  0.00    -0.121 NA
BRANCH  17  20
ATOM     20  C   UNL d   1      13.704  11.805  -3.872  0.00  0.00     0.028 C 
ATOM     21  C   UNL d   1      13.043  11.789  -4.369  0.00  0.00     0.002 C 
ENDBRANCH  17  20
ENDBRANCH  13  15
ENDBRANCH   1  12
TORSDOF 5
ENDMDL
MODEL 2
REMARK VINA RESULT:      38.0      2.496      4.056
REMARK  5 active torsions:
REMARK  status: ('A' for Active; 'I' for Inactive)
REMARK    1  A    between atoms: N_8  and  C_1 
REMARK    2  A    between atoms: C_3  and  S_13 
REMARK       I    between atoms: C_12  and  N_8 
REMARK    3  A    between atoms: C_16  and  C_9 
REMARK    4  A    between atoms: C_15  and  C_12 
REMARK    5  A    between atoms: S_13  and  C_15 
ROOT
ATOM      1  C   UNL d   1      14.808  15.864  -0.380  0.00  0.00     0.100 C 
ENDROOT
BRANCH   1   2
ATOM      2  S   UNL d   1      15.340  15.297  -0.100  0.00  0.00    -0.056 SA
BRANCH   2   3
ATOM      3  C   UNL d   1      15.114  14.509  -0.091  0.00  0.00     0.141 A 
ATOM      4  N   UNL d   1      15.610  13.847  -0.127  0.00  0.00    -0.232 NA
ATOM      5  C   UNL d   1      15.150  13.165  -0.103  0.00  0.00     0.088 A 
ATOM      6  C   UNL d   1      15.333  12.356  -0.121  0.00  0.00     0.020 A 
ATOM      7  C   UNL d   1      14.349  13.401  -0.051  0.00  0.00     0.049 A 
ATOM      8  C   UNL d   1      14.731  11.793  -0.087  0.00  0.00     0.002 A 
ATOM      9  C   UNL d   1      13.948  12.031  -0.035  0.00  0.00     0.001 A 
ATOM     10  C   UNL d   1      13.753  12.844  -0.017  0.00  0.00     0.008 A 
ATOM     11  S   UNL d   1      14.333  14.232  -0.044  0.00  0.00    -0.060 SA
ENDBRANCH   2   3
ENDBRANCH   1   2
BRANCH   1  12
ATOM     12  C   UNL d   1      14.998  16.298  -1.054  0.00  0.00     0.288 C 
ATOM     13  N   UNL d   1      14.812  16.001  -1.801  0.00  0.00    -0.181 NA
ATOM     14  O   UNL d   1      15.371  17.026  -0.990  0.00  0.00    -0.265 OA
BRANCH  13  15
ATOM     15  C   UNL d   1      14.998  16.427  -2.476  0.00  0.00     0.219 A 
ATOM     16  S   UNL d   1      14.904  16.175  -3.252  0.00  0.00    -0.026 SA
ATOM     17  C   UNL d   1      15.160  16.778  -3.754  0.00  0.00     0.135 A 
ATOM     18  N   UNL d   1      15.414  17.406  -3.280  0.00  0.00    -0.139 NA
ATOM     19  N   UNL d   1      15.314  17.190  -2.492  0.00  0.00    -0.121 NA
BRANCH  17  20
ATOM     20  C   UNL d   1      15.166  16.763  -4.578  0.00  0.00     0.028 C 
ATOM     21  C   UNL d   1      14.907  16.082  -4.971  0.00  0.00     0.002 C 
ENDBRANCH  17  20
ENDBRANCH  13  15
ENDBRANCH   1  12
TORSDOF 5
ENDMDL
