MODEL 1
REMARK VINA RESULT:      -5.5      0.000      0.000
REMARK  1 active torsions:
REMARK  status: ('A' for Active; 'I' for Inactive)
REMARK    1  A    between atoms: C_11  and  C_9 
ROOT
ATOM      1  N   UNL d   1      57.003  -0.564  31.597  0.00  0.00    -0.253 N 
ATOM      2  C   UNL d   1      56.934   0.210  31.860  0.00  0.00     0.182 A 
ATOM      3  C   UNL d   1      56.585  -1.171  32.007  0.00  0.00     0.267 A 
ATOM      4  N   UNL d   1      57.380   0.682  31.383  0.00  0.00    -0.221 NA
ATOM      5  S   UNL d   1      56.472   0.406  32.507  0.00  0.00    -0.050 SA
ATOM      6  C   UNL d   1      56.120  -0.997  32.653  0.00  0.00     0.068 A 
ATOM      7  C   UNL d   1      57.496  -0.558  30.955  0.00  0.00     0.086 A 
ATOM      8  C   UNL d   1      57.745   0.208  30.801  0.00  0.00     0.100 A 
ATOM      9  C   UNL d   1      56.062  -0.182  32.910  0.00  0.00     0.037 A 
ATOM     10  O   UNL d   1      56.641  -1.984  31.753  0.00  0.00    -0.267 OA
ATOM     11  C   UNL d   1      57.769  -1.189  30.458  0.00  0.00     0.019 A 
ATOM     12  C   UNL d   1      58.246   0.373  30.184  0.00  0.00     0.021 A 
ATOM     13  C   UNL d   1      58.274  -1.009  29.840  0.00  0.00     0.002 A 
ATOM     14  C   UNL d   1      58.512  -0.255  29.697  0.00  0.00     0.002 A 
ENDROOT
BRANCH   9  15
ATOM     15  C   UNL d   1      55.614   0.108  33.559  0.00  0.00     0.006 A 
ATOM     16  C   UNL d   1      55.954   0.164  34.308  0.00  0.00     0.001 A 
ATOM     17  C   UNL d   1      55.510   0.454  34.960  0.00  0.00     0.000 A 
ATOM     18  C   UNL d   1      54.732   0.682  34.845  0.00  0.00     0.000 A 
ATOM     19  C   UNL d   1      54.377   0.629  34.084  0.00  0.00     0.000 A 
ATOM     20  C   UNL d   1      54.815   0.344  33.445  0.00  0.00     0.001 A 
ENDBRANCH   9  15
TORSDOF 1
ENDMDL
MODEL 2
REMARK VINA RESULT:      -5.1      0.987      4.167
REMARK  1 active torsions:
REMARK  status: ('A' for Active; 'I' for Inactive)
REMARK    1  A    between atoms: C_11  and  C_9 
ROOT
ATOM      1  N   UNL d   1      57.038  -0.545  31.606  0.00  0.00    -0.253 N 
ATOM      2  C   UNL d   1      57.330   0.217  31.520  0.00  0.00     0.182 A 
ATOM      3  C   UNL d   1      57.301  -1.143  31.072  0.00  0.00     0.267 A 
ATOM      4  N   UNL d   1      57.000   0.682  32.089  0.00  0.00    -0.221 NA
ATOM      5  S   UNL d   1      57.866   0.411  30.932  0.00  0.00    -0.050 SA
ATOM      6  C   UNL d   1      57.835  -0.971  30.480  0.00  0.00     0.068 A 
ATOM      7  C   UNL d   1      56.527  -0.539  32.233  0.00  0.00     0.086 A 
ATOM      8  C   UNL d   1      56.485   0.215  32.553  0.00  0.00     0.100 A 
ATOM      9  C   UNL d   1      58.126  -0.169  30.409  0.00  0.00     0.037 A 
ATOM     10  O   UNL d   1      57.012  -1.943  31.141  0.00  0.00    -0.267 OA
ATOM     11  C   UNL d   1      56.064  -1.160  32.578  0.00  0.00     0.019 A 
ATOM     12  C   UNL d   1      56.011   0.378  33.190  0.00  0.00     0.021 A 
ATOM     13  C   UNL d   1      55.590  -0.984  33.221  0.00  0.00     0.002 A 
ATOM     14  C   UNL d   1      55.556  -0.241  33.528  0.00  0.00     0.002 A 
ENDROOT
BRANCH   9  15
ATOM     15  C   UNL d   1      58.674   0.117  29.840  0.00  0.00     0.006 A 
ATOM     16  C   UNL d   1      59.480   0.140  30.013  0.00  0.00     0.001 A 
ATOM     17  C   UNL d   1      60.031   0.425  29.446  0.00  0.00     0.000 A 
ATOM     18  C   UNL d   1      59.761   0.682  28.717  0.00  0.00     0.000 A 
ATOM     19  C   UNL d   1      58.940   0.662  28.533  0.00  0.00     0.000 A 
ATOM     20  C   UNL d   1      58.400   0.382  29.090  0.00  0.00     0.001 A 
ENDBRANCH   9  15
TORSDOF 1
ENDMDL
MODEL 3
REMARK VINA RESULT:      -5.1      1.436      2.160
REMARK  1 active torsions:
REMARK  status: ('A' for Active; 'I' for Inactive)
REMARK    1  A    between atoms: C_11  and  C_9 
ROOT
ATOM      1  N   UNL d   1      58.534   0.276  30.679  0.00  0.00    -0.253 N 
ATOM      2  C   UNL d   1      57.777   0.041  30.468  0.00  0.00     0.182 A 
ATOM      3  C   UNL d   1      58.698   0.435  31.492  0.00  0.00     0.267 A 
ATOM      4  N   UNL d   1      57.760  -0.076  29.671  0.00  0.00    -0.221 NA
ATOM      5  S   UNL d   1      57.181  -0.043  31.022  0.00  0.00    -0.050 SA
ATOM      6  C   UNL d   1      58.118   0.358  32.059  0.00  0.00     0.068 A 
ATOM      7  C   UNL d   1      58.978   0.301  30.002  0.00  0.00     0.086 A 
ATOM      8  C   UNL d   1      58.517   0.086  29.359  0.00  0.00     0.100 A 
ATOM      9  C   UNL d   1      57.335   0.110  31.816  0.00  0.00     0.037 A 
ATOM     10  O   UNL d   1      59.478   0.682  31.736  0.00  0.00    -0.267 OA
ATOM     11  C   UNL d   1      59.791   0.505  29.879  0.00  0.00     0.019 A 
ATOM     12  C   UNL d   1      58.825   0.063  28.609  0.00  0.00     0.021 A 
ATOM     13  C   UNL d   1      60.090   0.479  29.118  0.00  0.00     0.002 A 
ATOM     14  C   UNL d   1      59.631   0.266  28.493  0.00  0.00     0.002 A 
ENDROOT
BRANCH   9  15
ATOM     15  C   UNL d   1      56.667  -0.001  32.313  0.00  0.00     0.006 A 
ATOM     16  C   UNL d   1      56.264   0.649  32.620  0.00  0.00     0.001 A 
ATOM     17  C   UNL d   1      55.595   0.541  33.118  0.00  0.00     0.000 A 
ATOM     18  C   UNL d   1      55.346  -0.218  33.298  0.00  0.00     0.000 A 
ATOM     19  C   UNL d   1      55.752  -0.887  32.988  0.00  0.00     0.000 A 
ATOM     20  C   UNL d   1      56.409  -0.779  32.499  0.00  0.00     0.001 A 
ENDBRANCH   9  15
TORSDOF 1
ENDMDL
MODEL 4
REMARK VINA RESULT:      -4.4      1.163      4.178
REMARK  1 active torsions:
REMARK  status: ('A' for Active; 'I' for Inactive)
REMARK    1  A    between atoms: C_11  and  C_9 
ROOT
ATOM      1  N   UNL d   1      56.698   0.398  33.105  0.00  0.00    -0.253 N 
ATOM      2  C   UNL d   1      56.294   0.206  32.417  0.00  0.00     0.182 A 
ATOM      3  C   UNL d   1      57.537   0.482  33.073  0.00  0.00     0.267 A 
ATOM      4  N   UNL d   1      55.508   0.158  32.589  0.00  0.00    -0.221 NA
ATOM      5  S   UNL d   1      56.682   0.095  31.705  0.00  0.00    -0.050 SA
ATOM      6  C   UNL d   1      57.942   0.376  32.374  0.00  0.00     0.068 A 
ATOM      7  C   UNL d   1      56.150   0.466  33.697  0.00  0.00     0.086 A 
ATOM      8  C   UNL d   1      55.399   0.321  33.400  0.00  0.00     0.100 A 
ATOM      9  C   UNL d   1      57.500   0.176  31.668  0.00  0.00     0.037 A 
ATOM     10  O   UNL d   1      57.980   0.682  33.775  0.00  0.00    -0.267 OA
ATOM     11  C   UNL d   1      56.241   0.653  34.519  0.00  0.00     0.019 A 
ATOM     12  C   UNL d   1      54.743   0.353  33.877  0.00  0.00     0.021 A 
ATOM     13  C   UNL d   1      55.572   0.682  34.989  0.00  0.00     0.002 A 
ATOM     14  C   UNL d   1      54.839   0.538  34.690  0.00  0.00     0.002 A 
ENDROOT
BRANCH   9  15
ATOM     15  C   UNL d   1      57.814   0.044  30.900  0.00  0.00     0.006 A 
ATOM     16  C   UNL d   1      58.025   0.682  30.422  0.00  0.00     0.001 A 
ATOM     17  C   UNL d   1      58.339   0.554  29.653  0.00  0.00     0.000 A 
ATOM     18  C   UNL d   1      58.435  -0.212  29.381  0.00  0.00     0.000 A 
ATOM     19  C   UNL d   1      58.222  -0.868  29.862  0.00  0.00     0.000 A 
ATOM     20  C   UNL d   1      57.913  -0.741  30.617  0.00  0.00     0.001 A 
ENDBRANCH   9  15
TORSDOF 1
ENDMDL
MODEL 5
REMARK VINA RESULT:      -2.9      1.458      2.341
REMARK  1 active torsions:
REMARK  status: ('A' for Active; 'I' for Inactive)
REMARK    1  A    between atoms: C_11  and  C_9 
ROOT
ATOM      1  N   UNL d   1      58.326  -0.652  30.249  0.00  0.00    -0.253 N 
ATOM      2  C   UNL d   1      57.763  -1.202  30.480  0.00  0.00     0.182 A 
ATOM      3  C   UNL d   1      58.351   0.094  30.643  0.00  0.00     0.267 A 
ATOM      4  N   UNL d   1      57.850  -1.862  30.026  0.00  0.00    -0.221 NA
ATOM      5  S   UNL d   1      57.228  -1.046  31.079  0.00  0.00    -0.050 SA
ATOM      6  C   UNL d   1      57.828   0.269  31.242  0.00  0.00     0.068 A 
ATOM      7  C   UNL d   1      58.758  -0.985  29.650  0.00  0.00     0.086 A 
ATOM      8  C   UNL d   1      58.480  -1.740  29.492  0.00  0.00     0.100 A 
ATOM      9  C   UNL d   1      57.248  -0.320  31.466  0.00  0.00     0.037 A 
ATOM     10  O   UNL d   1      58.929   0.682  30.420  0.00  0.00    -0.267 OA
ATOM     11  C   UNL d   1      59.408  -0.680  29.199  0.00  0.00     0.019 A 
ATOM     12  C   UNL d   1      58.815  -2.201  28.914  0.00  0.00     0.021 A 
ATOM     13  C   UNL d   1      59.737  -1.155  28.619  0.00  0.00     0.002 A 
ATOM     14  C   UNL d   1      59.458  -1.894  28.471  0.00  0.00     0.002 A 
ENDROOT
BRANCH   9  15
ATOM     15  C   UNL d   1      56.664  -0.246  32.066  0.00  0.00     0.006 A 
ATOM     16  C   UNL d   1      56.416   0.500  32.315  0.00  0.00     0.001 A 
ATOM     17  C   UNL d   1      55.832   0.578  32.915  0.00  0.00     0.000 A 
ATOM     18  C   UNL d   1      55.510  -0.095  33.252  0.00  0.00     0.000 A 
ATOM     19  C   UNL d   1      55.758  -0.859  33.004  0.00  0.00     0.000 A 
ATOM     20  C   UNL d   1      56.331  -0.935  32.415  0.00  0.00     0.001 A 
ENDBRANCH   9  15
TORSDOF 1
ENDMDL
