MODEL 1
REMARK VINA RESULT:      -5.3      0.000      0.000
REMARK  2 active torsions:
REMARK  status: ('A' for Active; 'I' for Inactive)
REMARK    1  A    between atoms: C_12  and  N_1 
REMARK    2  A    between atoms: N_6  and  C_13 
ROOT
ATOM      1  N   UNL d   1      56.874   0.101  32.389  0.00  0.00    -0.242 N 
ATOM      2  C   UNL d   1      57.231   0.442  33.124  0.00  0.00     0.263 A 
ATOM      3  C   UNL d   1      56.113  -0.049  32.512  0.00  0.00     0.263 A 
ATOM      4  C   UNL d   1      55.874   0.158  33.297  0.00  0.00     0.039 A 
ATOM      5  C   UNL d   1      56.471   0.442  33.690  0.00  0.00     0.039 A 
ATOM      6  C   UNL d   1      56.416   0.682  34.435  0.00  0.00     0.049 A 
ATOM      7  C   UNL d   1      55.153   0.109  33.688  0.00  0.00     0.049 A 
ATOM      8  C   UNL d   1      55.722   0.641  34.829  0.00  0.00    -0.026 A 
ATOM      9  C   UNL d   1      55.080   0.346  34.441  0.00  0.00    -0.026 A 
ATOM     10  C   UNL d   1      56.041   0.355  33.753  0.00  0.00     0.018 A 
ATOM     11  O   UNL d   1      55.596  -0.367  31.961  0.00  0.00    -0.267 OA
ATOM     12  O   UNL d   1      57.893   0.665  33.288  0.00  0.00    -0.267 OA
ENDROOT
BRANCH   1  13
ATOM     13  C   UNL d   1      57.235  -0.053  31.667  0.00  0.00     0.070 A 
ATOM     14  C   UNL d   1      57.470   0.573  31.178  0.00  0.00     0.019 A 
ATOM     15  C   UNL d   1      57.836   0.425  30.446  0.00  0.00     0.018 A 
ATOM     16  C   UNL d   1      57.969  -0.366  30.201  0.00  0.00     0.096 A 
ATOM     17  C   UNL d   1      57.732  -0.982  30.695  0.00  0.00     0.018 A 
ATOM     18  C   UNL d   1      57.365  -0.826  31.428  0.00  0.00     0.019 A 
BRANCH  16  19
ATOM     19  N   UNL d   1      58.329  -0.525  29.482  0.00  0.00     0.037 NA
ATOM     20  O   UNL d   1      57.808   0.064  29.704  0.00  0.00    -0.084 OA
ATOM     21  O   UNL d   1      58.630  -0.565  28.666  0.00  0.00    -0.084 OA
ENDBRANCH  16  19
ENDBRANCH   1  13
TORSDOF 2
ENDMDL
MODEL 2
REMARK VINA RESULT:      -5.1      0.510      1.263
REMARK  2 active torsions:
REMARK  status: ('A' for Active; 'I' for Inactive)
REMARK    1  A    between atoms: C_12  and  N_1 
REMARK    2  A    between atoms: N_6  and  C_13 
ROOT
ATOM      1  N   UNL d   1      56.500   0.143  32.775  0.00  0.00    -0.242 N 
ATOM      2  C   UNL d   1      55.641   0.055  32.974  0.00  0.00     0.263 A 
ATOM      3  C   UNL d   1      56.897   0.359  33.418  0.00  0.00     0.263 A 
ATOM      4  C   UNL d   1      56.389   0.439  34.090  0.00  0.00     0.039 A 
ATOM      5  C   UNL d   1      55.663   0.278  33.895  0.00  0.00     0.039 A 
ATOM      6  C   UNL d   1      55.068   0.307  34.406  0.00  0.00     0.049 A 
ATOM      7  C   UNL d   1      56.534   0.649  34.872  0.00  0.00     0.049 A 
ATOM      8  C   UNL d   1      55.192   0.508  35.169  0.00  0.00    -0.026 A 
ATOM      9  C   UNL d   1      55.944   0.682  35.400  0.00  0.00    -0.026 A 
ATOM     10  C   UNL d   1      55.893   0.400  34.253  0.00  0.00     0.018 A 
ATOM     11  O   UNL d   1      57.706   0.495  33.454  0.00  0.00    -0.267 OA
ATOM     12  O   UNL d   1      55.067  -0.127  32.587  0.00  0.00    -0.267 OA
ENDROOT
BRANCH   1  13
ATOM     13  C   UNL d   1      56.874   0.029  32.052  0.00  0.00     0.070 A 
ATOM     14  C   UNL d   1      57.121   0.682  31.606  0.00  0.00     0.019 A 
ATOM     15  C   UNL d   1      57.500   0.575  30.874  0.00  0.00     0.018 A 
ATOM     16  C   UNL d   1      57.632  -0.201  30.583  0.00  0.00     0.096 A 
ATOM     17  C   UNL d   1      57.382  -0.844  31.036  0.00  0.00     0.018 A 
ATOM     18  C   UNL d   1      57.003  -0.729  31.770  0.00  0.00     0.019 A 
BRANCH  16  19
ATOM     19  N   UNL d   1      58.004  -0.320  29.863  0.00  0.00     0.037 NA
ATOM     20  O   UNL d   1      57.505   0.275  30.119  0.00  0.00    -0.084 OA
ATOM     21  O   UNL d   1      58.326  -0.309  29.054  0.00  0.00    -0.084 OA
ENDBRANCH  16  19
ENDBRANCH   1  13
TORSDOF 2
ENDMDL
MODEL 3
REMARK VINA RESULT:      -4.9      1.439      4.342
REMARK  2 active torsions:
REMARK  status: ('A' for Active; 'I' for Inactive)
REMARK    1  A    between atoms: C_12  and  N_1 
REMARK    2  A    between atoms: N_6  and  C_13 
ROOT
ATOM      1  N   UNL d   1      58.058   0.089  30.775  0.00  0.00    -0.242 N 
ATOM      2  C   UNL d   1      58.080  -0.140  29.919  0.00  0.00     0.263 A 
ATOM      3  C   UNL d   1      58.751   0.395  30.982  0.00  0.00     0.263 A 
ATOM      4  C   UNL d   1      59.295   0.411  30.335  0.00  0.00     0.039 A 
ATOM      5  C   UNL d   1      58.966   0.118  29.704  0.00  0.00     0.039 A 
ATOM      6  C   UNL d   1      59.339   0.061  29.016  0.00  0.00     0.049 A 
ATOM      7  C   UNL d   1      60.072   0.672  30.271  0.00  0.00     0.049 A 
ATOM      8  C   UNL d   1      60.094   0.310  28.937  0.00  0.00    -0.026 A 
ATOM      9  C   UNL d   1      60.463   0.621  29.583  0.00  0.00    -0.026 A 
ATOM     10  C   UNL d   1      59.355   0.292  29.828  0.00  0.00     0.018 A 
ATOM     11  O   UNL d   1      58.943   0.672  31.730  0.00  0.00    -0.267 OA
ATOM     12  O   UNL d   1      57.597  -0.435  29.480  0.00  0.00    -0.267 OA
ENDROOT
BRANCH   1  13
ATOM     13  C   UNL d   1      57.438   0.016  31.310  0.00  0.00     0.070 A 
ATOM     14  C   UNL d   1      57.209  -0.734  31.579  0.00  0.00     0.019 A 
ATOM     15  C   UNL d   1      56.584  -0.816  32.120  0.00  0.00     0.018 A 
ATOM     16  C   UNL d   1      56.180  -0.134  32.396  0.00  0.00     0.096 A 
ATOM     17  C   UNL d   1      56.416   0.607  32.121  0.00  0.00     0.018 A 
ATOM     18  C   UNL d   1      57.044   0.682  31.578  0.00  0.00     0.019 A 
BRANCH  16  19
ATOM     19  N   UNL d   1      55.562  -0.203  32.929  0.00  0.00     0.037 NA
ATOM     20  O   UNL d   1      55.853  -0.727  32.373  0.00  0.00    -0.084 OA
ATOM     21  O   UNL d   1      54.886  -0.422  33.432  0.00  0.00    -0.084 OA
ENDBRANCH  16  19
ENDBRANCH   1  13
TORSDOF 2
ENDMDL
