MODEL 1
REMARK VINA RESULT:     -10.7      0.000      0.000
REMARK  5 active torsions:
REMARK  status: ('A' for Active; 'I' for Inactive)
REMARK    1  A    between atoms: C_9  and  C_2 
REMARK    2  A    between atoms: O_8  and  C_4 
REMARK    3  A    between atoms: C_14  and  O_8 
REMARK    4  A    between atoms: N_11  and  C_9 
REMARK    5  A    between atoms: O_20  and  C_18 
ROOT
ATOM      1  C   UNL d   1      53.176  33.703  53.658  0.00  0.00     0.108 A 
ATOM      2  C   UNL d   1      52.850  34.464  53.600  0.00  0.00     0.079 A 
ATOM      3  C   UNL d   1      53.558  33.466  54.359  0.00  0.00     0.064 A 
ATOM      4  C   UNL d   1      53.830  32.180  53.775  0.00  0.00     0.163 A 
ATOM      5  C   UNL d   1      53.880  32.714  54.415  0.00  0.00     0.222 A 
ATOM      6  O   UNL d   1      53.118  33.183  53.013  0.00  0.00    -0.303 OA
ATOM      7  C   UNL d   1      53.446  32.419  53.071  0.00  0.00     0.150 A 
ATOM      8  C   UNL d   1      53.605  34.002  54.992  0.00  0.00     0.009 A 
ATOM      9  C   UNL d   1      52.902  34.987  54.233  0.00  0.00     0.199 A 
ATOM     10  O   UNL d   1      54.259  32.475  55.107  0.00  0.00    -0.284 OA
ATOM     11  C   UNL d   1      53.280  34.755  54.929  0.00  0.00     0.042 A 
ATOM     12  O   UNL d   1      52.577  35.741  54.171  0.00  0.00    -0.286 OA
ENDROOT
BRANCH   4  13
ATOM     13  O   UNL d   1      54.153  31.428  53.834  0.00  0.00    -0.302 OA
BRANCH  13  14
ATOM     14  C   UNL d   1      53.689  30.766  53.675  0.00  0.00     0.102 A 
ATOM     15  C   UNL d   1      53.514  30.234  54.279  0.00  0.00     0.049 A 
ATOM     16  C   UNL d   1      53.050  29.572  54.119  0.00  0.00     0.096 A 
ATOM     17  C   UNL d   1      52.763  29.442  53.357  0.00  0.00     0.024 A 
ATOM     18  C   UNL d   1      52.944  29.985  52.750  0.00  0.00     0.004 A 
ATOM     19  C   UNL d   1      53.406  30.641  52.915  0.00  0.00     0.025 A 
BRANCH  16  20
ATOM     20  O   UNL d   1      52.875  29.040  54.723  0.00  0.00    -0.328 OA
ATOM     21  C   UNL d   1      53.449  28.508  54.979  0.00  0.00     0.181 C 
ENDBRANCH  16  20
ENDBRANCH  13  14
ENDBRANCH   4  13
BRANCH   2  22
ATOM     22  C   UNL d   1      52.476  34.693  52.910  0.00  0.00     0.086 C 
BRANCH  22  23
ATOM     23  N   UNL d   1      51.668  34.552  52.813  0.00  0.00    -0.299 N 
ATOM     24  C   UNL d   1      51.148  34.722  53.427  0.00  0.00     0.107 A 
ATOM     25  C   UNL d   1      50.339  34.579  53.327  0.00  0.00     0.142 A 
ATOM     26  O   UNL d   1      50.058  34.269  52.616  0.00  0.00    -0.300 OA
ATOM     27  C   UNL d   1      50.585  34.100  52.002  0.00  0.00     0.142 A 
ATOM     28  C   UNL d   1      51.390  34.242  52.101  0.00  0.00     0.107 A 
ENDBRANCH  22  23
ENDBRANCH   2  22
TORSDOF 5
ENDMDL
MODEL 2
REMARK VINA RESULT:      -8.7      1.196      4.461
REMARK  5 active torsions:
REMARK  status: ('A' for Active; 'I' for Inactive)
REMARK    1  A    between atoms: C_9  and  C_2 
REMARK    2  A    between atoms: O_8  and  C_4 
REMARK    3  A    between atoms: C_14  and  O_8 
REMARK    4  A    between atoms: N_11  and  C_9 
REMARK    5  A    between atoms: O_20  and  C_18 
ROOT
ATOM      1  C   UNL d   1      53.125  32.813  53.422  0.00  0.00     0.108 A 
ATOM      2  C   UNL d   1      53.595  32.161  53.630  0.00  0.00     0.079 A 
ATOM      3  C   UNL d   1      53.075  33.470  53.933  0.00  0.00     0.064 A 
ATOM      4  C   UNL d   1      52.185  34.119  53.008  0.00  0.00     0.163 A 
ATOM      5  C   UNL d   1      52.610  34.113  53.726  0.00  0.00     0.222 A 
ATOM      6  O   UNL d   1      52.709  32.804  52.704  0.00  0.00    -0.303 OA
ATOM      7  C   UNL d   1      52.237  33.459  52.495  0.00  0.00     0.150 A 
ATOM      8  C   UNL d   1      53.500  33.457  54.646  0.00  0.00     0.009 A 
ATOM      9  C   UNL d   1      54.012  32.160  54.339  0.00  0.00     0.199 A 
ATOM     10  O   UNL d   1      52.557  34.765  54.229  0.00  0.00    -0.284 OA
ATOM     11  C   UNL d   1      53.964  32.808  54.847  0.00  0.00     0.042 A 
ATOM     12  O   UNL d   1      54.477  31.511  54.541  0.00  0.00    -0.286 OA
ENDROOT
BRANCH   4  13
ATOM     13  O   UNL d   1      51.721  34.765  52.804  0.00  0.00    -0.302 OA
BRANCH  13  14
ATOM     14  C   UNL d   1      50.946  34.651  52.547  0.00  0.00     0.102 A 
ATOM     15  C   UNL d   1      50.318  34.876  53.030  0.00  0.00     0.049 A 
ATOM     16  C   UNL d   1      49.544  34.762  52.773  0.00  0.00     0.096 A 
ATOM     17  C   UNL d   1      49.398  34.425  52.034  0.00  0.00     0.024 A 
ATOM     18  C   UNL d   1      50.039  34.200  51.550  0.00  0.00     0.004 A 
ATOM     19  C   UNL d   1      50.807  34.315  51.811  0.00  0.00     0.025 A 
BRANCH  16  20
ATOM     20  O   UNL d   1      48.916  34.987  53.255  0.00  0.00    -0.328 OA
ATOM     21  C   UNL d   1      48.487  35.668  53.079  0.00  0.00     0.181 C 
ENDBRANCH  16  20
ENDBRANCH  13  14
ENDBRANCH   4  13
BRANCH   2  22
ATOM     22  C   UNL d   1      53.643  31.519  53.126  0.00  0.00     0.086 C 
BRANCH  22  23
ATOM     23  N   UNL d   1      53.255  30.815  53.318  0.00  0.00    -0.299 N 
ATOM     24  C   UNL d   1      53.655  30.232  53.737  0.00  0.00     0.107 A 
ATOM     25  C   UNL d   1      53.263  29.527  53.928  0.00  0.00     0.142 A 
ATOM     26  O   UNL d   1      52.478  29.414  53.699  0.00  0.00    -0.300 OA
ATOM     27  C   UNL d   1      52.082  30.005  53.278  0.00  0.00     0.142 A 
ATOM     28  C   UNL d   1      52.471  30.706  53.088  0.00  0.00     0.107 A 
ENDBRANCH  22  23
ENDBRANCH   2  22
TORSDOF 5
ENDMDL
MODEL 3
REMARK VINA RESULT:      -7.7      3.087      5.744
REMARK  5 active torsions:
REMARK  status: ('A' for Active; 'I' for Inactive)
REMARK    1  A    between atoms: C_9  and  C_2 
REMARK    2  A    between atoms: O_8  and  C_4 
REMARK    3  A    between atoms: C_14  and  O_8 
REMARK    4  A    between atoms: N_11  and  C_9 
REMARK    5  A    between atoms: O_20  and  C_18 
ROOT
ATOM      1  C   UNL d   1      47.968  35.694  52.241  0.00  0.00     0.108 A 
ATOM      2  C   UNL d   1      47.322  36.191  52.404  0.00  0.00     0.079 A 
ATOM      3  C   UNL d   1      47.966  35.218  51.558  0.00  0.00     0.064 A 
ATOM      4  C   UNL d   1      49.259  34.701  51.916  0.00  0.00     0.163 A 
ATOM      5  C   UNL d   1      48.604  34.728  51.400  0.00  0.00     0.222 A 
ATOM      6  O   UNL d   1      48.612  35.679  52.764  0.00  0.00    -0.303 OA
ATOM      7  C   UNL d   1      49.261  35.181  52.602  0.00  0.00     0.150 A 
ATOM      8  C   UNL d   1      47.310  35.249  51.049  0.00  0.00     0.009 A 
ATOM      9  C   UNL d   1      46.679  36.214  51.892  0.00  0.00     0.199 A 
ATOM     10  O   UNL d   1      48.605  34.254  50.724  0.00  0.00    -0.284 OA
ATOM     11  C   UNL d   1      46.673  35.743  51.214  0.00  0.00     0.042 A 
ATOM     12  O   UNL d   1      46.040  36.707  52.056  0.00  0.00    -0.286 OA
ENDROOT
BRANCH   4  13
ATOM     13  O   UNL d   1      49.897  34.210  51.754  0.00  0.00    -0.302 OA
BRANCH  13  14
ATOM     14  C   UNL d   1      50.471  34.075  52.329  0.00  0.00     0.102 A 
ATOM     15  C   UNL d   1      51.184  34.485  52.300  0.00  0.00     0.049 A 
ATOM     16  C   UNL d   1      51.758  34.351  52.876  0.00  0.00     0.096 A 
ATOM     17  C   UNL d   1      51.618  33.806  53.480  0.00  0.00     0.024 A 
ATOM     18  C   UNL d   1      50.893  33.394  53.503  0.00  0.00     0.004 A 
ATOM     19  C   UNL d   1      50.327  33.532  52.928  0.00  0.00     0.025 A 
BRANCH  16  20
ATOM     20  O   UNL d   1      52.471  34.761  52.846  0.00  0.00    -0.328 OA
ATOM     21  C   UNL d   1      52.900  34.886  53.539  0.00  0.00     0.181 C 
ENDBRANCH  16  20
ENDBRANCH  13  14
ENDBRANCH   4  13
BRANCH   2  22
ATOM     22  C   UNL d   1      47.328  36.657  53.075  0.00  0.00     0.086 C 
BRANCH  22  23
ATOM     23  N   UNL d   1      46.942  36.400  53.758  0.00  0.00    -0.299 N 
ATOM     24  C   UNL d   1      46.186  36.083  53.704  0.00  0.00     0.107 A 
ATOM     25  C   UNL d   1      45.802  35.826  54.392  0.00  0.00     0.142 A 
ATOM     26  O   UNL d   1      46.177  35.888  55.124  0.00  0.00    -0.300 OA
ATOM     27  C   UNL d   1      46.938  36.207  55.172  0.00  0.00     0.142 A 
ATOM     28  C   UNL d   1      47.321  36.463  54.489  0.00  0.00     0.107 A 
ENDBRANCH  22  23
ENDBRANCH   2  22
TORSDOF 5
ENDMDL
MODEL 4
REMARK VINA RESULT:      -7.7      1.206      2.487
REMARK  5 active torsions:
REMARK  status: ('A' for Active; 'I' for Inactive)
REMARK    1  A    between atoms: C_9  and  C_2 
REMARK    2  A    between atoms: O_8  and  C_4 
REMARK    3  A    between atoms: C_14  and  O_8 
REMARK    4  A    between atoms: N_11  and  C_9 
REMARK    5  A    between atoms: O_20  and  C_18 
ROOT
ATOM      1  C   UNL d   1      52.759  33.354  53.340  0.00  0.00     0.108 A 
ATOM      2  C   UNL d   1      52.933  34.147  53.510  0.00  0.00     0.079 A 
ATOM      3  C   UNL d   1      51.969  33.116  53.224  0.00  0.00     0.064 A 
ATOM      4  C   UNL d   1      52.410  31.766  52.998  0.00  0.00     0.163 A 
ATOM      5  C   UNL d   1      51.799  32.331  53.055  0.00  0.00     0.222 A 
ATOM      6  O   UNL d   1      53.377  32.803  53.286  0.00  0.00    -0.303 OA
ATOM      7  C   UNL d   1      53.203  32.006  53.115  0.00  0.00     0.150 A 
ATOM      8  C   UNL d   1      51.366  33.684  53.282  0.00  0.00     0.009 A 
ATOM      9  C   UNL d   1      52.327  34.701  53.565  0.00  0.00     0.199 A 
ATOM     10  O   UNL d   1      51.018  32.092  52.939  0.00  0.00    -0.284 OA
ATOM     11  C   UNL d   1      51.543  34.469  53.451  0.00  0.00     0.042 A 
ATOM     12  O   UNL d   1      52.503  35.488  53.735  0.00  0.00    -0.286 OA
ENDROOT
BRANCH   4  13
ATOM     13  O   UNL d   1      52.236  30.981  52.829  0.00  0.00    -0.302 OA
BRANCH  13  14
ATOM     14  C   UNL d   1      52.712  30.379  53.131  0.00  0.00     0.102 A 
ATOM     15  C   UNL d   1      52.503  30.007  53.834  0.00  0.00     0.049 A 
ATOM     16  C   UNL d   1      52.979  29.405  54.136  0.00  0.00     0.096 A 
ATOM     17  C   UNL d   1      53.662  29.176  53.733  0.00  0.00     0.024 A 
ATOM     18  C   UNL d   1      53.867  29.558  53.020  0.00  0.00     0.004 A 
ATOM     19  C   UNL d   1      53.390  30.155  52.726  0.00  0.00     0.025 A 
BRANCH  16  20
ATOM     20  O   UNL d   1      52.770  29.032  54.839  0.00  0.00    -0.328 OA
ATOM     21  C   UNL d   1      53.342  28.626  55.273  0.00  0.00     0.181 C 
ENDBRANCH  16  20
ENDBRANCH  13  14
ENDBRANCH   4  13
BRANCH   2  22
ATOM     22  C   UNL d   1      53.709  34.377  53.624  0.00  0.00     0.086 C 
BRANCH  22  23
ATOM     23  N   UNL d   1      54.053  34.312  54.372  0.00  0.00    -0.299 N 
ATOM     24  C   UNL d   1      53.674  34.639  55.024  0.00  0.00     0.107 A 
ATOM     25  C   UNL d   1      54.021  34.571  55.773  0.00  0.00     0.142 A 
ATOM     26  O   UNL d   1      54.742  34.179  55.862  0.00  0.00    -0.300 OA
ATOM     27  C   UNL d   1      55.118  33.853  55.202  0.00  0.00     0.142 A 
ATOM     28  C   UNL d   1      54.773  33.919  54.457  0.00  0.00     0.107 A 
ENDBRANCH  22  23
ENDBRANCH   2  22
TORSDOF 5
ENDMDL
