MODEL 1
REMARK VINA RESULT:      25.3      0.000      0.000
REMARK  2 active torsions:
REMARK  status: ('A' for Active; 'I' for Inactive)
REMARK    1  A    between atoms: C_6  and  C_1 
REMARK    2  A    between atoms: C_10  and  C_6 
ROOT
ATOM      1  C   UNL d   1     -57.354 -98.789 -44.200  0.00  0.00     0.139 A 
ATOM      2  C   UNL d   1     -58.671 -98.771 -43.962  0.00  0.00     0.064 A 
ATOM      3  C   UNL d   1     -58.098 -98.771 -44.557  0.00  0.00     0.220 A 
ATOM      4  C   UNL d   1     -58.281 -98.788 -43.236  0.00  0.00     0.106 A 
ATOM      5  O   UNL d   1     -57.471 -98.800 -43.387  0.00  0.00    -0.304 OA
ATOM      6  C   UNL d   1     -58.703 -98.792 -42.532  0.00  0.00     0.067 A 
ATOM      7  C   UNL d   1     -59.493 -98.756 -43.989  0.00  0.00     0.009 A 
ATOM      8  O   UNL d   1     -58.238 -98.756 -45.374  0.00  0.00    -0.284 OA
ATOM      9  C   UNL d   1     -59.523 -98.778 -42.555  0.00  0.00     0.198 A 
ATOM     10  C   UNL d   1     -59.921 -98.760 -43.281  0.00  0.00     0.042 A 
ATOM     11  O   UNL d   1     -59.958 -98.782 -41.842  0.00  0.00    -0.286 OA
ENDROOT
BRANCH   1  12
ATOM     12  C   UNL d   1     -56.628 -98.795 -44.590  0.00  0.00     0.028 C 
BRANCH  12  13
ATOM     13  C   UNL d   1     -56.147 -99.474 -44.553  0.00  0.00     0.002 A 
ATOM     14  C   UNL d   1     -55.329 -99.391 -44.498  0.00  0.00     0.001 A 
ATOM     15  C   UNL d   1     -54.849-100.058 -44.461  0.00  0.00     0.007 A 
ATOM     16  C   UNL d   1     -55.186-100.816 -44.481  0.00  0.00     0.035 A 
ATOM     17  C   UNL d   1     -56.008-100.899 -44.537  0.00  0.00     0.007 A 
ATOM     18 BR   UNL d   1     -54.717-101.488 -44.446  0.00  0.00    -0.049 Br
ATOM     19  C   UNL d   1     -56.488-100.224 -44.573  0.00  0.00     0.001 A 
ENDBRANCH  12  13
ENDBRANCH   1  12
TORSDOF 2
ENDMDL
