MODEL 1
REMARK VINA RESULT:      -8.0      0.000      0.000
REMARK  6 active torsions:
REMARK  status: ('A' for Active; 'I' for Inactive)
REMARK    1  A    between atoms: C_7  and  S_1 
REMARK    2  A    between atoms: N_11  and  S_1 
REMARK    3  A    between atoms: C_5  and  C_2 
REMARK    4  A    between atoms: C_6  and  C_15 
REMARK    5  A    between atoms: C_18  and  N_11 
REMARK    6  A    between atoms: C_15  and  C_18 
ROOT
ATOM      1  C   UNL d   1      51.719  33.941  52.555  0.00  0.00     0.041 C 
ENDROOT
BRANCH   1   2
ATOM      2  C   UNL d   1      50.944  34.234  52.606  0.00  0.00     0.090 A 
ATOM      3  N   UNL d   1      50.419  34.316  51.969  0.00  0.00    -0.238 NA
ATOM      4  C   UNL d   1      49.710  34.627  52.270  0.00  0.00     0.112 A 
ATOM      5  S   UNL d   1      49.796  34.736  53.086  0.00  0.00    -0.066 SA
ATOM      6  C   UNL d   1      50.565  34.491  53.294  0.00  0.00     0.056 A 
BRANCH   4   7
ATOM      7  C   UNL d   1      49.022  34.803  51.830  0.00  0.00     0.043 A 
ATOM      8  C   UNL d   1      48.894  34.440  51.101  0.00  0.00     0.101 A 
ATOM      9  N   UNL d   1      48.223  34.611  50.672  0.00  0.00    -0.242 NA
ATOM     10  C   UNL d   1      47.674  35.147  50.969  0.00  0.00     0.099 A 
ATOM     11  C   UNL d   1      47.807  35.516  51.713  0.00  0.00     0.021 A 
ATOM     12  C   UNL d   1      48.482  35.342  52.142  0.00  0.00     0.005 A 
ENDBRANCH   4   7
ENDBRANCH   1   2
BRANCH   1  13
ATOM     13  C   UNL d   1      51.904  33.191  52.839  0.00  0.00     0.114 C 
BRANCH  13  14
ATOM     14  N   UNL d   1      52.654  32.851  52.661  0.00  0.00    -0.157 NA
BRANCH  14  15
ATOM     15  S   UNL d   1      52.835  32.097  52.952  0.00  0.00     0.285 S 
ATOM     16  O   UNL d   1      52.601  31.766  52.223  0.00  0.00    -0.198 OA
ATOM     17  O   UNL d   1      53.068  32.424  53.680  0.00  0.00    -0.198 OA
BRANCH  15  18
ATOM     18  C   UNL d   1      53.013  31.341  53.234  0.00  0.00     0.105 A 
ATOM     19  C   UNL d   1      52.578  30.699  52.960  0.00  0.00     0.015 A 
ATOM     20  C   UNL d   1      52.756  29.934  53.243  0.00  0.00     0.030 A 
ATOM     21  C   UNL d   1      53.357  29.828  53.788  0.00  0.00     0.140 A 
ATOM     22  C   UNL d   1      53.785  30.473  54.057  0.00  0.00     0.030 A 
ATOM     23  F   UNL d   1      53.535  29.072  54.070  0.00  0.00    -0.204 F 
ATOM     24  C   UNL d   1      53.624  31.233  53.789  0.00  0.00     0.015 A 
ENDBRANCH  15  18
ENDBRANCH  14  15
ENDBRANCH  13  14
ENDBRANCH   1  13
TORSDOF 6
ENDMDL
MODEL 2
REMARK VINA RESULT:      -7.6      1.822      2.135
REMARK  6 active torsions:
REMARK  status: ('A' for Active; 'I' for Inactive)
REMARK    1  A    between atoms: C_7  and  S_1 
REMARK    2  A    between atoms: N_11  and  S_1 
REMARK    3  A    between atoms: C_5  and  C_2 
REMARK    4  A    between atoms: C_6  and  C_15 
REMARK    5  A    between atoms: C_18  and  N_11 
REMARK    6  A    between atoms: C_15  and  C_18 
ROOT
ATOM      1  C   UNL d   1      50.757  34.074  52.365  0.00  0.00     0.041 C 
ENDROOT
BRANCH   1   2
ATOM      2  C   UNL d   1      50.067  34.503  52.534  0.00  0.00     0.090 A 
ATOM      3  N   UNL d   1      49.445  34.642  52.003  0.00  0.00    -0.238 NA
ATOM      4  C   UNL d   1      48.873  35.092  52.402  0.00  0.00     0.112 A 
ATOM      5  S   UNL d   1      49.139  35.231  53.174  0.00  0.00    -0.066 SA
ATOM      6  C   UNL d   1      49.883  34.864  53.255  0.00  0.00     0.056 A 
BRANCH   4   7
ATOM      7  C   UNL d   1      48.148  35.363  52.086  0.00  0.00     0.043 A 
ATOM      8  C   UNL d   1      47.841  35.018  51.403  0.00  0.00     0.101 A 
ATOM      9  N   UNL d   1      47.135  35.282  51.095  0.00  0.00    -0.242 NA
ATOM     10  C   UNL d   1      46.730  35.893  51.467  0.00  0.00     0.099 A 
ATOM     11  C   UNL d   1      47.045  36.243  52.164  0.00  0.00     0.021 A 
ATOM     12  C   UNL d   1      47.754  35.976  52.472  0.00  0.00     0.005 A 
ENDBRANCH   4   7
ENDBRANCH   1   2
BRANCH   1  13
ATOM     13  C   UNL d   1      51.378  34.049  52.904  0.00  0.00     0.114 C 
BRANCH  13  14
ATOM     14  N   UNL d   1      52.088  33.643  52.704  0.00  0.00    -0.157 NA
BRANCH  14  15
ATOM     15  S   UNL d   1      52.694  33.586  53.266  0.00  0.00     0.285 S 
ATOM     16  O   UNL d   1      52.430  32.819  53.464  0.00  0.00    -0.198 OA
ATOM     17  O   UNL d   1      52.959  34.350  53.071  0.00  0.00    -0.198 OA
BRANCH  15  18
ATOM     18  C   UNL d   1      53.295  33.520  53.829  0.00  0.00     0.105 A 
ATOM     19  C   UNL d   1      53.911  32.992  53.697  0.00  0.00     0.015 A 
ATOM     20  C   UNL d   1      54.519  32.923  54.264  0.00  0.00     0.030 A 
ATOM     21  C   UNL d   1      54.501  33.379  54.943  0.00  0.00     0.140 A 
ATOM     22  C   UNL d   1      53.883  33.904  55.067  0.00  0.00     0.030 A 
ATOM     23  F   UNL d   1      55.102  33.314  55.505  0.00  0.00    -0.204 F 
ATOM     24  C   UNL d   1      53.276  33.984  54.519  0.00  0.00     0.015 A 
ENDBRANCH  15  18
ENDBRANCH  14  15
ENDBRANCH  13  14
ENDBRANCH   1  13
TORSDOF 6
ENDMDL
MODEL 3
REMARK VINA RESULT:      -7.3      2.931      5.948
REMARK  6 active torsions:
REMARK  status: ('A' for Active; 'I' for Inactive)
REMARK    1  A    between atoms: C_7  and  S_1 
REMARK    2  A    between atoms: N_11  and  S_1 
REMARK    3  A    between atoms: C_5  and  C_2 
REMARK    4  A    between atoms: C_6  and  C_15 
REMARK    5  A    between atoms: C_18  and  N_11 
REMARK    6  A    between atoms: C_15  and  C_18 
ROOT
ATOM      1  C   UNL d   1      51.227  34.112  52.312  0.00  0.00     0.041 C 
ENDROOT
BRANCH   1   2
ATOM      2  C   UNL d   1      51.876  34.179  52.824  0.00  0.00     0.090 A 
ATOM      3  N   UNL d   1      52.209  33.558  53.262  0.00  0.00    -0.238 NA
ATOM      4  C   UNL d   1      52.843  33.872  53.697  0.00  0.00     0.112 A 
ATOM      5  S   UNL d   1      52.902  34.681  53.530  0.00  0.00    -0.066 SA
ATOM      6  C   UNL d   1      52.299  34.871  52.987  0.00  0.00     0.056 A 
BRANCH   4   7
ATOM      7  C   UNL d   1      53.342  33.449  54.217  0.00  0.00     0.043 A 
ATOM      8  C   UNL d   1      53.492  32.649  54.087  0.00  0.00     0.101 A 
ATOM      9  N   UNL d   1      53.979  32.238  54.594  0.00  0.00    -0.242 NA
ATOM     10  C   UNL d   1      54.319  32.622  55.236  0.00  0.00     0.099 A 
ATOM     11  C   UNL d   1      54.163  33.439  55.367  0.00  0.00     0.021 A 
ATOM     12  C   UNL d   1      53.675  33.850  54.857  0.00  0.00     0.005 A 
ENDBRANCH   4   7
ENDBRANCH   1   2
BRANCH   1  13
ATOM     13  C   UNL d   1      50.509  34.469  52.496  0.00  0.00     0.114 C 
BRANCH  13  14
ATOM     14  N   UNL d   1      49.810  34.236  52.088  0.00  0.00    -0.157 NA
BRANCH  14  15
ATOM     15  S   UNL d   1      49.149  34.735  52.100  0.00  0.00     0.285 S 
ATOM     16  O   UNL d   1      49.029  34.586  51.287  0.00  0.00    -0.198 OA
ATOM     17  O   UNL d   1      49.265  34.884  52.910  0.00  0.00    -0.198 OA
BRANCH  15  18
ATOM     18  C   UNL d   1      48.487  35.230  52.103  0.00  0.00     0.105 A 
ATOM     19  C   UNL d   1      47.960  35.198  51.473  0.00  0.00     0.015 A 
ATOM     20  C   UNL d   1      47.292  35.697  51.474  0.00  0.00     0.030 A 
ATOM     21  C   UNL d   1      47.165  36.212  52.097  0.00  0.00     0.140 A 
ATOM     22  C   UNL d   1      47.695  36.238  52.721  0.00  0.00     0.030 A 
ATOM     23  F   UNL d   1      46.504  36.708  52.100  0.00  0.00    -0.204 F 
ATOM     24  C   UNL d   1      48.359  35.754  52.737  0.00  0.00     0.015 A 
ENDBRANCH  15  18
ENDBRANCH  14  15
ENDBRANCH  13  14
ENDBRANCH   1  13
TORSDOF 6
ENDMDL
MODEL 4
REMARK VINA RESULT:      -6.8      2.424      3.402
REMARK  6 active torsions:
REMARK  status: ('A' for Active; 'I' for Inactive)
REMARK    1  A    between atoms: C_7  and  S_1 
REMARK    2  A    between atoms: N_11  and  S_1 
REMARK    3  A    between atoms: C_5  and  C_2 
REMARK    4  A    between atoms: C_6  and  C_15 
REMARK    5  A    between atoms: C_18  and  N_11 
REMARK    6  A    between atoms: C_15  and  C_18 
ROOT
ATOM      1  C   UNL d   1      49.075  34.745  52.165  0.00  0.00     0.041 C 
ENDROOT
BRANCH   1   2
ATOM      2  C   UNL d   1      48.513  35.298  52.424  0.00  0.00     0.090 A 
ATOM      3  N   UNL d   1      48.179  35.324  53.183  0.00  0.00    -0.238 NA
ATOM      4  C   UNL d   1      47.647  35.962  53.198  0.00  0.00     0.112 A 
ATOM      5  S   UNL d   1      47.652  36.327  52.455  0.00  0.00    -0.066 SA
ATOM      6  C   UNL d   1      48.192  35.913  51.974  0.00  0.00     0.056 A 
BRANCH   4   7
ATOM      7  C   UNL d   1      47.181  36.201  53.850  0.00  0.00     0.043 A 
ATOM      8  C   UNL d   1      47.544  36.476  54.537  0.00  0.00     0.101 A 
ATOM      9  N   UNL d   1      47.090  36.709  55.172  0.00  0.00    -0.242 NA
ATOM     10  C   UNL d   1      46.270  36.669  55.125  0.00  0.00     0.099 A 
ATOM     11  C   UNL d   1      45.903  36.388  54.422  0.00  0.00     0.021 A 
ATOM     12  C   UNL d   1      46.361  36.155  53.786  0.00  0.00     0.005 A 
ENDBRANCH   4   7
ENDBRANCH   1   2
BRANCH   1  13
ATOM     13  C   UNL d   1      49.802  34.677  52.546  0.00  0.00     0.114 C 
BRANCH  13  14
ATOM     14  N   UNL d   1      50.357  34.099  52.287  0.00  0.00    -0.157 NA
BRANCH  14  15
ATOM     15  S   UNL d   1      51.088  34.039  52.671  0.00  0.00     0.285 S 
ATOM     16  O   UNL d   1      51.444  34.459  52.043  0.00  0.00    -0.198 OA
ATOM     17  O   UNL d   1      50.735  33.621  53.297  0.00  0.00    -0.198 OA
BRANCH  15  18
ATOM     18  C   UNL d   1      51.822  33.984  53.046  0.00  0.00     0.105 A 
ATOM     19  C   UNL d   1      52.195  34.672  53.297  0.00  0.00     0.015 A 
ATOM     20  C   UNL d   1      52.937  34.620  53.676  0.00  0.00     0.030 A 
ATOM     21  C   UNL d   1      53.285  33.890  53.797  0.00  0.00     0.140 A 
ATOM     22  C   UNL d   1      52.906  33.208  53.544  0.00  0.00     0.030 A 
ATOM     23  F   UNL d   1      54.019  33.835  54.173  0.00  0.00    -0.204 F 
ATOM     24  C   UNL d   1      52.176  33.241  53.169  0.00  0.00     0.015 A 
ENDBRANCH  15  18
ENDBRANCH  14  15
ENDBRANCH  13  14
ENDBRANCH   1  13
TORSDOF 6
ENDMDL
MODEL 5
REMARK VINA RESULT:      -5.4      9.926     10.877
REMARK  6 active torsions:
REMARK  status: ('A' for Active; 'I' for Inactive)
REMARK    1  A    between atoms: C_7  and  S_1 
REMARK    2  A    between atoms: N_11  and  S_1 
REMARK    3  A    between atoms: C_5  and  C_2 
REMARK    4  A    between atoms: C_6  and  C_15 
REMARK    5  A    between atoms: C_18  and  N_11 
REMARK    6  A    between atoms: C_15  and  C_18 
ROOT
ATOM      1  C   UNL d   1      45.440  27.390  57.142  0.00  0.00     0.041 C 
ENDROOT
BRANCH   1   2
ATOM      2  C   UNL d   1      45.102  26.644  57.010  0.00  0.00     0.090 A 
ATOM      3  N   UNL d   1      45.148  26.214  56.301  0.00  0.00    -0.238 NA
ATOM      4  C   UNL d   1      44.735  25.503  56.414  0.00  0.00     0.112 A 
ATOM      5  S   UNL d   1      44.435  25.493  57.187  0.00  0.00    -0.066 SA
ATOM      6  C   UNL d   1      44.665  26.204  57.556  0.00  0.00     0.056 A 
BRANCH   4   7
ATOM      7  C   UNL d   1      44.633  24.895  55.850  0.00  0.00     0.043 A 
ATOM      8  C   UNL d   1      44.421  25.083  55.076  0.00  0.00     0.101 A 
ATOM      9  N   UNL d   1      44.322  24.490  54.525  0.00  0.00    -0.242 NA
ATOM     10  C   UNL d   1      44.435  23.706  54.744  0.00  0.00     0.099 A 
ATOM     11  C   UNL d   1      44.652  23.518  55.535  0.00  0.00     0.021 A 
ATOM     12  C   UNL d   1      44.750  24.114  56.086  0.00  0.00     0.005 A 
ENDBRANCH   4   7
ENDBRANCH   1   2
BRANCH   1  13
ATOM     13  C   UNL d   1      45.103  27.914  57.680  0.00  0.00     0.114 C 
BRANCH  13  14
ATOM     14  N   UNL d   1      45.209  28.743  57.578  0.00  0.00    -0.157 NA
BRANCH  14  15
ATOM     15  S   UNL d   1      45.062  29.251  58.215  0.00  0.00     0.285 S 
ATOM     16  O   UNL d   1      45.812  29.063  58.529  0.00  0.00    -0.198 OA
ATOM     17  O   UNL d   1      44.314  29.440  57.903  0.00  0.00    -0.198 OA
BRANCH  15  18
ATOM     18  C   UNL d   1      44.924  29.756  58.854  0.00  0.00     0.105 A 
ATOM     19  C   UNL d   1      44.656  29.439  59.564  0.00  0.00     0.015 A 
ATOM     20  C   UNL d   1      44.516  29.947  60.211  0.00  0.00     0.030 A 
ATOM     21  C   UNL d   1      44.644  30.751  60.137  0.00  0.00     0.140 A 
ATOM     22  C   UNL d   1      44.912  31.060  59.426  0.00  0.00     0.030 A 
ATOM     23  F   UNL d   1      44.506  31.256  60.776  0.00  0.00    -0.204 F 
ATOM     24  C   UNL d   1      45.055  30.574  58.778  0.00  0.00     0.015 A 
ENDBRANCH  15  18
ENDBRANCH  14  15
ENDBRANCH  13  14
ENDBRANCH   1  13
TORSDOF 6
ENDMDL
