MODEL 1
REMARK VINA RESULT:      32.2      0.000      0.000
REMARK  4 active torsions:
REMARK  status: ('A' for Active; 'I' for Inactive)
REMARK    1  A    between atoms: O_2  and  P_1 
REMARK    2  A    between atoms: C_6  and  P_1 
REMARK    3  A    between atoms: C_3  and  O_2 
REMARK    4  A    between atoms: C_10  and  C_4 
ROOT
ATOM      1  C   UNL d   1     -51.022  26.005  33.580  0.00  0.00     0.103 A 
ATOM      2  C   UNL d   1     -50.587  26.699  33.698  0.00  0.00     0.023 A 
ATOM      3  C   UNL d   1     -49.782  26.696  33.703  0.00  0.00     0.002 A 
ATOM      4  C   UNL d   1     -50.609  25.299  33.466  0.00  0.00     0.025 A 
ATOM      5  C   UNL d   1     -49.371  25.986  33.588  0.00  0.00     0.000 A 
ATOM      6  C   UNL d   1     -49.803  25.295  33.471  0.00  0.00     0.002 A 
ATOM      7  C   UNL d   1     -49.410  24.572  33.353  0.00  0.00     0.000 C 
ENDROOT
BRANCH   1   8
ATOM      8  O   UNL d   1     -51.849  26.014  33.576  0.00  0.00    -0.269 OA
BRANCH   8   9
ATOM      9  P   UNL d   1     -52.261  25.311  33.506  0.00  0.00     0.370 P 
ATOM     10  O   UNL d   1     -51.568  24.921  33.311  0.00  0.00    -0.257 OA
ATOM     11  N   UNL d   1     -52.970  25.725  33.709  0.00  0.00    -0.091 N 
BRANCH   9  12
ATOM     12  C   UNL d   1     -52.694  24.610  33.440  0.00  0.00     0.077 A 
ATOM     13  C   UNL d   1     -52.283  23.895  33.411  0.00  0.00     0.007 A 
ATOM     14  C   UNL d   1     -52.718  23.189  33.344  0.00  0.00     0.000 A 
ATOM     15  C   UNL d   1     -53.545  23.200  33.307  0.00  0.00     0.000 A 
ATOM     16  C   UNL d   1     -53.932  23.917  33.337  0.00  0.00     0.000 A 
ATOM     17  C   UNL d   1     -53.521  24.621  33.402  0.00  0.00     0.007 A 
ENDBRANCH   9  12
ENDBRANCH   8   9
ENDBRANCH   1   8
BRANCH   2  18
ATOM     18  C   UNL d   1     -50.980  27.408  33.814  0.00  0.00     0.002 C 
ATOM     19  C   UNL d   1     -51.514  27.491  34.429  0.00  0.00     0.000 C 
ATOM     20  C   UNL d   1     -50.835  28.040  33.306  0.00  0.00     0.000 C 
ENDBRANCH   2  18
TORSDOF 4
ENDMDL
