MODEL 1
REMARK VINA RESULT:      33.6      0.000      0.000
REMARK  3 active torsions:
REMARK  status: ('A' for Active; 'I' for Inactive)
REMARK    1  A    between atoms: C_7  and  N_1 
REMARK    2  A    between atoms: C_10  and  C_3 
REMARK    3  A    between atoms: C_8  and  C_7 
ROOT
ATOM      1  N   UNL d   1      46.096 -17.974  43.146  0.00  0.00    -0.289 N 
ATOM      2  N   UNL d   1      46.259 -18.268  44.537  0.00  0.00    -0.217 NA
ATOM      3  C   UNL d   1      46.087 -17.734  43.937  0.00  0.00     0.149 A 
ATOM      4  C   UNL d   1      46.454 -19.305  43.559  0.00  0.00     0.044 A 
ATOM      5  C   UNL d   1      46.443 -19.052  44.357  0.00  0.00     0.139 A 
ATOM      6  C   UNL d   1      46.283 -18.771  42.958  0.00  0.00     0.068 A 
ATOM      7  S   UNL d   1      46.618 -19.602  44.955  0.00  0.00    -0.057 SA
ATOM      8  C   UNL d   1      46.639 -20.095  43.372  0.00  0.00     0.004 A 
ATOM      9  C   UNL d   1      46.291 -19.007  42.164  0.00  0.00     0.018 A 
ATOM     10  C   UNL d   1      46.647 -20.330  42.574  0.00  0.00     0.000 A 
ATOM     11  C   UNL d   1      46.475 -19.795  41.974  0.00  0.00     0.002 A 
ENDROOT
BRANCH   1  12
ATOM     12  C   UNL d   1      45.924 -17.439  42.545  0.00  0.00     0.106 C 
BRANCH  12  13
ATOM     13  C   UNL d   1      45.608 -17.705  41.830  0.00  0.00     0.118 A 
ATOM     14  O   UNL d   1      44.828 -17.882  41.693  0.00  0.00    -0.304 OA
ATOM     15  C   UNL d   1      44.756 -18.123  40.914  0.00  0.00     0.123 A 
ATOM     16  C   UNL d   1      45.506 -18.093  40.567  0.00  0.00     0.029 A 
ATOM     17  C   UNL d   1      46.039 -17.832  41.140  0.00  0.00     0.028 A 
ENDBRANCH  12  13
ENDBRANCH   1  12
BRANCH   3  18
ATOM     18  C   UNL d   1      45.902 -16.947  44.115  0.00  0.00     0.035 A 
ATOM     19  C   UNL d   1      45.282 -16.769  44.624  0.00  0.00     0.003 A 
ATOM     20  C   UNL d   1      45.112 -15.982  44.790  0.00  0.00     0.000 A 
ATOM     21  C   UNL d   1      45.547 -15.375  44.459  0.00  0.00     0.000 A 
ATOM     22  C   UNL d   1      46.178 -15.556  43.941  0.00  0.00     0.000 A 
ATOM     23  C   UNL d   1      46.351 -16.343  43.772  0.00  0.00     0.003 A 
ENDBRANCH   3  18
TORSDOF 3
ENDMDL
