MODEL 1
REMARK VINA RESULT:     136.5      0.000      0.000
REMARK  4 active torsions:
REMARK  status: ('A' for Active; 'I' for Inactive)
REMARK    1  A    between atoms: N_2  and  C_1 
REMARK    2  A    between atoms: C_16  and  N_6 
REMARK    3  A    between atoms: C_14  and  C_7 
REMARK    4  A    between atoms: N_8  and  C_12 
ROOT
ATOM      1  N   UNL d   1      61.873  46.287  49.833  0.00  0.00    -0.288 N 
ATOM      2  C   UNL d   1      61.535  46.928  50.179  0.00  0.00     0.196 A 
ATOM      3  S   UNL d   1      61.891  47.610  49.882  0.00  0.00    -0.092 SA
ATOM      4  C   UNL d   1      62.447  46.537  49.312  0.00  0.00     0.268 A 
ATOM      5  C   UNL d   1      62.463  47.355  49.337  0.00  0.00     0.093 A 
ATOM      6  O   UNL d   1      62.941  46.052  48.829  0.00  0.00    -0.266 OA
ENDROOT
BRANCH   1   7
ATOM      7  C   UNL d   1      61.626  45.517  50.025  0.00  0.00     0.139 A 
ATOM      8  C   UNL d   1      61.812  45.138  50.744  0.00  0.00     0.296 A 
ATOM      9  N   UNL d   1      61.468  44.374  50.734  0.00  0.00    -0.209 N 
ATOM     10  O   UNL d   1      62.268  45.495  51.346  0.00  0.00    -0.264 OA
ATOM     11  N   UNL d   1      61.076  44.283  50.022  0.00  0.00    -0.238 N 
ATOM     12  C   UNL d   1      61.173  44.991  49.581  0.00  0.00     0.102 A 
ATOM     13  C   UNL d   1      60.661  43.629  49.772  0.00  0.00     0.120 C 
ATOM     14  C   UNL d   1      60.862  45.129  48.829  0.00  0.00     0.022 C 
BRANCH   9  15
ATOM     15  C   UNL d   1      61.466  43.761  51.282  0.00  0.00     0.085 A 
ATOM     16  C   UNL d   1      60.941  43.747  51.897  0.00  0.00     0.019 A 
ATOM     17  C   UNL d   1      60.939  43.135  52.445  0.00  0.00     0.002 A 
ATOM     18  C   UNL d   1      61.480  42.522  52.369  0.00  0.00     0.000 A 
ATOM     19  C   UNL d   1      62.009  42.528  51.757  0.00  0.00     0.002 A 
ATOM     20  C   UNL d   1      62.023  43.141  51.195  0.00  0.00     0.019 A 
ENDBRANCH   9  15
ENDBRANCH   1   7
BRANCH   2  21
ATOM     21  C   UNL d   1      61.143  47.540  50.573  0.00  0.00    -0.001 A 
ATOM     22  C   UNL d   1      60.313  47.529  50.640  0.00  0.00    -0.001 A 
ATOM     23  C   UNL d   1      59.919  48.148  51.039  0.00  0.00     0.023 A 
ATOM     24  C   UNL d   1      60.352  48.765  51.364  0.00  0.00     0.127 A 
ATOM     25  C   UNL d   1      61.179  48.774  51.297  0.00  0.00     0.023 A 
ATOM     26  C   UNL d   1      61.573  48.155  50.898  0.00  0.00    -0.001 A 
BRANCH  24  27
ATOM     27  N   UNL d   1      59.953  49.361  51.750  0.00  0.00    -0.114 N 
ATOM     28  O   UNL d   1      59.253  49.703  51.474  0.00  0.00    -0.532 OA
ATOM     29  O   UNL d   1      60.182  49.707  52.460  0.00  0.00    -0.532 OA
ENDBRANCH  24  27
ENDBRANCH   2  21
TORSDOF 4
ENDMDL
MODEL 2
REMARK VINA RESULT:     136.6      1.774      4.835
REMARK  4 active torsions:
REMARK  status: ('A' for Active; 'I' for Inactive)
REMARK    1  A    between atoms: N_2  and  C_1 
REMARK    2  A    between atoms: C_16  and  N_6 
REMARK    3  A    between atoms: C_14  and  C_7 
REMARK    4  A    between atoms: N_8  and  C_12 
ROOT
ATOM      1  N   UNL d   1      61.778  47.553  50.075  0.00  0.00    -0.288 N 
ATOM      2  C   UNL d   1      61.591  46.783  49.941  0.00  0.00     0.196 A 
ATOM      3  S   UNL d   1      62.251  46.399  49.630  0.00  0.00    -0.092 SA
ATOM      4  C   UNL d   1      62.552  47.681  49.855  0.00  0.00     0.268 A 
ATOM      5  C   UNL d   1      62.850  46.971  49.579  0.00  0.00     0.093 A 
ATOM      6  O   UNL d   1      62.979  48.408  49.900  0.00  0.00    -0.266 OA
ENDROOT
BRANCH   1   7
ATOM      7  C   UNL d   1      61.218  48.080  50.390  0.00  0.00     0.139 A 
ATOM      8  C   UNL d   1      60.433  48.138  50.116  0.00  0.00     0.296 A 
ATOM      9  N   UNL d   1      60.041  48.727  50.567  0.00  0.00    -0.209 N 
ATOM     10  O   UNL d   1      60.128  47.670  49.494  0.00  0.00    -0.264 OA
ATOM     11  N   UNL d   1      60.575  49.026  51.109  0.00  0.00    -0.238 N 
ATOM     12  C   UNL d   1      61.306  48.626  51.001  0.00  0.00     0.102 A 
ATOM     13  C   UNL d   1      60.437  49.608  51.661  0.00  0.00     0.120 C 
ATOM     14  C   UNL d   1      61.992  48.764  51.438  0.00  0.00     0.022 C 
BRANCH   9  15
ATOM     15  C   UNL d   1      59.273  49.019  50.546  0.00  0.00     0.085 A 
ATOM     16  C   UNL d   1      58.934  49.263  49.854  0.00  0.00     0.019 A 
ATOM     17  C   UNL d   1      58.166  49.555  49.833  0.00  0.00     0.002 A 
ATOM     18  C   UNL d   1      57.731  49.602  50.528  0.00  0.00     0.000 A 
ATOM     19  C   UNL d   1      58.063  49.360  51.225  0.00  0.00     0.002 A 
ATOM     20  C   UNL d   1      58.839  49.062  51.261  0.00  0.00     0.019 A 
ENDBRANCH   9  15
ENDBRANCH   1   7
BRANCH   2  21
ATOM     21  C   UNL d   1      61.330  46.007  49.830  0.00  0.00    -0.001 A 
ATOM     22  C   UNL d   1      61.424  45.637  49.090  0.00  0.00    -0.001 A 
ATOM     23  C   UNL d   1      61.159  44.852  48.980  0.00  0.00     0.023 A 
ATOM     24  C   UNL d   1      60.807  44.449  49.602  0.00  0.00     0.127 A 
ATOM     25  C   UNL d   1      60.714  44.819  50.338  0.00  0.00     0.023 A 
ATOM     26  C   UNL d   1      60.979  45.603  50.449  0.00  0.00    -0.001 A 
BRANCH  24  27
ATOM     27  N   UNL d   1      60.554  43.684  49.479  0.00  0.00    -0.114 N 
ATOM     28  O   UNL d   1      60.702  43.060  49.999  0.00  0.00    -0.532 OA
ATOM     29  O   UNL d   1      60.120  43.424  48.830  0.00  0.00    -0.532 OA
ENDBRANCH  24  27
ENDBRANCH   2  21
TORSDOF 4
ENDMDL
