MODEL 1
REMARK VINA RESULT:      -3.6      0.000      0.000
REMARK  1 active torsions:
REMARK  status: ('A' for Active; 'I' for Inactive)
REMARK    1  A    between atoms: C_13  and  N_5 
ROOT
ATOM      1  C   UNL d   1      58.406  -0.962  29.775  0.00  0.00     0.170 A 
ATOM      2  C   UNL d   1      58.154  -0.220  29.922  0.00  0.00     0.093 A 
ATOM      3  C   UNL d   1      57.665  -0.069  30.535  0.00  0.00     0.172 A 
ATOM      4  N   UNL d   1      57.427  -0.671  31.002  0.00  0.00    -0.190 N 
ATOM      5  N   UNL d   1      58.900  -1.109  29.155  0.00  0.00    -0.212 N 
ATOM      6  N   UNL d   1      58.165  -1.566  30.246  0.00  0.00    -0.205 NA
ATOM      7  N   UNL d   1      57.415   0.679  30.680  0.00  0.00    -0.206 NA
ATOM      8  N   UNL d   1      59.134  -0.496  28.690  0.00  0.00    -0.162 NA
ATOM      9  N   UNL d   1      56.939  -0.525  31.615  0.00  0.00    -0.143 NA
ATOM     10  C   UNL d   1      57.678  -1.414  30.855  0.00  0.00     0.203 A 
ATOM     11  C   UNL d   1      58.882   0.243  28.839  0.00  0.00     0.127 A 
ATOM     12  C   UNL d   1      56.692   0.215  31.758  0.00  0.00     0.184 A 
ATOM     13  C   UNL d   1      56.179   0.584  32.347  0.00  0.00     0.044 C 
ENDROOT
BRANCH   5  14
ATOM     14  C   UNL d   1      59.155  -1.874  29.007  0.00  0.00     0.085 A 
ATOM     15  C   UNL d   1      59.904  -2.098  29.222  0.00  0.00     0.019 A 
ATOM     16  C   UNL d   1      60.164  -2.874  29.072  0.00  0.00     0.002 A 
ATOM     17  C   UNL d   1      60.958  -3.125  29.295  0.00  0.00     0.000 C 
ATOM     18  C   UNL d   1      59.655  -3.418  28.703  0.00  0.00     0.000 A 
ATOM     19  C   UNL d   1      58.891  -3.173  28.489  0.00  0.00     0.002 A 
ATOM     20  C   UNL d   1      59.910  -4.219  28.543  0.00  0.00     0.000 C 
ATOM     21  C   UNL d   1      58.643  -2.407  28.640  0.00  0.00     0.019 A 
ENDBRANCH   5  14
TORSDOF 1
ENDMDL
MODEL 2
REMARK VINA RESULT:      -2.3      0.954      4.212
REMARK  1 active torsions:
REMARK  status: ('A' for Active; 'I' for Inactive)
REMARK    1  A    between atoms: C_13  and  N_5 
ROOT
ATOM      1  C   UNL d   1      58.235  -0.610  30.488  0.00  0.00     0.170 A 
ATOM      2  C   UNL d   1      58.834  -0.751  29.979  0.00  0.00     0.093 A 
ATOM      3  C   UNL d   1      58.909  -1.463  29.626  0.00  0.00     0.172 A 
ATOM      4  N   UNL d   1      58.377  -2.037  29.785  0.00  0.00    -0.190 N 
ATOM      5  N   UNL d   1      58.163   0.110  30.842  0.00  0.00    -0.212 N 
ATOM      6  N   UNL d   1      57.702  -1.188  30.647  0.00  0.00    -0.205 NA
ATOM      7  N   UNL d   1      59.512  -1.600  29.116  0.00  0.00    -0.206 NA
ATOM      8  N   UNL d   1      58.704   0.682  30.675  0.00  0.00    -0.162 NA
ATOM      9  N   UNL d   1      58.449  -2.749  29.435  0.00  0.00    -0.143 NA
ATOM     10  C   UNL d   1      57.778  -1.897  30.294  0.00  0.00     0.203 A 
ATOM     11  C   UNL d   1      59.299   0.539  30.168  0.00  0.00     0.127 A 
ATOM     12  C   UNL d   1      59.046  -2.885  28.930  0.00  0.00     0.184 A 
ATOM     13  C   UNL d   1      59.303  -3.559  28.455  0.00  0.00     0.044 C 
ENDROOT
BRANCH   5  14
ATOM     14  C   UNL d   1      57.547   0.250  31.363  0.00  0.00     0.085 A 
ATOM     15  C   UNL d   1      57.689   0.270  32.161  0.00  0.00     0.019 A 
ATOM     16  C   UNL d   1      57.064   0.413  32.691  0.00  0.00     0.002 A 
ATOM     17  C   UNL d   1      57.202   0.437  33.542  0.00  0.00     0.000 C 
ATOM     18  C   UNL d   1      56.293   0.534  32.401  0.00  0.00     0.000 A 
ATOM     19  C   UNL d   1      56.165   0.511  31.581  0.00  0.00     0.002 A 
ATOM     20  C   UNL d   1      55.642   0.681  32.935  0.00  0.00     0.000 C 
ATOM     21  C   UNL d   1      56.786   0.370  31.066  0.00  0.00     0.019 A 
ENDBRANCH   5  14
TORSDOF 1
ENDMDL
MODEL 3
REMARK VINA RESULT:      -2.2      8.536      9.257
REMARK  1 active torsions:
REMARK  status: ('A' for Active; 'I' for Inactive)
REMARK    1  A    between atoms: C_13  and  N_5 
ROOT
ATOM      1  C   UNL d   1      59.504  -9.448  32.605  0.00  0.00     0.170 A 
ATOM      2  C   UNL d   1      59.621  -9.612  31.833  0.00  0.00     0.093 A 
ATOM      3  C   UNL d   1      59.005  -9.651  31.327  0.00  0.00     0.172 A 
ATOM      4  N   UNL d   1      58.265  -9.525  31.600  0.00  0.00    -0.190 N 
ATOM      5  N   UNL d   1      60.129  -9.409  33.112  0.00  0.00    -0.212 N 
ATOM      6  N   UNL d   1      58.760  -9.321  32.877  0.00  0.00    -0.205 NA
ATOM      7  N   UNL d   1      59.127  -9.817  30.552  0.00  0.00    -0.206 NA
ATOM      8  N   UNL d   1      60.871  -9.537  32.826  0.00  0.00    -0.162 NA
ATOM      9  N   UNL d   1      57.648  -9.564  31.098  0.00  0.00    -0.143 NA
ATOM     10  C   UNL d   1      58.148  -9.361  32.372  0.00  0.00     0.203 A 
ATOM     11  C   UNL d   1      60.984  -9.700  32.057  0.00  0.00     0.127 A 
ATOM     12  C   UNL d   1      57.769  -9.727  30.332  0.00  0.00     0.184 A 
ATOM     13  C   UNL d   1      57.261  -9.815  29.638  0.00  0.00     0.044 C 
ENDROOT
BRANCH   5  14
ATOM     14  C   UNL d   1      60.004  -9.240  33.904  0.00  0.00     0.085 A 
ATOM     15  C   UNL d   1      60.321  -8.568  34.229  0.00  0.00     0.019 A 
ATOM     16  C   UNL d   1      60.194  -8.397  35.033  0.00  0.00     0.002 A 
ATOM     17  C   UNL d   1      60.525  -7.685  35.391  0.00  0.00     0.000 C 
ATOM     18  C   UNL d   1      59.743  -8.914  35.502  0.00  0.00     0.000 A 
ATOM     19  C   UNL d   1      59.426  -9.598  35.154  0.00  0.00     0.002 A 
ATOM     20  C   UNL d   1      59.606  -8.749  36.330  0.00  0.00     0.000 C 
ATOM     21  C   UNL d   1      59.555  -9.760  34.361  0.00  0.00     0.019 A 
ENDBRANCH   5  14
TORSDOF 1
ENDMDL
MODEL 4
REMARK VINA RESULT:      -2.1      1.948      3.219
REMARK  1 active torsions:
REMARK  status: ('A' for Active; 'I' for Inactive)
REMARK    1  A    between atoms: C_13  and  N_5 
ROOT
ATOM      1  C   UNL d   1      57.386   0.287  32.226  0.00  0.00     0.170 A 
ATOM      2  C   UNL d   1      57.294   0.483  32.995  0.00  0.00     0.093 A 
ATOM      3  C   UNL d   1      56.570   0.484  33.331  0.00  0.00     0.172 A 
ATOM      4  N   UNL d   1      55.934   0.287  32.891  0.00  0.00    -0.190 N 
ATOM      5  N   UNL d   1      58.119   0.286  31.891  0.00  0.00    -0.212 N 
ATOM      6  N   UNL d   1      56.745   0.088  31.786  0.00  0.00    -0.205 NA
ATOM      7  N   UNL d   1      56.483   0.682  34.103  0.00  0.00    -0.206 NA
ATOM      8  N   UNL d   1      58.754   0.487  32.343  0.00  0.00    -0.162 NA
ATOM      9  N   UNL d   1      55.210   0.287  33.223  0.00  0.00    -0.143 NA
ATOM     10  C   UNL d   1      56.025   0.090  32.123  0.00  0.00     0.203 A 
ATOM     11  C   UNL d   1      58.659   0.682  33.107  0.00  0.00     0.127 A 
ATOM     12  C   UNL d   1      55.123   0.482  33.987  0.00  0.00     0.184 A 
ATOM     13  C   UNL d   1      54.454   0.546  34.529  0.00  0.00     0.044 C 
ENDROOT
BRANCH   5  14
ATOM     14  C   UNL d   1      58.208   0.084  31.102  0.00  0.00     0.085 A 
ATOM     15  C   UNL d   1      58.159  -0.693  30.876  0.00  0.00     0.019 A 
ATOM     16  C   UNL d   1      58.250  -0.898  30.075  0.00  0.00     0.002 A 
ATOM     17  C   UNL d   1      58.200  -1.721  29.821  0.00  0.00     0.000 C 
ATOM     18  C   UNL d   1      58.390  -0.307  29.507  0.00  0.00     0.000 A 
ATOM     19  C   UNL d   1      58.438   0.484  29.756  0.00  0.00     0.002 A 
ATOM     20  C   UNL d   1      58.485  -0.505  28.681  0.00  0.00     0.000 C 
ATOM     21  C   UNL d   1      58.348   0.679  30.546  0.00  0.00     0.019 A 
ENDBRANCH   5  14
TORSDOF 1
ENDMDL
