MODEL 1
REMARK VINA RESULT:      -3.5      0.000      0.000
REMARK  0 active torsions:
REMARK  status: ('A' for Active; 'I' for Inactive)
ROOT
ATOM      1  N   UNL d   1      55.153  -0.420  33.330  0.00  0.00    -0.219 NA
ATOM      2  C   UNL d   1      55.135   0.328  33.691  0.00  0.00     0.215 A 
ATOM      3  S   UNL d   1      55.878   0.682  33.581  0.00  0.00    -0.045 SA
ATOM      4  C   UNL d   1      55.903  -0.527  32.998  0.00  0.00     0.090 A 
ATOM      5  C   UNL d   1      56.349   0.150  33.152  0.00  0.00     0.058 A 
ATOM      6  N   UNL d   1      54.499   0.667  34.090  0.00  0.00    -0.120 N 
ATOM      7  C   UNL d   1      56.152  -1.193  32.589  0.00  0.00     0.021 C 
ENDROOT
TORSDOF 0
ENDMDL
MODEL 2
REMARK VINA RESULT:      -3.4      0.833      1.785
REMARK  0 active torsions:
REMARK  status: ('A' for Active; 'I' for Inactive)
ROOT
ATOM      1  N   UNL d   1      55.284  -0.483  33.222  0.00  0.00    -0.219 NA
ATOM      2  C   UNL d   1      55.988  -0.654  32.817  0.00  0.00     0.215 A 
ATOM      3  S   UNL d   1      56.470   0.021  32.847  0.00  0.00    -0.045 SA
ATOM      4  C   UNL d   1      55.330   0.295  33.501  0.00  0.00     0.090 A 
ATOM      5  C   UNL d   1      56.060   0.605  33.271  0.00  0.00     0.058 A 
ATOM      6  N   UNL d   1      56.183  -1.364  32.448  0.00  0.00    -0.120 N 
ATOM      7  C   UNL d   1      54.749   0.682  33.931  0.00  0.00     0.021 C 
ENDROOT
TORSDOF 0
ENDMDL
MODEL 3
REMARK VINA RESULT:      -3.4      1.577      1.972
REMARK  0 active torsions:
REMARK  status: ('A' for Active; 'I' for Inactive)
ROOT
ATOM      1  N   UNL d   1      56.651  -1.154  31.923  0.00  0.00    -0.219 NA
ATOM      2  C   UNL d   1      56.180  -1.057  32.600  0.00  0.00     0.215 A 
ATOM      3  S   UNL d   1      56.180  -0.250  32.797  0.00  0.00    -0.045 SA
ATOM      4  C   UNL d   1      56.940  -0.411  31.703  0.00  0.00     0.090 A 
ATOM      5  C   UNL d   1      56.651   0.145  32.240  0.00  0.00     0.058 A 
ATOM      6  N   UNL d   1      55.780  -1.649  33.011  0.00  0.00    -0.120 N 
ATOM      7  C   UNL d   1      57.429  -0.262  31.061  0.00  0.00     0.021 C 
ENDROOT
TORSDOF 0
ENDMDL
MODEL 4
REMARK VINA RESULT:      -3.3      1.867      2.318
REMARK  0 active torsions:
REMARK  status: ('A' for Active; 'I' for Inactive)
ROOT
ATOM      1  N   UNL d   1      56.720  -0.974  31.829  0.00  0.00    -0.219 NA
ATOM      2  C   UNL d   1      57.062  -0.260  31.581  0.00  0.00     0.215 A 
ATOM      3  S   UNL d   1      56.843   0.330  32.123  0.00  0.00    -0.045 SA
ATOM      4  C   UNL d   1      56.292  -0.827  32.521  0.00  0.00     0.090 A 
ATOM      5  C   UNL d   1      56.367  -0.025  32.702  0.00  0.00     0.058 A 
ATOM      6  N   UNL d   1      57.536  -0.145  30.917  0.00  0.00    -0.120 N 
ATOM      7  C   UNL d   1      55.868  -1.386  32.947  0.00  0.00     0.021 C 
ENDROOT
TORSDOF 0
ENDMDL
MODEL 5
REMARK VINA RESULT:      -2.7      8.387      8.604
REMARK  0 active torsions:
REMARK  status: ('A' for Active; 'I' for Inactive)
ROOT
ATOM      1  N   UNL d   1      59.899  -6.167  35.933  0.00  0.00    -0.219 NA
ATOM      2  C   UNL d   1      60.693  -6.109  36.169  0.00  0.00     0.215 A 
ATOM      3  S   UNL d   1      60.973  -6.877  36.311  0.00  0.00    -0.045 SA
ATOM      4  C   UNL d   1      59.689  -6.967  35.931  0.00  0.00     0.090 A 
ATOM      5  C   UNL d   1      60.349  -7.404  36.163  0.00  0.00     0.058 A 
ATOM      6  N   UNL d   1      61.133  -5.417  36.249  0.00  0.00    -0.120 N 
ATOM      7  C   UNL d   1      58.952  -7.265  35.730  0.00  0.00     0.021 C 
ENDROOT
TORSDOF 0
ENDMDL
MODEL 6
REMARK VINA RESULT:      -2.6      8.805      9.406
REMARK  0 active torsions:
REMARK  status: ('A' for Active; 'I' for Inactive)
ROOT
ATOM      1  N   UNL d   1      59.987  -7.641  35.193  0.00  0.00    -0.219 NA
ATOM      2  C   UNL d   1      59.854  -8.460  35.176  0.00  0.00     0.215 A 
ATOM      3  S   UNL d   1      59.472  -8.670  35.883  0.00  0.00    -0.045 SA
ATOM      4  C   UNL d   1      59.688  -7.346  35.905  0.00  0.00     0.090 A 
ATOM      5  C   UNL d   1      59.371  -7.979  36.330  0.00  0.00     0.058 A 
ATOM      6  N   UNL d   1      60.061  -8.981  34.572  0.00  0.00    -0.120 N 
ATOM      7  C   UNL d   1      59.708  -6.561  36.141  0.00  0.00     0.021 C 
ENDROOT
TORSDOF 0
ENDMDL
MODEL 7
REMARK VINA RESULT:      -2.3      9.063      9.548
REMARK  0 active torsions:
REMARK  status: ('A' for Active; 'I' for Inactive)
ROOT
ATOM      1  N   UNL d   1      59.999  -7.874  35.224  0.00  0.00    -0.219 NA
ATOM      2  C   UNL d   1      59.591  -7.759  35.938  0.00  0.00     0.215 A 
ATOM      3  S   UNL d   1      59.370  -8.505  36.228  0.00  0.00    -0.045 SA
ATOM      4  C   UNL d   1      60.030  -8.686  35.073  0.00  0.00     0.090 A 
ATOM      5  C   UNL d   1      59.644  -9.075  35.690  0.00  0.00     0.058 A 
ATOM      6  N   UNL d   1      59.428  -7.038  36.302  0.00  0.00    -0.120 N 
ATOM      7  C   UNL d   1      60.385  -9.036  34.422  0.00  0.00     0.021 C 
ENDROOT
TORSDOF 0
ENDMDL
MODEL 8
REMARK VINA RESULT:      -2.2      3.196      3.654
REMARK  0 active torsions:
REMARK  status: ('A' for Active; 'I' for Inactive)
ROOT
ATOM      1  N   UNL d   1      57.486  -0.377  30.698  0.00  0.00    -0.219 NA
ATOM      2  C   UNL d   1      58.101   0.052  30.343  0.00  0.00     0.215 A 
ATOM      3  S   UNL d   1      58.297   0.682  30.847  0.00  0.00    -0.045 SA
ATOM      4  C   UNL d   1      57.302  -0.015  31.418  0.00  0.00     0.090 A 
ATOM      5  C   UNL d   1      57.801   0.636  31.511  0.00  0.00     0.058 A 
ATOM      6  N   UNL d   1      58.461  -0.109  29.619  0.00  0.00    -0.120 N 
ATOM      7  C   UNL d   1      56.724  -0.265  31.943  0.00  0.00     0.021 C 
ENDROOT
TORSDOF 0
ENDMDL
MODEL 9
REMARK VINA RESULT:      -1.6      5.862      6.557
REMARK  0 active torsions:
REMARK  status: ('A' for Active; 'I' for Inactive)
ROOT
ATOM      1  N   UNL d   1      58.490  -2.963  29.020  0.00  0.00    -0.219 NA
ATOM      2  C   UNL d   1      58.958  -3.555  28.675  0.00  0.00     0.215 A 
ATOM      3  S   UNL d   1      59.727  -3.252  28.586  0.00  0.00    -0.045 SA
ATOM      4  C   UNL d   1      58.966  -2.298  29.144  0.00  0.00     0.090 A 
ATOM      5  C   UNL d   1      59.726  -2.475  28.877  0.00  0.00     0.058 A 
ATOM      6  N   UNL d   1      58.715  -4.311  28.455  0.00  0.00    -0.120 N 
ATOM      7  C   UNL d   1      58.718  -1.590  29.475  0.00  0.00     0.021 C 
ENDROOT
TORSDOF 0
ENDMDL
