MODEL 1
REMARK VINA RESULT:      96.3      0.000      0.000
REMARK  3 active torsions:
REMARK  status: ('A' for Active; 'I' for Inactive)
REMARK    1  A    between atoms: C_9  and  C_1 
REMARK       I    between atoms: C_4  and  N_8 
REMARK    2  A    between atoms: C_5  and  C_4 
REMARK    3  A    between atoms: N_8  and  C_17 
ROOT
ATOM      1  C   UNL d   1      61.921  44.896  50.201  0.00  0.00     0.036 A 
ATOM      2  C   UNL d   1      62.217  45.377  49.616  0.00  0.00     0.005 A 
ATOM      3  C   UNL d   1      61.367  45.166  50.730  0.00  0.00     0.005 A 
ATOM      4  C   UNL d   1      61.389  46.433  50.089  0.00  0.00     0.085 A 
ATOM      5  C   UNL d   1      61.942  46.162  49.562  0.00  0.00     0.019 A 
ATOM      6  C   UNL d   1      61.084  45.928  50.697  0.00  0.00     0.019 A 
ENDROOT
BRANCH   1   7
ATOM      7  C   UNL d   1      62.195  44.111  50.255  0.00  0.00     0.162 A 
ATOM      8  N   UNL d   1      62.401  43.568  49.655  0.00  0.00    -0.225 NA
ATOM      9  C   UNL d   1      62.631  42.887  50.027  0.00  0.00     0.101 A 
ATOM     10  C   UNL d   1      62.897  42.149  49.741  0.00  0.00     0.021 A 
ATOM     11  C   UNL d   1      62.567  43.012  50.843  0.00  0.00     0.101 A 
ATOM     12  C   UNL d   1      63.095  41.547  50.269  0.00  0.00     0.002 A 
ATOM     13  C   UNL d   1      63.031  41.672  51.085  0.00  0.00     0.002 A 
ATOM     14  C   UNL d   1      62.769  42.399  51.374  0.00  0.00     0.021 A 
ATOM     15  N   UNL d   1      62.298  43.768  50.964  0.00  0.00    -0.225 NA
ENDBRANCH   1   7
BRANCH   4  16
ATOM     16  N   UNL d   1      61.114  47.217  50.036  0.00  0.00    -0.206 NA
ATOM     17  C   UNL d   1      61.128  47.722  50.695  0.00  0.00     0.302 C 
ATOM     18  O   UNL d   1      61.414  47.442  51.400  0.00  0.00    -0.263 OA
BRANCH  17  19
ATOM     19  C   UNL d   1      60.863  48.491  50.658  0.00  0.00     0.158 A 
ATOM     20  O   UNL d   1      60.800  48.961  49.995  0.00  0.00    -0.300 OA
ATOM     21  C   UNL d   1      60.500  49.707  50.235  0.00  0.00     0.123 A 
ATOM     22  C   UNL d   1      60.384  49.695  51.013  0.00  0.00     0.029 A 
ATOM     23  C   UNL d   1      60.595  48.967  51.301  0.00  0.00     0.032 A 
ENDBRANCH  17  19
ENDBRANCH   4  16
TORSDOF 3
ENDMDL
MODEL 2
REMARK VINA RESULT:      96.7      1.468      5.479
REMARK  3 active torsions:
REMARK  status: ('A' for Active; 'I' for Inactive)
REMARK    1  A    between atoms: C_9  and  C_1 
REMARK       I    between atoms: C_4  and  N_8 
REMARK    2  A    between atoms: C_5  and  C_4 
REMARK    3  A    between atoms: N_8  and  C_17 
ROOT
ATOM      1  C   UNL d   1      61.424  46.333  50.336  0.00  0.00     0.036 A 
ATOM      2  C   UNL d   1      61.051  45.739  50.748  0.00  0.00     0.005 A 
ATOM      3  C   UNL d   1      62.015  46.169  49.803  0.00  0.00     0.005 A 
ATOM      4  C   UNL d   1      61.872  44.784  50.084  0.00  0.00     0.085 A 
ATOM      5  C   UNL d   1      61.282  44.949  50.617  0.00  0.00     0.019 A 
ATOM      6  C   UNL d   1      62.258  45.406  49.658  0.00  0.00     0.019 A 
ENDROOT
BRANCH   1   7
ATOM      7  C   UNL d   1      61.193  47.122  50.466  0.00  0.00     0.162 A 
ATOM      8  N   UNL d   1      60.903  47.696  49.932  0.00  0.00    -0.225 NA
ATOM      9  C   UNL d   1      60.769  48.367  50.365  0.00  0.00     0.101 A 
ATOM     10  C   UNL d   1      60.483  49.123  50.158  0.00  0.00     0.021 A 
ATOM     11  C   UNL d   1      60.973  48.206  51.151  0.00  0.00     0.101 A 
ATOM     12  C   UNL d   1      60.404  49.708  50.733  0.00  0.00     0.002 A 
ATOM     13  C   UNL d   1      60.609  49.547  51.520  0.00  0.00     0.002 A 
ATOM     14  C   UNL d   1      60.892  48.802  51.731  0.00  0.00     0.021 A 
ATOM     15  N   UNL d   1      61.232  47.438  51.194  0.00  0.00    -0.225 NA
ENDBRANCH   1   7
BRANCH   4  16
ATOM     16  N   UNL d   1      62.104  43.996  49.953  0.00  0.00    -0.206 NA
ATOM     17  C   UNL d   1      62.445  43.542  50.559  0.00  0.00     0.302 C 
ATOM     18  O   UNL d   1      62.552  43.878  51.290  0.00  0.00    -0.263 OA
BRANCH  17  19
ATOM     19  C   UNL d   1      62.677  42.770  50.446  0.00  0.00     0.158 A 
ATOM     20  O   UNL d   1      62.660  42.346  49.750  0.00  0.00    -0.300 OA
ATOM     21  C   UNL d   1      62.953  41.576  49.910  0.00  0.00     0.123 A 
ATOM     22  C   UNL d   1      63.142  41.530  50.672  0.00  0.00     0.029 A 
ATOM     23  C   UNL d   1      62.985  42.242  51.027  0.00  0.00     0.032 A 
ENDBRANCH  17  19
ENDBRANCH   4  16
TORSDOF 3
ENDMDL
