MODEL 1
REMARK VINA RESULT:       6.9      0.000      0.000
REMARK  7 active torsions:
REMARK  status: ('A' for Active; 'I' for Inactive)
REMARK    1  A    between atoms: C_4  and  C_1 
REMARK    2  A    between atoms: N_5  and  C_2 
REMARK    3  A    between atoms: C_15  and  C_4 
REMARK    4  A    between atoms: C_9  and  C_13 
REMARK    5  A    between atoms: O_21  and  C_9 
REMARK    6  A    between atoms: C_25  and  C_20 
REMARK    7  A    between atoms: C_26  and  O_21 
ROOT
ATOM      1  C   UNL d   1      33.231  19.747 -23.115  0.00  0.00     0.074 A 
ATOM      2  C   UNL d   1      33.223  20.571 -23.006  0.00  0.00     0.070 A 
ATOM      3  C   UNL d   1      33.224  21.073 -23.659  0.00  0.00     0.034 A 
ATOM      4  C   UNL d   1      33.240  19.434 -23.878  0.00  0.00     0.103 A 
ATOM      5  N   UNL d   1      33.241  19.944 -24.533  0.00  0.00    -0.244 NA
ATOM      6  C   UNL d   1      33.233  20.759 -24.422  0.00  0.00     0.083 A 
ATOM      7  C   UNL d   1      33.216  21.889 -23.547  0.00  0.00     0.003 A 
ATOM      8  C   UNL d   1      33.233  21.263 -25.074  0.00  0.00     0.019 A 
ATOM      9  C   UNL d   1      33.216  22.396 -24.201  0.00  0.00     0.000 A 
ATOM     10  C   UNL d   1      33.225  22.082 -24.965  0.00  0.00     0.002 A 
ENDROOT
BRANCH   2  11
ATOM     11  N   UNL d   1      33.214  20.888 -22.232  0.00  0.00    -0.304 N 
ATOM     12  C   UNL d   1      33.179  20.386 -21.580  0.00  0.00     0.080 A 
ATOM     13  C   UNL d   1      33.170  20.699 -20.817  0.00  0.00     0.024 A 
ATOM     14  C   UNL d   1      33.196  21.515 -20.705  0.00  0.00     0.067 A 
ATOM     15  C   UNL d   1      33.232  22.021 -21.358  0.00  0.00     0.024 A 
ATOM     16  C   UNL d   1      33.241  21.708 -22.121  0.00  0.00     0.080 A 
BRANCH  14  17
ATOM     17  C   UNL d   1      33.187  21.819 -19.939  0.00  0.00     0.300 C 
ATOM     18  O   UNL d   1      33.215  21.315 -19.285  0.00  0.00    -0.259 OA
BRANCH  17  19
ATOM     19  O   UNL d   1      33.149  22.635 -19.827  0.00  0.00    -0.271 OA
BRANCH  19  20
ATOM     20  C   UNL d   1      32.801  22.954 -19.152  0.00  0.00     0.126 C 
ATOM     21  C   UNL d   1      33.069  23.667 -18.830  0.00  0.00     0.029 C 
ENDBRANCH  19  20
ENDBRANCH  17  19
ENDBRANCH  14  17
ENDBRANCH   2  11
BRANCH   1  22
ATOM     22  C   UNL d   1      33.231  19.240 -22.460  0.00  0.00     0.198 C 
ATOM     23  O   UNL d   1      33.227  19.546 -21.694  0.00  0.00    -0.286 OA
BRANCH  22  24
ATOM     24  C   UNL d   1      33.234  18.425 -22.572  0.00  0.00     0.039 A 
ATOM     25  C   UNL d   1      33.237  18.115 -23.337  0.00  0.00     0.003 A 
ATOM     26  C   UNL d   1      33.240  17.299 -23.447  0.00  0.00     0.000 A 
ATOM     27  C   UNL d   1      33.241  16.793 -22.794  0.00  0.00     0.000 A 
ATOM     28  C   UNL d   1      33.238  17.098 -22.028  0.00  0.00     0.000 A 
ATOM     29  C   UNL d   1      33.235  17.922 -21.919  0.00  0.00     0.003 A 
ENDBRANCH  22  24
ENDBRANCH   1  22
BRANCH   9  30
ATOM     30  C   UNL d   1      33.208  23.220 -24.089  0.00  0.00     0.000 C 
ATOM     31  C   UNL d   1      32.559  23.659 -24.346  0.00  0.00     0.000 C 
ENDBRANCH   9  30
TORSDOF 7
ENDMDL
