MODEL 1
REMARK VINA RESULT:      -2.4      0.000      0.000
REMARK  3 active torsions:
REMARK  status: ('A' for Active; 'I' for Inactive)
REMARK    1  A    between atoms: C_2  and  C_4 
REMARK    2  A    between atoms: N_3  and  C_2 
REMARK    3  A    between atoms: C_5  and  N_3 
ROOT
ATOM      1  C   UNL d   1      58.530  -9.716  32.012  0.00  0.00     0.153 C 
ATOM      2  S   UNL d   1      57.729  -9.713  32.204  0.00  0.00    -0.056 SA
ENDROOT
BRANCH   1   3
ATOM      3  C   UNL d   1      59.094  -9.618  32.605  0.00  0.00     0.109 A 
ATOM      4  N   UNL d   1      58.852  -9.438  33.385  0.00  0.00    -0.243 NA
ATOM      5  C   UNL d   1      59.421  -9.340  33.979  0.00  0.00     0.081 A 
ATOM      6  C   UNL d   1      60.226  -9.420  33.797  0.00  0.00     0.018 A 
ATOM      7  C   UNL d   1      59.186  -9.163  34.748  0.00  0.00     0.019 A 
ATOM      8  C   UNL d   1      60.465  -9.597  33.026  0.00  0.00     0.003 A 
ATOM      9  C   UNL d   1      60.786  -9.321  34.390  0.00  0.00     0.002 A 
ATOM     10  C   UNL d   1      59.901  -9.696  32.433  0.00  0.00     0.021 A 
ATOM     11  C   UNL d   1      60.557  -9.145  35.156  0.00  0.00     0.000 A 
ATOM     12  C   UNL d   1      59.758  -9.066  35.335  0.00  0.00     0.002 A 
ENDBRANCH   1   3
BRANCH   1  13
ATOM     13  N   UNL d   1      58.769  -9.818  31.230  0.00  0.00    -0.233 NA
BRANCH  13  14
ATOM     14  C   UNL d   1      58.204  -9.818  30.624  0.00  0.00     0.082 A 
ATOM     15  C   UNL d   1      58.459  -9.817  29.833  0.00  0.00     0.018 A 
ATOM     16  C   UNL d   1      57.888  -9.817  29.232  0.00  0.00     0.002 A 
ATOM     17  C   UNL d   1      59.260  -9.817  29.650  0.00  0.00     0.002 C 
ATOM     18  C   UNL d   1      57.087  -9.818  29.415  0.00  0.00     0.000 A 
ATOM     19  C   UNL d   1      56.842  -9.818  30.205  0.00  0.00     0.002 A 
ATOM     20  C   UNL d   1      56.523  -9.818  28.808  0.00  0.00     0.000 C 
ATOM     21  C   UNL d   1      57.402  -9.818  30.810  0.00  0.00     0.019 A 
ENDBRANCH  13  14
ENDBRANCH   1  13
TORSDOF 3
ENDMDL
