MODEL 1
REMARK VINA RESULT:      -1.1      0.000      0.000
REMARK  3 active torsions:
REMARK  status: ('A' for Active; 'I' for Inactive)
REMARK    1  A    between atoms: S_2  and  C_1 
REMARK    2  A    between atoms: N_8  and  S_2 
REMARK    3  A    between atoms: C_12  and  N_9 
ROOT
ATOM      1  N   UNL d   1      32.720  20.094 -22.166  0.00  0.00    -0.226 N 
ATOM      2  N   UNL d   1      32.658  18.694 -23.026  0.00  0.00    -0.299 N 
ATOM      3  C   UNL d   1      32.173  20.003 -22.765  0.00  0.00     0.111 A 
ATOM      4  C   UNL d   1      33.241  19.473 -21.999  0.00  0.00     0.111 A 
ATOM      5  C   UNL d   1      32.136  19.316 -23.194  0.00  0.00     0.100 A 
ATOM      6  C   UNL d   1      33.210  18.771 -22.430  0.00  0.00     0.100 A 
ENDROOT
BRANCH   1   7
ATOM      7  S   UNL d   1      32.749  20.801 -21.734  0.00  0.00     0.278 S 
ATOM      8  O   UNL d   1      32.263  20.452 -21.166  0.00  0.00    -0.199 OA
ATOM      9  O   UNL d   1      33.237  21.141 -22.313  0.00  0.00    -0.199 OA
BRANCH   7  10
ATOM     10  C   UNL d   1      32.770  21.500 -21.295  0.00  0.00     0.178 A 
ATOM     11  C   UNL d   1      32.575  22.217 -21.663  0.00  0.00     0.282 A 
ATOM     12  N   UNL d   1      32.598  22.911 -21.224  0.00  0.00    -0.224 N 
ATOM     13  O   UNL d   1      32.366  22.230 -22.446  0.00  0.00    -0.266 OA
ATOM     14  C   UNL d   1      32.402  23.624 -21.596  0.00  0.00     0.107 C 
ATOM     15  C   UNL d   1      32.811  22.897 -20.428  0.00  0.00     0.342 A 
ATOM     16  N   UNL d   1      33.002  22.189 -20.067  0.00  0.00    -0.255 N 
ATOM     17  O   UNL d   1      32.833  23.596 -19.985  0.00  0.00    -0.245 OA
ATOM     18  C   UNL d   1      32.983  21.486 -20.499  0.00  0.00     0.102 A 
ATOM     19  C   UNL d   1      33.214  22.175 -19.275  0.00  0.00     0.104 C 
ENDBRANCH   7  10
ENDBRANCH   1   7
BRANCH   2  20
ATOM     20  C   UNL d   1      32.623  17.987 -23.465  0.00  0.00     0.092 A 
ATOM     21  C   UNL d   1      32.904  17.975 -24.245  0.00  0.00     0.156 A 
ATOM     22  F   UNL d   1      33.215  18.649 -24.584  0.00  0.00    -0.203 F 
ATOM     23  C   UNL d   1      32.868  17.272 -24.677  0.00  0.00     0.031 A 
ATOM     24  C   UNL d   1      32.554  16.592 -24.334  0.00  0.00     0.002 A 
ATOM     25  C   UNL d   1      32.273  16.604 -23.554  0.00  0.00     0.002 A 
ATOM     26  C   UNL d   1      32.309  17.307 -23.122  0.00  0.00     0.020 A 
ENDBRANCH   2  20
TORSDOF 3
ENDMDL
MODEL 2
REMARK VINA RESULT:      -0.2      1.814      5.022
REMARK  3 active torsions:
REMARK  status: ('A' for Active; 'I' for Inactive)
REMARK    1  A    between atoms: S_2  and  C_1 
REMARK    2  A    between atoms: N_8  and  S_2 
REMARK    3  A    between atoms: C_12  and  N_9 
ROOT
ATOM      1  N   UNL d   1      32.845  20.196 -22.247  0.00  0.00    -0.226 N 
ATOM      2  N   UNL d   1      32.895  21.587 -21.370  0.00  0.00    -0.299 N 
ATOM      3  C   UNL d   1      32.504  20.228 -21.506  0.00  0.00     0.111 A 
ATOM      4  C   UNL d   1      33.215  20.872 -22.548  0.00  0.00     0.111 A 
ATOM      5  C   UNL d   1      32.524  20.910 -21.067  0.00  0.00     0.100 A 
ATOM      6  C   UNL d   1      33.240  21.570 -22.109  0.00  0.00     0.100 A 
ENDROOT
BRANCH   1   7
ATOM      7  S   UNL d   1      32.818  19.494 -22.686  0.00  0.00     0.278 S 
ATOM      8  O   UNL d   1      32.451  19.128 -22.045  0.00  0.00    -0.199 OA
ATOM      9  O   UNL d   1      33.187  19.875 -23.325  0.00  0.00    -0.199 OA
BRANCH   7  10
ATOM     10  C   UNL d   1      32.785  18.789 -23.115  0.00  0.00     0.178 A 
ATOM     11  C   UNL d   1      32.503  18.801 -23.894  0.00  0.00     0.282 A 
ATOM     12  N   UNL d   1      32.471  18.098 -24.319  0.00  0.00    -0.224 N 
ATOM     13  O   UNL d   1      32.260  19.498 -24.231  0.00  0.00    -0.266 OA
ATOM     14  C   UNL d   1      32.188  18.115 -25.097  0.00  0.00     0.107 C 
ATOM     15  C   UNL d   1      32.718  17.390 -23.977  0.00  0.00     0.342 A 
ATOM     16  N   UNL d   1      32.996  17.381 -23.209  0.00  0.00    -0.255 N 
ATOM     17  O   UNL d   1      32.687  16.682 -24.404  0.00  0.00    -0.245 OA
ATOM     18  C   UNL d   1      33.032  18.081 -22.773  0.00  0.00     0.102 A 
ATOM     19  C   UNL d   1      33.241  16.677 -22.868  0.00  0.00     0.104 C 
ENDBRANCH   7  10
ENDBRANCH   1   7
BRANCH   2  20
ATOM     20  C   UNL d   1      32.918  22.288 -20.922  0.00  0.00     0.092 A 
ATOM     21  C   UNL d   1      32.665  23.000 -21.263  0.00  0.00     0.156 A 
ATOM     22  F   UNL d   1      32.394  23.018 -22.032  0.00  0.00    -0.203 F 
ATOM     23  C   UNL d   1      32.689  23.693 -20.815  0.00  0.00     0.031 A 
ATOM     24  C   UNL d   1      32.962  23.675 -20.038  0.00  0.00     0.002 A 
ATOM     25  C   UNL d   1      33.216  22.963 -19.697  0.00  0.00     0.002 A 
ATOM     26  C   UNL d   1      33.192  22.270 -20.145  0.00  0.00     0.020 A 
ENDBRANCH   2  20
TORSDOF 3
ENDMDL
MODEL 3
REMARK VINA RESULT:       0.7      1.830      5.188
REMARK  3 active torsions:
REMARK  status: ('A' for Active; 'I' for Inactive)
REMARK    1  A    between atoms: S_2  and  C_1 
REMARK    2  A    between atoms: N_8  and  S_2 
REMARK    3  A    between atoms: C_12  and  N_9 
ROOT
ATOM      1  N   UNL d   1      32.938  21.051 -21.368  0.00  0.00    -0.226 N 
ATOM      2  N   UNL d   1      32.838  22.043 -20.060  0.00  0.00    -0.299 N 
ATOM      3  C   UNL d   1      32.716  21.831 -21.459  0.00  0.00     0.111 A 
ATOM      4  C   UNL d   1      33.112  20.768 -20.610  0.00  0.00     0.111 A 
ATOM      5  C   UNL d   1      32.664  22.327 -20.820  0.00  0.00     0.100 A 
ATOM      6  C   UNL d   1      33.062  21.265 -19.954  0.00  0.00     0.100 A 
ENDROOT
BRANCH   1   7
ATOM      7  S   UNL d   1      32.988  20.553 -22.029  0.00  0.00     0.278 S 
ATOM      8  O   UNL d   1      33.117  21.219 -22.498  0.00  0.00    -0.199 OA
ATOM      9  O   UNL d   1      32.857  19.891 -21.546  0.00  0.00    -0.199 OA
BRANCH   7  10
ATOM     10  C   UNL d   1      33.039  20.067 -22.695  0.00  0.00     0.178 A 
ATOM     11  C   UNL d   1      33.014  19.244 -22.599  0.00  0.00     0.282 A 
ATOM     12  N   UNL d   1      33.065  18.763 -23.262  0.00  0.00    -0.224 N 
ATOM     13  O   UNL d   1      32.939  18.921 -21.859  0.00  0.00    -0.266 OA
ATOM     14  C   UNL d   1      33.039  17.941 -23.161  0.00  0.00     0.107 C 
ATOM     15  C   UNL d   1      33.141  19.091 -24.014  0.00  0.00     0.342 A 
ATOM     16  N   UNL d   1      33.166  19.903 -24.106  0.00  0.00    -0.255 N 
ATOM     17  O   UNL d   1      33.193  18.607 -24.683  0.00  0.00    -0.245 OA
ATOM     18  C   UNL d   1      33.115  20.396 -23.446  0.00  0.00     0.102 A 
ATOM     19  C   UNL d   1      33.241  20.230 -24.854  0.00  0.00     0.104 C 
ENDBRANCH   7  10
ENDBRANCH   1   7
BRANCH   2  20
ATOM     20  C   UNL d   1      32.786  22.549 -19.401  0.00  0.00     0.092 A 
ATOM     21  C   UNL d   1      32.276  23.203 -19.427  0.00  0.00     0.156 A 
ATOM     22  F   UNL d   1      31.826  23.352 -20.091  0.00  0.00    -0.203 F 
ATOM     23  C   UNL d   1      32.227  23.702 -18.771  0.00  0.00     0.031 A 
ATOM     24  C   UNL d   1      32.681  23.551 -18.101  0.00  0.00     0.002 A 
ATOM     25  C   UNL d   1      33.191  22.898 -18.075  0.00  0.00     0.002 A 
ATOM     26  C   UNL d   1      33.240  22.398 -18.731  0.00  0.00     0.020 A 
ENDBRANCH   2  20
TORSDOF 3
ENDMDL
