MODEL 1
REMARK VINA RESULT:      94.4      0.000      0.000
REMARK  3 active torsions:
REMARK  status: ('A' for Active; 'I' for Inactive)
REMARK    1  A    between atoms: C_6  and  C_1 
REMARK       I    between atoms: N_8  and  C_6 
REMARK    2  A    between atoms: C_16  and  N_8 
REMARK       I    between atoms: C_12  and  N_13 
REMARK    3  A    between atoms: N_13  and  C_17 
ROOT
ATOM      1  C   UNL d   1      41.788 -14.323  37.088  0.00  0.00     0.302 C 
ATOM      2  N   UNL d   1      42.157 -14.697  36.452  0.00  0.00    -0.206 NA
ATOM      3  O   UNL d   1      42.179 -14.248  37.804  0.00  0.00    -0.263 OA
ENDROOT
BRANCH   1   4
ATOM      4  C   UNL d   1      41.024 -14.024  37.000  0.00  0.00     0.158 A 
ATOM      5  O   UNL d   1      40.774 -13.256  37.189  0.00  0.00    -0.302 OA
ATOM      6  C   UNL d   1      39.962 -13.205  37.011  0.00  0.00     0.100 A 
ATOM      7  C   UNL d   1      39.414 -12.585  37.079  0.00  0.00     0.025 A 
ATOM      8  C   UNL d   1      39.710 -13.936  36.713  0.00  0.00     0.025 A 
ATOM      9  C   UNL d   1      38.631 -12.698  36.854  0.00  0.00     0.002 A 
ATOM     10  C   UNL d   1      38.086 -12.080  36.923  0.00  0.00     0.000 C 
ATOM     11  C   UNL d   1      38.386 -13.433  36.558  0.00  0.00     0.000 A 
ATOM     12  C   UNL d   1      38.926 -14.050  36.487  0.00  0.00     0.002 A 
ATOM     13  C   UNL d   1      37.603 -13.543  36.333  0.00  0.00     0.000 C 
ATOM     14  C   UNL d   1      40.351 -14.450  36.701  0.00  0.00     0.029 A 
ATOM     15  C   UNL d   1      40.351 -15.237  36.446  0.00  0.00     0.002 C 
ENDBRANCH   1   4
BRANCH   2  16
ATOM     16  C   UNL d   1      42.921 -14.997  36.535  0.00  0.00     0.085 A 
ATOM     17  C   UNL d   1      43.031 -15.812  36.596  0.00  0.00     0.021 A 
ATOM     18  C   UNL d   1      43.790 -16.110  36.679  0.00  0.00     0.021 A 
ATOM     19  C   UNL d   1      44.444 -15.600  36.702  0.00  0.00     0.085 A 
ATOM     20  C   UNL d   1      44.325 -14.785  36.640  0.00  0.00     0.021 A 
ATOM     21  C   UNL d   1      43.563 -14.481  36.556  0.00  0.00     0.021 A 
BRANCH  19  22
ATOM     22  N   UNL d   1      45.206 -15.903  36.785  0.00  0.00    -0.208 NA
ATOM     23  C   UNL d   1      45.845 -15.387  36.873  0.00  0.00     0.279 C 
ATOM     24  O   UNL d   1      45.727 -14.566  36.878  0.00  0.00    -0.265 OA
ATOM     25  C   UNL d   1      46.610 -15.683  36.957  0.00  0.00     0.068 C 
ENDBRANCH  19  22
ENDBRANCH   2  16
TORSDOF 3
ENDMDL
