MODEL 1
REMARK VINA RESULT:      13.6      0.000      0.000
REMARK  12 active torsions:
REMARK  status: ('A' for Active; 'I' for Inactive)
REMARK    1  A    between atoms: C_8  and  C_1 
REMARK    2  A    between atoms: C_9  and  C_2 
REMARK    3  A    between atoms: C_7  and  C_3 
REMARK    4  A    between atoms: S_10  and  C_4 
REMARK    5  A    between atoms: O_23  and  C_8 
REMARK    6  A    between atoms: C_20  and  S_10 
REMARK    7  A    between atoms: O_25  and  C_13 
REMARK    8  A    between atoms: C_14  and  C_20 
REMARK    9  A    between atoms: O_26  and  C_14 
REMARK   10  A    between atoms: C_21  and  C_28 
REMARK   11  A    between atoms: C_28  and  O_23 
REMARK   12  A    between atoms: C_29  and  O_26 
ROOT
ATOM      1  C   UNL d   1     -41.528-121.298 -52.215  0.00  0.00     0.081 A 
ATOM      2  C   UNL d   1     -41.772-122.498 -52.959  0.00  0.00     0.045 A 
ATOM      3  C   UNL d   1     -41.706-122.112 -52.242  0.00  0.00     0.010 A 
ATOM      4  C   UNL d   1     -41.663-122.084 -53.650  0.00  0.00     0.112 A 
ATOM      5  C   UNL d   1     -41.421-120.893 -52.891  0.00  0.00     0.087 A 
ATOM      6  N   UNL d   1     -41.487-121.281 -53.630  0.00  0.00    -0.239 NA
ATOM      7  C   UNL d   1     -41.242-120.069 -52.822  0.00  0.00     0.021 C 
ENDROOT
BRANCH   3   8
ATOM      8  C   UNL d   1     -41.818-122.533 -51.540  0.00  0.00     0.003 A 
ATOM      9  C   UNL d   1     -42.570-122.553 -51.176  0.00  0.00     0.028 A 
ATOM     10  C   UNL d   1     -42.681-122.973 -50.475  0.00  0.00     0.133 A 
ATOM     11  C   UNL d   1     -42.039-123.370 -50.143  0.00  0.00     0.218 A 
ATOM     12  C   UNL d   1     -41.304-123.348 -50.503  0.00  0.00     0.044 A 
ATOM     13  O   UNL d   1     -42.118-123.792 -49.452  0.00  0.00    -0.284 OA
ATOM     14  C   UNL d   1     -41.193-122.928 -51.204  0.00  0.00     0.003 A 
BRANCH  10  15
ATOM     15  O   UNL d   1     -43.435-123.000 -50.100  0.00  0.00    -0.325 OA
ATOM     16  C   UNL d   1     -43.489-123.080 -49.281  0.00  0.00     0.181 C 
ENDBRANCH  10  15
ENDBRANCH   3   8
BRANCH   2  17
ATOM     17  C   UNL d   1     -41.951-123.315 -52.981  0.00  0.00     0.124 C 
ATOM     18  N   UNL d   1     -41.534-123.815 -53.507  0.00  0.00    -0.146 N 
ENDBRANCH   2  17
BRANCH   1  19
ATOM     19  C   UNL d   1     -41.454-120.870 -51.486  0.00  0.00     0.302 C 
ATOM     20  O   UNL d   1     -41.125-121.228 -50.825  0.00  0.00    -0.259 OA
BRANCH  19  21
ATOM     21  O   UNL d   1     -41.713-120.100 -51.457  0.00  0.00    -0.271 OA
BRANCH  21  22
ATOM     22  C   UNL d   1     -41.709-119.678 -50.747  0.00  0.00     0.126 C 
BRANCH  22  23
ATOM     23  C   UNL d   1     -41.535-118.880 -50.759  0.00  0.00     0.027 C 
ATOM     24  C   UNL d   1     -41.149-118.543 -51.375  0.00  0.00     0.002 C 
ENDBRANCH  22  23
ENDBRANCH  21  22
ENDBRANCH  19  21
ENDBRANCH   1  19
BRANCH   4  25
ATOM     25  S   UNL d   1     -41.719-122.430 -54.390  0.00  0.00    -0.062 SA
BRANCH  25  26
ATOM     26  C   UNL d   1     -41.716-121.957 -55.049  0.00  0.00     0.105 C 
BRANCH  26  27
ATOM     27  C   UNL d   1     -42.342-122.014 -55.587  0.00  0.00     0.307 C 
ATOM     28  O   UNL d   1     -42.944-122.557 -55.462  0.00  0.00    -0.258 OA
BRANCH  27  29
ATOM     29  O   UNL d   1     -42.351-121.524 -56.241  0.00  0.00    -0.271 OA
BRANCH  29  30
ATOM     30  C   UNL d   1     -42.910-121.656 -56.821  0.00  0.00     0.126 C 
ATOM     31  C   UNL d   1     -42.752-121.449 -57.592  0.00  0.00     0.029 C 
ENDBRANCH  29  30
ENDBRANCH  27  29
ENDBRANCH  26  27
ENDBRANCH  25  26
ENDBRANCH   4  25
TORSDOF 12
ENDMDL
MODEL 2
REMARK VINA RESULT:      14.4      1.856      3.192
REMARK  12 active torsions:
REMARK  status: ('A' for Active; 'I' for Inactive)
REMARK    1  A    between atoms: C_8  and  C_1 
REMARK    2  A    between atoms: C_9  and  C_2 
REMARK    3  A    between atoms: C_7  and  C_3 
REMARK    4  A    between atoms: S_10  and  C_4 
REMARK    5  A    between atoms: O_23  and  C_8 
REMARK    6  A    between atoms: C_20  and  S_10 
REMARK    7  A    between atoms: O_25  and  C_13 
REMARK    8  A    between atoms: C_14  and  C_20 
REMARK    9  A    between atoms: O_26  and  C_14 
REMARK   10  A    between atoms: C_21  and  C_28 
REMARK   11  A    between atoms: C_28  and  O_23 
REMARK   12  A    between atoms: C_29  and  O_26 
ROOT
ATOM      1  C   UNL d   1     -42.224-122.982 -50.337  0.00  0.00     0.081 A 
ATOM      2  C   UNL d   1     -42.374-122.197 -51.526  0.00  0.00     0.045 A 
ATOM      3  C   UNL d   1     -42.655-122.439 -50.799  0.00  0.00     0.010 A 
ATOM      4  C   UNL d   1     -41.665-122.489 -51.800  0.00  0.00     0.112 A 
ATOM      5  C   UNL d   1     -41.531-123.268 -50.605  0.00  0.00     0.087 A 
ATOM      6  N   UNL d   1     -41.235-123.025 -51.349  0.00  0.00    -0.239 NA
ATOM      7  C   UNL d   1     -41.123-123.817 -50.108  0.00  0.00     0.021 C 
ENDROOT
BRANCH   3   8
ATOM      8  C   UNL d   1     -43.374-122.143 -50.521  0.00  0.00     0.003 A 
ATOM      9  C   UNL d   1     -44.048-122.636 -50.485  0.00  0.00     0.028 A 
ATOM     10  C   UNL d   1     -44.766-122.340 -50.207  0.00  0.00     0.133 A 
ATOM     11  C   UNL d   1     -44.806-121.553 -49.967  0.00  0.00     0.218 A 
ATOM     12  C   UNL d   1     -44.144-121.072 -50.004  0.00  0.00     0.044 A 
ATOM     13  O   UNL d   1     -45.500-121.233 -49.689  0.00  0.00    -0.284 OA
ATOM     14  C   UNL d   1     -43.426-121.368 -50.282  0.00  0.00     0.003 A 
BRANCH  10  15
ATOM     15  O   UNL d   1     -45.451-122.830 -50.167  0.00  0.00    -0.325 OA
ATOM     16  C   UNL d   1     -46.193-122.523 -50.354  0.00  0.00     0.181 C 
ENDBRANCH  10  15
ENDBRANCH   3   8
BRANCH   2  17
ATOM     17  C   UNL d   1     -42.810-121.651 -51.986  0.00  0.00     0.124 C 
ATOM     18  N   UNL d   1     -42.411-121.032 -52.383  0.00  0.00    -0.146 N 
ENDBRANCH   2  17
BRANCH   1  19
ATOM     19  C   UNL d   1     -42.491-123.253 -49.578  0.00  0.00     0.302 C 
ATOM     20  O   UNL d   1     -43.092-123.808 -49.523  0.00  0.00    -0.259 OA
BRANCH  19  21
ATOM     21  O   UNL d   1     -42.141-122.951 -48.910  0.00  0.00    -0.271 OA
BRANCH  21  22
ATOM     22  C   UNL d   1     -42.062-123.411 -48.228  0.00  0.00     0.126 C 
BRANCH  22  23
ATOM     23  C   UNL d   1     -41.864-123.046 -47.524  0.00  0.00     0.027 C 
ATOM     24  C   UNL d   1     -41.792-123.461 -46.842  0.00  0.00     0.002 C 
ENDBRANCH  22  23
ENDBRANCH  21  22
ENDBRANCH  19  21
ENDBRANCH   1  19
BRANCH   4  25
ATOM     25  S   UNL d   1     -41.344-122.274 -52.522  0.00  0.00    -0.062 SA
BRANCH  25  26
ATOM     26  C   UNL d   1     -41.761-122.425 -53.201  0.00  0.00     0.105 C 
BRANCH  26  27
ATOM     27  C   UNL d   1     -41.372-122.774 -53.842  0.00  0.00     0.307 C 
ATOM     28  O   UNL d   1     -41.126-123.555 -53.797  0.00  0.00    -0.258 OA
BRANCH  27  29
ATOM     29  O   UNL d   1     -41.238-122.332 -54.515  0.00  0.00    -0.271 OA
BRANCH  29  30
ATOM     30  C   UNL d   1     -41.123-122.722 -55.223  0.00  0.00     0.126 C 
ATOM     31  C   UNL d   1     -41.703-123.211 -55.517  0.00  0.00     0.029 C 
ENDBRANCH  29  30
ENDBRANCH  27  29
ENDBRANCH  26  27
ENDBRANCH  25  26
ENDBRANCH   4  25
TORSDOF 12
ENDMDL
