MODEL 1
REMARK VINA RESULT:      70.0      0.000      0.000
REMARK  4 active torsions:
REMARK  status: ('A' for Active; 'I' for Inactive)
REMARK    1  A    between atoms: N_2  and  S_1 
REMARK    2  A    between atoms: C_3  and  S_1 
REMARK    3  A    between atoms: O_19  and  C_14 
REMARK    4  A    between atoms: O_20  and  C_17 
ROOT
ATOM      1  S   UNL d   1     -52.073  24.903  33.774  0.00  0.00     0.275 S 
ATOM      2  O   UNL d   1     -52.701  25.370  33.338  0.00  0.00    -0.199 OA
ATOM      3  O   UNL d   1     -51.439  24.435  34.212  0.00  0.00    -0.199 OA
ENDROOT
BRANCH   1   4
ATOM      4  N   UNL d   1     -52.675  24.262  33.927  0.00  0.00    -0.212 N 
ATOM      5  C   UNL d   1     -52.978  24.149  34.668  0.00  0.00     0.094 A 
ATOM      6  C   UNL d   1     -53.529  23.563  34.808  0.00  0.00     0.100 A 
ATOM      7  C   UNL d   1     -52.725  24.630  35.274  0.00  0.00     0.020 A 
ATOM      8  C   UNL d   1     -53.828  23.458  35.559  0.00  0.00     0.021 A 
ATOM      9  N   UNL d   1     -53.478  23.193  33.453  0.00  0.00    -0.223 NA
ATOM     10  C   UNL d   1     -53.580  23.937  36.174  0.00  0.00     0.002 A 
ATOM     11  C   UNL d   1     -53.029  24.523  36.034  0.00  0.00     0.002 A 
ATOM     12  C   UNL d   1     -53.879  23.833  36.929  0.00  0.00     0.000 C 
ATOM     13  C   UNL d   1     -52.774  25.006  36.642  0.00  0.00     0.000 C 
ATOM     14  C   UNL d   1     -52.928  23.779  33.314  0.00  0.00     0.193 A 
ENDBRANCH   1   4
BRANCH   1  15
ATOM     15  C   UNL d   1     -51.471  25.547  33.619  0.00  0.00     0.128 A 
ATOM     16  C   UNL d   1     -51.716  26.417  33.621  0.00  0.00     0.039 A 
ATOM     17  C   UNL d   1     -51.109  27.055  33.466  0.00  0.00     0.095 A 
ATOM     18  C   UNL d   1     -50.260  26.834  33.309  0.00  0.00     0.026 A 
ATOM     19  C   UNL d   1     -50.010  25.973  33.306  0.00  0.00     0.027 A 
ATOM     20  C   UNL d   1     -50.620  25.339  33.461  0.00  0.00     0.106 A 
BRANCH  17  21
ATOM     21  O   UNL d   1     -51.346  27.913  33.466  0.00  0.00    -0.328 OA
ATOM     22  C   UNL d   1     -50.709  28.550  33.366  0.00  0.00     0.181 C 
ENDBRANCH  17  21
BRANCH  20  23
ATOM     23  O   UNL d   1     -50.375  24.471  33.459  0.00  0.00    -0.327 OA
ATOM     24  C   UNL d   1     -49.524  24.253  33.656  0.00  0.00     0.181 C 
ENDBRANCH  20  23
ENDBRANCH   1  15
TORSDOF 4
ENDMDL
MODEL 2
REMARK VINA RESULT:      72.9      1.918      3.473
REMARK  4 active torsions:
REMARK  status: ('A' for Active; 'I' for Inactive)
REMARK    1  A    between atoms: N_2  and  S_1 
REMARK    2  A    between atoms: C_3  and  S_1 
REMARK    3  A    between atoms: O_19  and  C_14 
REMARK    4  A    between atoms: O_20  and  C_17 
ROOT
ATOM      1  S   UNL d   1     -51.081  25.569  33.970  0.00  0.00     0.275 S 
ATOM      2  O   UNL d   1     -51.501  26.007  33.311  0.00  0.00    -0.199 OA
ATOM      3  O   UNL d   1     -50.659  25.126  34.632  0.00  0.00    -0.199 OA
ENDROOT
BRANCH   1   4
ATOM      4  N   UNL d   1     -50.661  26.326  34.186  0.00  0.00    -0.212 N 
ATOM      5  C   UNL d   1     -50.652  26.588  34.952  0.00  0.00     0.094 A 
ATOM      6  C   UNL d   1     -50.268  27.281  35.150  0.00  0.00     0.100 A 
ATOM      7  C   UNL d   1     -51.033  26.151  35.522  0.00  0.00     0.020 A 
ATOM      8  C   UNL d   1     -50.265  27.536  35.924  0.00  0.00     0.021 A 
ATOM      9  N   UNL d   1     -49.894  27.457  33.807  0.00  0.00    -0.223 NA
ATOM     10  C   UNL d   1     -50.646  27.102  36.504  0.00  0.00     0.002 A 
ATOM     11  C   UNL d   1     -51.030  26.410  36.306  0.00  0.00     0.002 A 
ATOM     12  C   UNL d   1     -50.644  27.357  37.283  0.00  0.00     0.000 C 
ATOM     13  C   UNL d   1     -51.413  25.970  36.878  0.00  0.00     0.000 C 
ATOM     14  C   UNL d   1     -50.278  26.765  33.609  0.00  0.00     0.193 A 
ENDBRANCH   1   4
BRANCH   1  15
ATOM     15  C   UNL d   1     -51.504  24.811  33.750  0.00  0.00     0.128 A 
ATOM     16  C   UNL d   1     -52.406  24.772  33.748  0.00  0.00     0.039 A 
ATOM     17  C   UNL d   1     -52.822  24.010  33.527  0.00  0.00     0.095 A 
ATOM     18  C   UNL d   1     -52.345  23.289  33.309  0.00  0.00     0.026 A 
ATOM     19  C   UNL d   1     -51.449  23.323  33.309  0.00  0.00     0.027 A 
ATOM     20  C   UNL d   1     -51.039  24.084  33.530  0.00  0.00     0.106 A 
BRANCH  17  21
ATOM     21  O   UNL d   1     -53.710  23.966  33.523  0.00  0.00    -0.328 OA
ATOM     22  C   UNL d   1     -54.118  23.191  33.754  0.00  0.00     0.181 C 
ENDBRANCH  17  21
BRANCH  20  23
ATOM     23  O   UNL d   1     -50.138  24.125  33.533  0.00  0.00    -0.327 OA
ATOM     24  C   UNL d   1     -49.663  23.366  33.430  0.00  0.00     0.181 C 
ENDBRANCH  20  23
ENDBRANCH   1  15
TORSDOF 4
ENDMDL
