MODEL 1
REMARK VINA RESULT:      -5.9      0.000      0.000
REMARK  2 active torsions:
REMARK  status: ('A' for Active; 'I' for Inactive)
REMARK    1  A    between atoms: C_2  and  C_5 
REMARK       I    between atoms: C_5  and  N_9 
REMARK    2  A    between atoms: N_9  and  C_15 
ROOT
ATOM      1  C   UNL d   1      57.774  -0.396  30.566  0.00  0.00     0.304 C 
ATOM      2  N   UNL d   1      57.582   0.030  31.240  0.00  0.00    -0.206 NA
ATOM      3  O   UNL d   1      57.395  -1.096  30.403  0.00  0.00    -0.263 OA
ENDROOT
BRANCH   1   4
ATOM      4  C   UNL d   1      58.350  -0.124  30.049  0.00  0.00     0.182 A 
ATOM      5  O   UNL d   1      59.118  -0.387  30.140  0.00  0.00    -0.298 OA
ATOM      6  C   UNL d   1      59.703  -0.113  29.618  0.00  0.00     0.123 A 
ATOM      7  C   UNL d   1      60.481  -0.373  29.701  0.00  0.00     0.027 A 
ATOM      8  C   UNL d   1      59.504   0.410  29.028  0.00  0.00     0.123 A 
ATOM      9  C   UNL d   1      61.053  -0.098  29.181  0.00  0.00     0.002 A 
ATOM     10  C   UNL d   1      60.866   0.421  28.593  0.00  0.00     0.002 A 
ATOM     11  C   UNL d   1      60.088   0.682  28.509  0.00  0.00     0.027 A 
ATOM     12  O   UNL d   1      58.726   0.671  28.944  0.00  0.00    -0.301 OA
ATOM     13  C   UNL d   1      58.159   0.396  29.461  0.00  0.00     0.152 A 
ENDBRANCH   1   4
BRANCH   2  14
ATOM     14  C   UNL d   1      57.009  -0.198  31.797  0.00  0.00     0.085 A 
ATOM     15  C   UNL d   1      56.678  -0.959  31.858  0.00  0.00     0.021 A 
ATOM     16  C   UNL d   1      56.122  -1.123  32.421  0.00  0.00     0.021 A 
ATOM     17  C   UNL d   1      55.877  -0.558  32.933  0.00  0.00     0.088 A 
ATOM     18  C   UNL d   1      56.197   0.201  32.883  0.00  0.00     0.050 A 
ATOM     19  N   UNL d   1      55.339  -0.524  33.557  0.00  0.00    -0.239 NA
ATOM     20  C   UNL d   1      56.767   0.395  32.316  0.00  0.00     0.027 A 
ATOM     21  S   UNL d   1      55.844   0.678  33.481  0.00  0.00    -0.066 SA
ATOM     22  C   UNL d   1      55.318   0.183  33.874  0.00  0.00     0.111 A 
ATOM     23  C   UNL d   1      54.843   0.433  34.516  0.00  0.00     0.028 C 
ENDBRANCH   2  14
TORSDOF 2
ENDMDL
MODEL 2
REMARK VINA RESULT:      -5.2      1.803      5.295
REMARK  2 active torsions:
REMARK  status: ('A' for Active; 'I' for Inactive)
REMARK    1  A    between atoms: C_2  and  C_5 
REMARK       I    between atoms: C_5  and  N_9 
REMARK    2  A    between atoms: N_9  and  C_15 
ROOT
ATOM      1  C   UNL d   1      57.137   0.106  31.807  0.00  0.00     0.304 C 
ATOM      2  N   UNL d   1      57.609   0.681  31.460  0.00  0.00    -0.206 NA
ATOM      3  O   UNL d   1      57.009  -0.602  31.427  0.00  0.00    -0.263 OA
ENDROOT
BRANCH   1   4
ATOM      4  C   UNL d   1      56.790   0.235  32.538  0.00  0.00     0.182 A 
ATOM      5  O   UNL d   1      55.977   0.292  32.585  0.00  0.00    -0.298 OA
ATOM      6  C   UNL d   1      55.623   0.423  33.325  0.00  0.00     0.123 A 
ATOM      7  C   UNL d   1      54.802   0.482  33.381  0.00  0.00     0.027 A 
ATOM      8  C   UNL d   1      56.087   0.492  33.988  0.00  0.00     0.123 A 
ATOM      9  C   UNL d   1      54.459   0.611  34.116  0.00  0.00     0.002 A 
ATOM     10  C   UNL d   1      54.912   0.682  34.780  0.00  0.00     0.002 A 
ATOM     11  C   UNL d   1      55.733   0.623  34.723  0.00  0.00     0.027 A 
ATOM     12  O   UNL d   1      56.908   0.433  33.931  0.00  0.00    -0.301 OA
ATOM     13  C   UNL d   1      57.247   0.305  33.202  0.00  0.00     0.152 A 
ENDBRANCH   1   4
BRANCH   2  14
ATOM     14  C   UNL d   1      57.984   0.603  30.723  0.00  0.00     0.085 A 
ATOM     15  C   UNL d   1      57.594   0.574  29.988  0.00  0.00     0.021 A 
ATOM     16  C   UNL d   1      58.014   0.497  29.302  0.00  0.00     0.021 A 
ATOM     17  C   UNL d   1      58.812   0.446  29.312  0.00  0.00     0.088 A 
ATOM     18  C   UNL d   1      59.211   0.474  30.034  0.00  0.00     0.050 A 
ATOM     19  N   UNL d   1      59.404   0.367  28.743  0.00  0.00    -0.239 NA
ATOM     20  C   UNL d   1      58.807   0.552  30.750  0.00  0.00     0.027 A 
ATOM     21  S   UNL d   1      60.038   0.409  29.883  0.00  0.00    -0.066 SA
ATOM     22  C   UNL d   1      60.108   0.345  29.066  0.00  0.00     0.111 A 
ATOM     23  C   UNL d   1      60.841   0.269  28.671  0.00  0.00     0.028 C 
ENDBRANCH   2  14
TORSDOF 2
ENDMDL
MODEL 3
REMARK VINA RESULT:      -4.6      1.097      1.589
REMARK  2 active torsions:
REMARK  status: ('A' for Active; 'I' for Inactive)
REMARK    1  A    between atoms: C_2  and  C_5 
REMARK       I    between atoms: C_5  and  N_9 
REMARK    2  A    between atoms: N_9  and  C_15 
ROOT
ATOM      1  C   UNL d   1      57.007  -0.426  31.559  0.00  0.00     0.304 C 
ATOM      2  N   UNL d   1      56.858   0.231  32.028  0.00  0.00    -0.206 NA
ATOM      3  O   UNL d   1      56.641  -1.134  31.720  0.00  0.00    -0.263 OA
ENDROOT
BRANCH   1   4
ATOM      4  C   UNL d   1      57.523  -0.378  30.925  0.00  0.00     0.182 A 
ATOM      5  O   UNL d   1      57.765  -1.067  30.559  0.00  0.00    -0.298 OA
ATOM      6  C   UNL d   1      58.288  -1.022  29.916  0.00  0.00     0.123 A 
ATOM      7  C   UNL d   1      58.537  -1.713  29.541  0.00  0.00     0.027 A 
ATOM      8  C   UNL d   1      58.551  -0.297  29.661  0.00  0.00     0.123 A 
ATOM      9  C   UNL d   1      59.055  -1.659  28.906  0.00  0.00     0.002 A 
ATOM     10  C   UNL d   1      59.322  -0.945  28.645  0.00  0.00     0.002 A 
ATOM     11  C   UNL d   1      59.073  -0.253  29.020  0.00  0.00     0.027 A 
ATOM     12  O   UNL d   1      58.302   0.395  30.036  0.00  0.00    -0.301 OA
ATOM     13  C   UNL d   1      57.789   0.340  30.666  0.00  0.00     0.152 A 
ENDBRANCH   1   4
BRANCH   2  14
ATOM     14  C   UNL d   1      56.345   0.239  32.682  0.00  0.00     0.085 A 
ATOM     15  C   UNL d   1      55.531   0.069  32.654  0.00  0.00     0.021 A 
ATOM     16  C   UNL d   1      55.082   0.092  33.325  0.00  0.00     0.021 A 
ATOM     17  C   UNL d   1      55.407   0.279  34.031  0.00  0.00     0.088 A 
ATOM     18  C   UNL d   1      56.214   0.450  34.073  0.00  0.00     0.050 A 
ATOM     19  N   UNL d   1      55.132   0.355  34.805  0.00  0.00    -0.239 NA
ATOM     20  C   UNL d   1      56.696   0.433  33.403  0.00  0.00     0.027 A 
ATOM     21  S   UNL d   1      56.407   0.626  34.875  0.00  0.00    -0.066 SA
ATOM     22  C   UNL d   1      55.701   0.554  35.291  0.00  0.00     0.111 A 
ATOM     23  C   UNL d   1      55.638   0.682  36.115  0.00  0.00     0.028 C 
ENDBRANCH   2  14
TORSDOF 2
ENDMDL
MODEL 4
REMARK VINA RESULT:      -3.2      1.887      5.197
REMARK  2 active torsions:
REMARK  status: ('A' for Active; 'I' for Inactive)
REMARK    1  A    between atoms: C_2  and  C_5 
REMARK       I    between atoms: C_5  and  N_9 
REMARK    2  A    between atoms: N_9  and  C_15 
ROOT
ATOM      1  C   UNL d   1      57.676   0.041  31.346  0.00  0.00     0.304 C 
ATOM      2  N   UNL d   1      57.615  -0.269  30.588  0.00  0.00    -0.206 NA
ATOM      3  O   UNL d   1      58.370   0.387  31.591  0.00  0.00    -0.263 OA
ENDROOT
BRANCH   1   4
ATOM      4  C   UNL d   1      57.042   0.005  31.864  0.00  0.00     0.182 A 
ATOM      5  O   UNL d   1      56.786  -0.726  32.125  0.00  0.00    -0.298 OA
ATOM      6  C   UNL d   1      56.144  -0.765  32.651  0.00  0.00     0.123 A 
ATOM      7  C   UNL d   1      55.879  -1.498  32.919  0.00  0.00     0.027 A 
ATOM      8  C   UNL d   1      55.782  -0.081  32.896  0.00  0.00     0.123 A 
ATOM      9  C   UNL d   1      55.244  -1.528  33.439  0.00  0.00     0.002 A 
ATOM     10  C   UNL d   1      54.878  -0.855  33.688  0.00  0.00     0.002 A 
ATOM     11  C   UNL d   1      55.142  -0.121  33.419  0.00  0.00     0.027 A 
ATOM     12  O   UNL d   1      56.046   0.653  32.627  0.00  0.00    -0.301 OA
ATOM     13  C   UNL d   1      56.677   0.682  32.112  0.00  0.00     0.152 A 
ENDBRANCH   1   4
BRANCH   2  14
ATOM     14  C   UNL d   1      58.224  -0.260  30.023  0.00  0.00     0.085 A 
ATOM     15  C   UNL d   1      58.345   0.340  29.459  0.00  0.00     0.021 A 
ATOM     16  C   UNL d   1      58.957   0.293  28.933  0.00  0.00     0.021 A 
ATOM     17  C   UNL d   1      59.461  -0.329  28.942  0.00  0.00     0.088 A 
ATOM     18  C   UNL d   1      59.352  -0.930  29.498  0.00  0.00     0.050 A 
ATOM     19  N   UNL d   1      60.123  -0.556  28.507  0.00  0.00    -0.239 NA
ATOM     20  C   UNL d   1      58.734  -0.908  30.046  0.00  0.00     0.027 A 
ATOM     21  S   UNL d   1      59.954  -1.509  29.383  0.00  0.00    -0.066 SA
ATOM     22  C   UNL d   1      60.409  -1.231  28.757  0.00  0.00     0.111 A 
ATOM     23  C   UNL d   1      61.075  -1.638  28.455  0.00  0.00     0.028 C 
ENDBRANCH   2  14
TORSDOF 2
ENDMDL
