MODEL 1
REMARK VINA RESULT:      45.1      0.000      0.000
REMARK  6 active torsions:
REMARK  status: ('A' for Active; 'I' for Inactive)
REMARK    1  A    between atoms: C_10  and  C_4 
REMARK    2  A    between atoms: N_12  and  C_5 
REMARK    3  A    between atoms: N_11  and  C_15 
REMARK    4  A    between atoms: C_20  and  N_12 
REMARK    5  A    between atoms: C_15  and  C_16 
REMARK    6  A    between atoms: C_16  and  C_20 
ROOT
ATOM      1  N   UNL d   1      13.226  13.288  -3.815  0.00  0.00    -0.195 N 
ATOM      2  C   UNL d   1      13.286  13.579  -4.584  0.00  0.00     0.167 A 
ATOM      3  N   UNL d   1      13.381  13.902  -3.293  0.00  0.00    -0.163 NA
ATOM      4  C   UNL d   1      13.479  14.374  -4.540  0.00  0.00     0.055 A 
ATOM      5  C   UNL d   1      13.036  12.494  -3.679  0.00  0.00     0.167 A 
ATOM      6  C   UNL d   1      13.538  14.577  -3.749  0.00  0.00     0.104 A 
ATOM      7  N   UNL d   1      13.157  13.079  -5.225  0.00  0.00    -0.227 NA
ATOM      8  C   UNL d   1      12.906  11.991  -4.331  0.00  0.00     0.058 A 
ATOM      9  C   UNL d   1      12.966  12.282  -5.100  0.00  0.00     0.086 A 
ATOM     10  C   UNL d   1      13.723  15.325  -3.451  0.00  0.00     0.023 C 
ATOM     11  C   UNL d   1      12.836  11.780  -5.746  0.00  0.00     0.021 C 
ENDROOT
BRANCH   5  12
ATOM     12  N   UNL d   1      12.976  12.206  -2.918  0.00  0.00    -0.225 NA
BRANCH  12  13
ATOM     13  C   UNL d   1      13.598  11.780  -2.588  0.00  0.00     0.102 C 
BRANCH  13  14
ATOM     14  C   UNL d   1      13.741  11.817  -1.769  0.00  0.00     0.040 C 
BRANCH  14  15
ATOM     15  C   UNL d   1      14.512  11.788  -1.482  0.00  0.00     0.082 C 
BRANCH  15  16
ATOM     16  N   UNL d   1      14.795  12.388  -0.994  0.00  0.00    -0.299 N 
ATOM     17  C   UNL d   1      14.262  12.850  -0.556  0.00  0.00     0.107 A 
ATOM     18  C   UNL d   1      14.546  13.453  -0.066  0.00  0.00     0.142 A 
ATOM     19  O   UNL d   1      15.363  13.593  -0.014  0.00  0.00    -0.300 OA
ATOM     20  C   UNL d   1      15.888  13.133  -0.450  0.00  0.00     0.142 A 
ATOM     21  C   UNL d   1      15.604  12.530  -0.940  0.00  0.00     0.107 A 
ENDBRANCH  15  16
ENDBRANCH  14  15
ENDBRANCH  13  14
ENDBRANCH  12  13
ENDBRANCH   5  12
BRANCH   4  22
ATOM     22  C   UNL d   1      13.609  14.945  -5.118  0.00  0.00     0.004 A 
ATOM     23  C   UNL d   1      12.976  15.362  -5.441  0.00  0.00     0.000 A 
ATOM     24  C   UNL d   1      13.111  15.937  -6.024  0.00  0.00     0.000 A 
ATOM     25  C   UNL d   1      13.881  16.090  -6.278  0.00  0.00     0.000 A 
ATOM     26  C   UNL d   1      14.515  15.673  -5.955  0.00  0.00     0.000 A 
ATOM     27  C   UNL d   1      14.384  15.102  -5.377  0.00  0.00     0.000 A 
ENDBRANCH   4  22
TORSDOF 6
ENDMDL
