MODEL 1
REMARK VINA RESULT:       1.2      0.000      0.000
REMARK  3 active torsions:
REMARK  status: ('A' for Active; 'I' for Inactive)
REMARK    1  A    between atoms: C_2  and  O_3 
REMARK    2  A    between atoms: O_3  and  C_5 
REMARK    3  A    between atoms: C_5  and  C_4 
ROOT
ATOM      1  C   UNL d   1     -54.715-102.380 -37.072  0.00  0.00     0.100 A 
ATOM      2  C   UNL d   1     -54.721-102.696 -36.310  0.00  0.00     0.025 A 
ATOM      3  C   UNL d   1     -54.711-101.564 -37.181  0.00  0.00     0.025 A 
ATOM      4  C   UNL d   1     -54.723-102.199 -35.649  0.00  0.00     0.002 A 
ATOM      5  C   UNL d   1     -54.713-101.067 -36.519  0.00  0.00     0.002 A 
ATOM      6  C   UNL d   1     -54.719-101.380 -35.764  0.00  0.00     0.000 A 
ENDROOT
BRANCH   1   7
ATOM      7  O   UNL d   1     -54.713-102.880 -37.726  0.00  0.00    -0.303 OA
BRANCH   7   8
ATOM      8  C   UNL d   1     -55.075-102.645 -38.434  0.00  0.00     0.145 C 
BRANCH   8   9
ATOM      9  C   UNL d   1     -54.721-102.811 -39.158  0.00  0.00     0.149 C 
ATOM     10  N   UNL d   1     -55.176-102.872 -39.841  0.00  0.00    -0.144 N 
ENDBRANCH   8   9
ENDBRANCH   7   8
ENDBRANCH   1   7
TORSDOF 3
ENDMDL
MODEL 2
REMARK VINA RESULT:       1.3      1.595      2.986
REMARK  3 active torsions:
REMARK  status: ('A' for Active; 'I' for Inactive)
REMARK    1  A    between atoms: C_2  and  O_3 
REMARK    2  A    between atoms: O_3  and  C_5 
REMARK    3  A    between atoms: C_5  and  C_4 
ROOT
ATOM      1  C   UNL d   1     -55.214-102.880 -38.117  0.00  0.00     0.100 A 
ATOM      2  C   UNL d   1     -56.032-102.879 -38.225  0.00  0.00     0.025 A 
ATOM      3  C   UNL d   1     -54.711-102.879 -38.770  0.00  0.00     0.025 A 
ATOM      4  C   UNL d   1     -56.355-102.879 -38.986  0.00  0.00     0.002 A 
ATOM      5  C   UNL d   1     -55.036-102.879 -39.531  0.00  0.00     0.002 A 
ATOM      6  C   UNL d   1     -55.846-102.879 -39.637  0.00  0.00     0.000 A 
ENDROOT
BRANCH   1   7
ATOM      7  O   UNL d   1     -54.897-102.880 -37.357  0.00  0.00    -0.303 OA
BRANCH   7   8
ATOM      8  C   UNL d   1     -55.039-102.245 -36.844  0.00  0.00     0.145 C 
BRANCH   8   9
ATOM      9  C   UNL d   1     -54.887-102.318 -36.039  0.00  0.00     0.149 C 
ATOM     10  N   UNL d   1     -54.713-101.655 -35.584  0.00  0.00    -0.144 N 
ENDBRANCH   8   9
ENDBRANCH   7   8
ENDBRANCH   1   7
TORSDOF 3
ENDMDL
