MODEL 1
REMARK VINA RESULT:      -3.3      0.000      0.000
REMARK  3 active torsions:
REMARK  status: ('A' for Active; 'I' for Inactive)
REMARK    1  A    between atoms: C_9  and  N_1 
REMARK       I    between atoms: C_8  and  N_2 
REMARK    2  A    between atoms: C_3  and  C_9 
REMARK    3  A    between atoms: C_13  and  C_8 
ROOT
ATOM      1  N   UNL d   1      57.551   0.358  31.716  0.00  0.00    -0.194 N 
ATOM      2  C   UNL d   1      58.205   0.537  30.564  0.00  0.00     0.055 A 
ATOM      3  N   UNL d   1      57.003   0.277  31.086  0.00  0.00    -0.163 NA
ATOM      4  C   UNL d   1      58.281   0.516  31.384  0.00  0.00     0.089 A 
ATOM      5  C   UNL d   1      57.371   0.288  32.515  0.00  0.00     0.286 C 
ATOM      6  C   UNL d   1      57.418   0.389  30.379  0.00  0.00     0.104 A 
ATOM      7  O   UNL d   1      57.980   0.384  33.074  0.00  0.00    -0.265 OA
ATOM      8  C   UNL d   1      58.979   0.636  31.812  0.00  0.00     0.021 C 
ATOM      9  C   UNL d   1      57.089   0.357  29.620  0.00  0.00     0.023 C 
ENDROOT
BRANCH   2  10
ATOM     10  C   UNL d   1      58.821   0.682  30.021  0.00  0.00     0.089 C 
BRANCH  10  11
ATOM     11  N   UNL d   1      59.284   0.057  29.742  0.00  0.00    -0.240 N 
ATOM     12  C   UNL d   1      60.056  -0.102  29.961  0.00  0.00     0.267 A 
ATOM     13  C   UNL d   1      60.297  -0.776  29.545  0.00  0.00     0.061 A 
ATOM     14  O   UNL d   1      60.509   0.331  30.499  0.00  0.00    -0.267 OA
ATOM     15  C   UNL d   1      61.010  -1.186  29.543  0.00  0.00     0.005 A 
ATOM     16  C   UNL d   1      59.678  -1.028  29.074  0.00  0.00     0.061 A 
ATOM     17  C   UNL d   1      61.102  -1.851  29.067  0.00  0.00     0.000 A 
ATOM     18  C   UNL d   1      60.478  -2.107  28.591  0.00  0.00     0.000 A 
ATOM     19  C   UNL d   1      59.764  -1.696  28.593  0.00  0.00     0.005 A 
ATOM     20  C   UNL d   1      59.041  -0.514  29.190  0.00  0.00     0.267 A 
ATOM     21  O   UNL d   1      58.301  -0.563  28.823  0.00  0.00    -0.267 OA
ENDBRANCH  10  11
ENDBRANCH   2  10
BRANCH   5  22
ATOM     22  C   UNL d   1      56.599   0.125  32.751  0.00  0.00     0.087 A 
ATOM     23  S   UNL d   1      56.047   0.681  33.012  0.00  0.00    -0.082 SA
ATOM     24  C   UNL d   1      55.350   0.278  33.190  0.00  0.00     0.036 A 
ATOM     25  C   UNL d   1      55.467  -0.516  33.043  0.00  0.00     0.008 A 
ATOM     26  C   UNL d   1      56.244  -0.614  32.769  0.00  0.00     0.012 A 
ENDBRANCH   5  22
TORSDOF 3
ENDMDL
MODEL 2
REMARK VINA RESULT:      -2.6      1.774      4.446
REMARK  3 active torsions:
REMARK  status: ('A' for Active; 'I' for Inactive)
REMARK    1  A    between atoms: C_9  and  N_1 
REMARK       I    between atoms: C_8  and  N_2 
REMARK    2  A    between atoms: C_3  and  C_9 
REMARK    3  A    between atoms: C_13  and  C_8 
ROOT
ATOM      1  N   UNL d   1      59.206  -1.258  29.659  0.00  0.00    -0.194 N 
ATOM      2  C   UNL d   1      58.944   0.001  30.024  0.00  0.00     0.055 A 
ATOM      3  N   UNL d   1      59.925  -0.825  29.649  0.00  0.00    -0.163 NA
ATOM      4  C   UNL d   1      58.615  -0.742  29.890  0.00  0.00     0.089 A 
ATOM      5  C   UNL d   1      59.128  -2.053  29.469  0.00  0.00     0.286 C 
ATOM      6  C   UNL d   1      59.751  -0.048  29.876  0.00  0.00     0.104 A 
ATOM      7  O   UNL d   1      58.373  -2.404  29.507  0.00  0.00    -0.265 OA
ATOM      8  C   UNL d   1      57.817  -0.945  29.972  0.00  0.00     0.021 C 
ATOM      9  C   UNL d   1      60.301   0.567  29.940  0.00  0.00     0.023 C 
ENDROOT
BRANCH   2  10
ATOM     10  C   UNL d   1      58.527   0.681  30.268  0.00  0.00     0.089 C 
BRANCH  10  11
ATOM     11  N   UNL d   1      58.112   0.681  30.982  0.00  0.00    -0.240 N 
ATOM     12  C   UNL d   1      58.446   0.681  31.730  0.00  0.00     0.267 A 
ATOM     13  C   UNL d   1      57.824   0.681  32.276  0.00  0.00     0.061 A 
ATOM     14  O   UNL d   1      59.253   0.682  31.904  0.00  0.00    -0.267 OA
ATOM     15  C   UNL d   1      57.826   0.680  33.099  0.00  0.00     0.005 A 
ATOM     16  C   UNL d   1      57.115   0.680  31.868  0.00  0.00     0.061 A 
ATOM     17  C   UNL d   1      57.114   0.680  33.513  0.00  0.00     0.000 A 
ATOM     18  C   UNL d   1      56.398   0.680  33.102  0.00  0.00     0.000 A 
ATOM     19  C   UNL d   1      56.396   0.680  32.279  0.00  0.00     0.005 A 
ATOM     20  C   UNL d   1      57.286   0.680  31.059  0.00  0.00     0.267 A 
ATOM     21  O   UNL d   1      56.732   0.680  30.444  0.00  0.00    -0.267 OA
ENDBRANCH  10  11
ENDBRANCH   2  10
BRANCH   5  22
ATOM     22  C   UNL d   1      59.789  -2.492  29.246  0.00  0.00     0.087 A 
ATOM     23  S   UNL d   1      60.050  -2.610  28.472  0.00  0.00    -0.082 SA
ATOM     24  C   UNL d   1      60.727  -3.080  28.506  0.00  0.00     0.036 A 
ATOM     25  C   UNL d   1      60.884  -3.251  29.289  0.00  0.00     0.008 A 
ATOM     26  C   UNL d   1      60.301  -2.886  29.752  0.00  0.00     0.012 A 
ENDBRANCH   5  22
TORSDOF 3
ENDMDL
MODEL 3
REMARK VINA RESULT:      -2.3      9.111     10.121
REMARK  3 active torsions:
REMARK  status: ('A' for Active; 'I' for Inactive)
REMARK    1  A    between atoms: C_9  and  N_1 
REMARK       I    between atoms: C_8  and  N_2 
REMARK    2  A    between atoms: C_3  and  C_9 
REMARK    3  A    between atoms: C_13  and  C_8 
ROOT
ATOM      1  N   UNL d   1      58.690  -9.718  32.342  0.00  0.00    -0.194 N 
ATOM      2  C   UNL d   1      59.506  -9.771  33.399  0.00  0.00     0.055 A 
ATOM      3  N   UNL d   1      59.481  -9.707  32.065  0.00  0.00    -0.163 NA
ATOM      4  C   UNL d   1      58.718  -9.757  33.158  0.00  0.00     0.089 A 
ATOM      5  C   UNL d   1      58.019  -9.693  31.867  0.00  0.00     0.286 C 
ATOM      6  C   UNL d   1      59.977  -9.740  32.726  0.00  0.00     0.104 A 
ATOM      7  O   UNL d   1      57.269  -9.708  32.229  0.00  0.00    -0.265 OA
ATOM      8  C   UNL d   1      58.056  -9.778  33.654  0.00  0.00     0.021 C 
ATOM      9  C   UNL d   1      60.805  -9.742  32.705  0.00  0.00     0.023 C 
ENDROOT
BRANCH   2  10
ATOM     10  C   UNL d   1      59.774  -9.809  34.188  0.00  0.00     0.089 C 
BRANCH  10  11
ATOM     11  N   UNL d   1      59.822  -9.122  34.644  0.00  0.00    -0.240 N 
ATOM     12  C   UNL d   1      60.416  -8.561  34.603  0.00  0.00     0.267 A 
ATOM     13  C   UNL d   1      60.238  -7.973  35.158  0.00  0.00     0.061 A 
ATOM     14  O   UNL d   1      61.071  -8.580  34.100  0.00  0.00    -0.267 OA
ATOM     15  C   UNL d   1      60.634  -7.280  35.359  0.00  0.00     0.005 A 
ATOM     16  C   UNL d   1      59.541  -8.171  35.536  0.00  0.00     0.061 A 
ATOM     17  C   UNL d   1      60.328  -6.785  35.942  0.00  0.00     0.000 A 
ATOM     18  C   UNL d   1      59.624  -6.984  36.325  0.00  0.00     0.000 A 
ATOM     19  C   UNL d   1      59.229  -7.678  36.123  0.00  0.00     0.005 A 
ATOM     20  C   UNL d   1      59.274  -8.887  35.222  0.00  0.00     0.267 A 
ATOM     21  O   UNL d   1      58.587  -9.292  35.444  0.00  0.00    -0.267 OA
ENDBRANCH  10  11
ENDBRANCH   2  10
BRANCH   5  22
ATOM     22  C   UNL d   1      58.094  -9.654  31.048  0.00  0.00     0.087 A 
ATOM     23  S   UNL d   1      57.491  -9.789  30.501  0.00  0.00    -0.082 SA
ATOM     24  C   UNL d   1      57.810  -9.692  29.747  0.00  0.00     0.036 A 
ATOM     25  C   UNL d   1      58.599  -9.499  29.824  0.00  0.00     0.008 A 
ATOM     26  C   UNL d   1      58.779  -9.475  30.634  0.00  0.00     0.012 A 
ENDBRANCH   5  22
TORSDOF 3
ENDMDL
MODEL 4
REMARK VINA RESULT:      -1.5      1.726      4.608
REMARK  3 active torsions:
REMARK  status: ('A' for Active; 'I' for Inactive)
REMARK    1  A    between atoms: C_9  and  N_1 
REMARK       I    between atoms: C_8  and  N_2 
REMARK    2  A    between atoms: C_3  and  C_9 
REMARK    3  A    between atoms: C_13  and  C_8 
ROOT
ATOM      1  N   UNL d   1      59.554  -1.357  29.441  0.00  0.00    -0.194 N 
ATOM      2  C   UNL d   1      59.450  -0.100  29.883  0.00  0.00     0.055 A 
ATOM      3  N   UNL d   1      60.327  -1.057  29.566  0.00  0.00    -0.163 NA
ATOM      4  C   UNL d   1      59.027  -0.764  29.638  0.00  0.00     0.089 A 
ATOM      5  C   UNL d   1      59.375  -2.112  29.169  0.00  0.00     0.286 C 
ATOM      6  C   UNL d   1      60.251  -0.280  29.839  0.00  0.00     0.104 A 
ATOM      7  O   UNL d   1      58.576  -2.327  29.074  0.00  0.00    -0.265 OA
ATOM      8  C   UNL d   1      58.203  -0.829  29.595  0.00  0.00     0.021 C 
ATOM      9  C   UNL d   1      60.879   0.224  30.033  0.00  0.00     0.023 C 
ENDROOT
BRANCH   2  10
ATOM     10  C   UNL d   1      59.119   0.623  30.131  0.00  0.00     0.089 C 
BRANCH  10  11
ATOM     11  N   UNL d   1      58.541   0.636  30.723  0.00  0.00    -0.240 N 
ATOM     12  C   UNL d   1      57.732   0.632  30.602  0.00  0.00     0.267 A 
ATOM     13  C   UNL d   1      57.372   0.648  31.347  0.00  0.00     0.061 A 
ATOM     14  O   UNL d   1      57.349   0.615  29.871  0.00  0.00    -0.267 OA
ATOM     15  C   UNL d   1      56.579   0.651  31.565  0.00  0.00     0.005 A 
ATOM     16  C   UNL d   1      57.955   0.661  31.920  0.00  0.00     0.061 A 
ATOM     17  C   UNL d   1      56.371   0.668  32.361  0.00  0.00     0.000 A 
ATOM     18  C   UNL d   1      56.958   0.682  32.941  0.00  0.00     0.000 A 
ATOM     19  C   UNL d   1      57.752   0.678  32.722  0.00  0.00     0.005 A 
ATOM     20  C   UNL d   1      58.688   0.654  31.540  0.00  0.00     0.267 A 
ATOM     21  O   UNL d   1      59.430   0.663  31.908  0.00  0.00    -0.267 OA
ENDBRANCH  10  11
ENDBRANCH   2  10
BRANCH   5  22
ATOM     22  C   UNL d   1      59.981  -2.643  28.996  0.00  0.00     0.087 A 
ATOM     23  S   UNL d   1      60.083  -3.387  29.338  0.00  0.00    -0.082 SA
ATOM     24  C   UNL d   1      60.756  -3.727  29.004  0.00  0.00     0.036 A 
ATOM     25  C   UNL d   1      61.068  -3.201  28.463  0.00  0.00     0.008 A 
ATOM     26  C   UNL d   1      60.587  -2.525  28.455  0.00  0.00     0.012 A 
ENDBRANCH   5  22
TORSDOF 3
ENDMDL
MODEL 5
REMARK VINA RESULT:      -1.3      0.800      1.659
REMARK  3 active torsions:
REMARK  status: ('A' for Active; 'I' for Inactive)
REMARK    1  A    between atoms: C_9  and  N_1 
REMARK       I    between atoms: C_8  and  N_2 
REMARK    2  A    between atoms: C_3  and  C_9 
REMARK    3  A    between atoms: C_13  and  C_8 
ROOT
ATOM      1  N   UNL d   1      57.712   0.643  31.613  0.00  0.00    -0.194 N 
ATOM      2  C   UNL d   1      58.676   0.666  30.686  0.00  0.00     0.055 A 
ATOM      3  N   UNL d   1      58.454   0.652  32.004  0.00  0.00    -0.163 NA
ATOM      4  C   UNL d   1      57.861   0.652  30.809  0.00  0.00     0.089 A 
ATOM      5  C   UNL d   1      56.979   0.629  31.984  0.00  0.00     0.286 C 
ATOM      6  C   UNL d   1      59.042   0.666  31.422  0.00  0.00     0.104 A 
ATOM      7  O   UNL d   1      56.291   0.622  31.515  0.00  0.00    -0.265 OA
ATOM      8  C   UNL d   1      57.279   0.647  30.220  0.00  0.00     0.021 C 
ATOM      9  C   UNL d   1      59.858   0.678  31.565  0.00  0.00     0.023 C 
ENDROOT
BRANCH   2  10
ATOM     10  C   UNL d   1      59.057   0.677  29.945  0.00  0.00     0.089 C 
BRANCH  10  11
ATOM     11  N   UNL d   1      59.433  -0.001  29.660  0.00  0.00    -0.240 N 
ATOM     12  C   UNL d   1      59.082  -0.594  29.218  0.00  0.00     0.267 A 
ATOM     13  C   UNL d   1      59.665  -1.159  29.057  0.00  0.00     0.061 A 
ATOM     14  O   UNL d   1      58.293  -0.620  28.977  0.00  0.00    -0.267 OA
ATOM     15  C   UNL d   1      59.633  -1.867  28.639  0.00  0.00     0.005 A 
ATOM     16  C   UNL d   1      60.367  -0.916  29.398  0.00  0.00     0.061 A 
ATOM     17  C   UNL d   1      60.308  -2.332  28.563  0.00  0.00     0.000 A 
ATOM     18  C   UNL d   1      61.018  -2.088  28.907  0.00  0.00     0.000 A 
ATOM     19  C   UNL d   1      61.050  -1.379  29.326  0.00  0.00     0.005 A 
ATOM     20  C   UNL d   1      60.232  -0.194  29.777  0.00  0.00     0.267 A 
ATOM     21  O   UNL d   1      60.792   0.251  30.194  0.00  0.00    -0.267 OA
ENDBRANCH  10  11
ENDBRANCH   2  10
BRANCH   5  22
ATOM     22  C   UNL d   1      56.933   0.622  32.806  0.00  0.00     0.087 A 
ATOM     23  S   UNL d   1      56.240   0.553  33.250  0.00  0.00    -0.082 SA
ATOM     24  C   UNL d   1      56.450   0.571  34.047  0.00  0.00     0.036 A 
ATOM     25  C   UNL d   1      57.261   0.650  34.098  0.00  0.00     0.008 A 
ATOM     26  C   UNL d   1      57.564   0.682  33.326  0.00  0.00     0.012 A 
ENDBRANCH   5  22
TORSDOF 3
ENDMDL
