MODEL 1
REMARK VINA RESULT:      -6.5      0.000      0.000
REMARK  9 active torsions:
REMARK  status: ('A' for Active; 'I' for Inactive)
REMARK    1  A    between atoms: C_6  and  N_1 
REMARK    2  A    between atoms: S_11  and  C_2 
REMARK    3  A    between atoms: C_14  and  C_3 
REMARK       I    between atoms: C_7  and  N_12 
REMARK    4  A    between atoms: C_8  and  C_7 
REMARK    5  A    between atoms: C_9  and  N_10 
REMARK       I    between atoms: N_10  and  C_13 
REMARK    6  A    between atoms: C_24  and  S_11 
REMARK    7  A    between atoms: N_12  and  C_14 
REMARK    8  A    between atoms: C_13  and  C_24 
REMARK    9  A    between atoms: O_28  and  C_19 
ROOT
ATOM      1  N   UNL d   1      51.698  33.550  53.122  0.00  0.00    -0.266 N 
ATOM      2  C   UNL d   1      50.884  33.699  53.095  0.00  0.00     0.201 A 
ATOM      3  C   UNL d   1      51.809  32.733  53.225  0.00  0.00     0.190 A 
ATOM      4  N   UNL d   1      50.485  32.969  53.181  0.00  0.00    -0.121 NA
ATOM      5  N   UNL d   1      51.055  32.374  53.261  0.00  0.00    -0.126 NA
ENDROOT
BRANCH   2   6
ATOM      6  S   UNL d   1      50.529  34.428  53.001  0.00  0.00    -0.043 SA
BRANCH   6   7
ATOM      7  C   UNL d   1      49.807  34.499  52.600  0.00  0.00     0.101 C 
BRANCH   7   8
ATOM      8  C   UNL d   1      49.256  35.054  52.832  0.00  0.00     0.286 C 
ATOM      9  N   UNL d   1      48.490  35.026  52.535  0.00  0.00    -0.208 NA
ATOM     10  O   UNL d   1      49.468  35.651  53.368  0.00  0.00    -0.265 OA
BRANCH   9  11
ATOM     11  C   UNL d   1      47.932  35.589  52.770  0.00  0.00     0.085 A 
ATOM     12  C   UNL d   1      47.384  35.878  52.238  0.00  0.00     0.018 A 
ATOM     13  C   UNL d   1      46.826  36.440  52.473  0.00  0.00     0.002 A 
ATOM     14  C   UNL d   1      47.381  35.609  51.460  0.00  0.00     0.002 C 
ATOM     15  C   UNL d   1      46.829  36.709  53.255  0.00  0.00     0.000 A 
ATOM     16  C   UNL d   1      47.389  36.416  53.802  0.00  0.00     0.002 A 
ATOM     17  C   UNL d   1      47.938  35.855  53.548  0.00  0.00     0.019 A 
ATOM     18  C   UNL d   1      47.389  36.681  54.565  0.00  0.00     0.000 C 
ENDBRANCH   9  11
ENDBRANCH   7   8
ENDBRANCH   6   7
ENDBRANCH   2   6
BRANCH   1  19
ATOM     19  C   UNL d   1      52.289  34.108  53.060  0.00  0.00     0.090 A 
ATOM     20  C   UNL d   1      52.607  34.439  53.746  0.00  0.00     0.110 A 
ATOM     21  C   UNL d   1      53.204  35.003  53.687  0.00  0.00     0.026 A 
ATOM     22  C   UNL d   1      53.484  35.236  52.941  0.00  0.00     0.002 A 
ATOM     23  C   UNL d   1      53.155  34.894  52.257  0.00  0.00     0.002 A 
ATOM     24  C   UNL d   1      52.558  34.331  52.320  0.00  0.00     0.020 A 
BRANCH  20  25
ATOM     25  O   UNL d   1      52.335  34.214  54.486  0.00  0.00    -0.327 OA
ATOM     26  C   UNL d   1      52.669  34.526  55.168  0.00  0.00     0.181 C 
ENDBRANCH  20  25
ENDBRANCH   1  19
BRANCH   3  27
ATOM     27  C   UNL d   1      52.535  32.342  53.281  0.00  0.00     0.141 C 
BRANCH  27  28
ATOM     28  N   UNL d   1      52.556  31.534  53.453  0.00  0.00    -0.202 NA
ATOM     29  C   UNL d   1      53.287  31.153  53.528  0.00  0.00     0.302 C 
ATOM     30  O   UNL d   1      53.987  31.585  53.430  0.00  0.00    -0.263 OA
BRANCH  29  31
ATOM     31  C   UNL d   1      53.323  30.343  53.699  0.00  0.00     0.158 A 
ATOM     32  O   UNL d   1      53.363  30.023  54.453  0.00  0.00    -0.300 OA
ATOM     33  C   UNL d   1      53.389  29.202  54.380  0.00  0.00     0.123 A 
ATOM     34  C   UNL d   1      53.365  29.026  53.569  0.00  0.00     0.029 A 
ATOM     35  C   UNL d   1      53.324  29.734  53.151  0.00  0.00     0.032 A 
ENDBRANCH  29  31
ENDBRANCH  27  28
ENDBRANCH   3  27
TORSDOF 9
ENDMDL
MODEL 2
REMARK VINA RESULT:      -5.0      1.213      1.724
REMARK  9 active torsions:
REMARK  status: ('A' for Active; 'I' for Inactive)
REMARK    1  A    between atoms: C_6  and  N_1 
REMARK    2  A    between atoms: S_11  and  C_2 
REMARK    3  A    between atoms: C_14  and  C_3 
REMARK       I    between atoms: C_7  and  N_12 
REMARK    4  A    between atoms: C_8  and  C_7 
REMARK    5  A    between atoms: C_9  and  N_10 
REMARK       I    between atoms: N_10  and  C_13 
REMARK    6  A    between atoms: C_24  and  S_11 
REMARK    7  A    between atoms: N_12  and  C_14 
REMARK    8  A    between atoms: C_13  and  C_24 
REMARK    9  A    between atoms: O_28  and  C_19 
ROOT
ATOM      1  N   UNL d   1      52.660  32.753  53.346  0.00  0.00    -0.266 N 
ATOM      2  C   UNL d   1      52.036  33.012  52.867  0.00  0.00     0.201 A 
ATOM      3  C   UNL d   1      52.796  31.950  53.182  0.00  0.00     0.190 A 
ATOM      4  N   UNL d   1      51.781  32.365  52.403  0.00  0.00    -0.121 NA
ATOM      5  N   UNL d   1      52.250  31.711  52.597  0.00  0.00    -0.126 NA
ENDROOT
BRANCH   2   6
ATOM      6  S   UNL d   1      51.721  33.765  52.849  0.00  0.00    -0.043 SA
BRANCH   6   7
ATOM      7  C   UNL d   1      51.194  33.990  52.251  0.00  0.00     0.101 C 
BRANCH   7   8
ATOM      8  C   UNL d   1      50.563  34.480  52.415  0.00  0.00     0.286 C 
ATOM      9  N   UNL d   1      49.838  34.360  52.044  0.00  0.00    -0.208 NA
ATOM     10  O   UNL d   1      50.650  35.102  52.957  0.00  0.00    -0.265 OA
BRANCH   9  11
ATOM     11  C   UNL d   1      49.199  34.857  52.211  0.00  0.00     0.085 A 
ATOM     12  C   UNL d   1      48.642  35.024  51.638  0.00  0.00     0.018 A 
ATOM     13  C   UNL d   1      48.003  35.520  51.804  0.00  0.00     0.002 A 
ATOM     14  C   UNL d   1      48.712  34.697  50.885  0.00  0.00     0.002 C 
ATOM     15  C   UNL d   1      47.933  35.848  52.561  0.00  0.00     0.000 A 
ATOM     16  C   UNL d   1      48.502  35.679  53.150  0.00  0.00     0.002 A 
ATOM     17  C   UNL d   1      49.133  35.181  52.964  0.00  0.00     0.019 A 
ATOM     18  C   UNL d   1      48.430  36.001  53.887  0.00  0.00     0.000 C 
ENDBRANCH   9  11
ENDBRANCH   7   8
ENDBRANCH   6   7
ENDBRANCH   2   6
BRANCH   1  19
ATOM     19  C   UNL d   1      53.071  33.207  53.884  0.00  0.00     0.090 A 
ATOM     20  C   UNL d   1      53.814  33.503  53.679  0.00  0.00     0.110 A 
ATOM     21  C   UNL d   1      54.232  33.962  54.220  0.00  0.00     0.026 A 
ATOM     22  C   UNL d   1      53.907  34.125  54.967  0.00  0.00     0.002 A 
ATOM     23  C   UNL d   1      53.157  33.820  55.160  0.00  0.00     0.002 A 
ATOM     24  C   UNL d   1      52.742  33.362  54.617  0.00  0.00     0.020 A 
BRANCH  20  25
ATOM     25  O   UNL d   1      54.141  33.347  52.944  0.00  0.00    -0.327 OA
ATOM     26  C   UNL d   1      54.913  33.566  52.773  0.00  0.00     0.181 C 
ENDBRANCH  20  25
ENDBRANCH   1  19
BRANCH   3  27
ATOM     27  C   UNL d   1      53.369  31.470  53.534  0.00  0.00     0.141 C 
BRANCH  27  28
ATOM     28  N   UNL d   1      53.148  30.763  53.898  0.00  0.00    -0.202 NA
ATOM     29  C   UNL d   1      53.682  30.130  53.917  0.00  0.00     0.302 C 
ATOM     30  O   UNL d   1      54.430  30.213  53.571  0.00  0.00    -0.263 OA
BRANCH  29  31
ATOM     31  C   UNL d   1      53.473  29.414  54.278  0.00  0.00     0.158 A 
ATOM     32  O   UNL d   1      53.056  28.808  53.916  0.00  0.00    -0.300 OA
ATOM     33  C   UNL d   1      52.964  28.199  54.465  0.00  0.00     0.123 A 
ATOM     34  C   UNL d   1      53.332  28.444  55.169  0.00  0.00     0.029 A 
ATOM     35  C   UNL d   1      53.645  29.196  55.049  0.00  0.00     0.032 A 
ENDBRANCH  29  31
ENDBRANCH  27  28
ENDBRANCH   3  27
TORSDOF 9
ENDMDL
MODEL 3
REMARK VINA RESULT:      -3.8      0.924      6.087
REMARK  9 active torsions:
REMARK  status: ('A' for Active; 'I' for Inactive)
REMARK    1  A    between atoms: C_6  and  N_1 
REMARK    2  A    between atoms: S_11  and  C_2 
REMARK    3  A    between atoms: C_14  and  C_3 
REMARK       I    between atoms: C_7  and  N_12 
REMARK    4  A    between atoms: C_8  and  C_7 
REMARK    5  A    between atoms: C_9  and  N_10 
REMARK       I    between atoms: N_10  and  C_13 
REMARK    6  A    between atoms: C_24  and  S_11 
REMARK    7  A    between atoms: N_12  and  C_14 
REMARK    8  A    between atoms: C_13  and  C_24 
REMARK    9  A    between atoms: O_28  and  C_19 
ROOT
ATOM      1  N   UNL d   1      51.474  33.763  53.373  0.00  0.00    -0.266 N 
ATOM      2  C   UNL d   1      51.593  32.959  53.210  0.00  0.00     0.201 A 
ATOM      3  C   UNL d   1      50.688  33.953  53.180  0.00  0.00     0.190 A 
ATOM      4  N   UNL d   1      50.876  32.647  52.915  0.00  0.00    -0.121 NA
ATOM      5  N   UNL d   1      50.319  33.259  52.896  0.00  0.00    -0.126 NA
ENDROOT
BRANCH   2   6
ATOM      6  S   UNL d   1      52.287  32.542  53.319  0.00  0.00    -0.043 SA
BRANCH   6   7
ATOM      7  C   UNL d   1      52.383  31.788  52.989  0.00  0.00     0.101 C 
BRANCH   7   8
ATOM      8  C   UNL d   1      52.772  31.200  53.400  0.00  0.00     0.286 C 
ATOM      9  N   UNL d   1      52.460  30.440  53.432  0.00  0.00    -0.208 NA
ATOM     10  O   UNL d   1      53.485  31.368  53.789  0.00  0.00    -0.265 OA
BRANCH   9  11
ATOM     11  C   UNL d   1      52.854  29.846  53.849  0.00  0.00     0.085 A 
ATOM     12  C   UNL d   1      53.197  29.219  53.454  0.00  0.00     0.018 A 
ATOM     13  C   UNL d   1      53.591  28.625  53.871  0.00  0.00     0.002 A 
ATOM     14  C   UNL d   1      53.153  29.173  52.633  0.00  0.00     0.002 C 
ATOM     15  C   UNL d   1      53.635  28.671  54.695  0.00  0.00     0.000 A 
ATOM     16  C   UNL d   1      53.285  29.312  55.103  0.00  0.00     0.002 A 
ATOM     17  C   UNL d   1      52.896  29.895  54.668  0.00  0.00     0.019 A 
ATOM     18  C   UNL d   1      53.330  29.354  55.908  0.00  0.00     0.000 C 
ENDBRANCH   9  11
ENDBRANCH   7   8
ENDBRANCH   6   7
ENDBRANCH   2   6
BRANCH   1  19
ATOM     19  C   UNL d   1      52.031  34.279  53.670  0.00  0.00     0.090 A 
ATOM     20  C   UNL d   1      52.517  34.694  53.147  0.00  0.00     0.110 A 
ATOM     21  C   UNL d   1      53.080  35.215  53.444  0.00  0.00     0.026 A 
ATOM     22  C   UNL d   1      53.158  35.323  54.263  0.00  0.00     0.002 A 
ATOM     23  C   UNL d   1      52.662  34.898  54.779  0.00  0.00     0.002 A 
ATOM     24  C   UNL d   1      52.100  34.377  54.479  0.00  0.00     0.020 A 
BRANCH  20  25
ATOM     25  O   UNL d   1      52.446  34.593  52.337  0.00  0.00    -0.327 OA
ATOM     26  C   UNL d   1      52.998  34.917  51.823  0.00  0.00     0.181 C 
ENDBRANCH  20  25
ENDBRANCH   1  19
BRANCH   3  27
ATOM     27  C   UNL d   1      50.333  34.695  53.255  0.00  0.00     0.141 C 
BRANCH  27  28
ATOM     28  N   UNL d   1      49.614  34.847  52.879  0.00  0.00    -0.202 NA
ATOM     29  C   UNL d   1      49.157  35.495  53.120  0.00  0.00     0.302 C 
ATOM     30  O   UNL d   1      49.428  35.981  53.734  0.00  0.00    -0.263 OA
BRANCH  29  31
ATOM     31  C   UNL d   1      48.434  35.659  52.752  0.00  0.00     0.158 A 
ATOM     32  O   UNL d   1      48.249  35.476  51.975  0.00  0.00    -0.300 OA
ATOM     33  C   UNL d   1      47.478  35.732  51.829  0.00  0.00     0.123 A 
ATOM     34  C   UNL d   1      47.195  36.075  52.531  0.00  0.00     0.029 A 
ATOM     35  C   UNL d   1      47.789  36.028  53.100  0.00  0.00     0.032 A 
ENDBRANCH  29  31
ENDBRANCH  27  28
ENDBRANCH   3  27
TORSDOF 9
ENDMDL
