MODEL 1
REMARK VINA RESULT:      -8.4      0.000      0.000
REMARK  2 active torsions:
REMARK  status: ('A' for Active; 'I' for Inactive)
REMARK    1  A    between atoms: C_3  and  C_1 
REMARK       I    between atoms: C_2  and  N_4 
REMARK    2  A    between atoms: N_4  and  C_9 
ROOT
ATOM      1  C   UNL d   1      54.492  33.323  54.695  0.00  0.00     0.065 A 
ATOM      2  C   UNL d   1      54.741  33.199  53.920  0.00  0.00     0.008 A 
ATOM      3  C   UNL d   1      53.971  32.795  55.049  0.00  0.00     0.008 A 
ATOM      4  C   UNL d   1      53.941  32.009  53.849  0.00  0.00     0.085 A 
ATOM      5  C   UNL d   1      54.464  32.538  53.495  0.00  0.00     0.019 A 
ATOM      6  C   UNL d   1      53.696  32.141  54.628  0.00  0.00     0.019 A 
ENDROOT
BRANCH   4   7
ATOM      7  N   UNL d   1      53.664  31.353  53.431  0.00  0.00    -0.208 NA
ATOM      8  C   UNL d   1      52.972  31.417  52.982  0.00  0.00     0.279 C 
ATOM      9  O   UNL d   1      52.696  30.761  52.565  0.00  0.00    -0.265 OA
ATOM     10  C   UNL d   1      52.563  32.130  52.955  0.00  0.00     0.068 C 
ENDBRANCH   4   7
BRANCH   1  11
ATOM     11  C   UNL d   1      54.768  33.981  55.119  0.00  0.00     0.211 C 
ATOM     12  O   UNL d   1      54.266  34.616  55.268  0.00  0.00    -0.644 OA
ATOM     13  O   UNL d   1      55.545  34.000  55.391  0.00  0.00    -0.644 OA
ENDBRANCH   1  11
TORSDOF 2
ENDMDL
MODEL 2
REMARK VINA RESULT:      -7.7      0.953      3.263
REMARK  2 active torsions:
REMARK  status: ('A' for Active; 'I' for Inactive)
REMARK    1  A    between atoms: C_3  and  C_1 
REMARK       I    between atoms: C_2  and  N_4 
REMARK    2  A    between atoms: N_4  and  C_9 
ROOT
ATOM      1  C   UNL d   1      53.158  31.917  53.222  0.00  0.00     0.065 A 
ATOM      2  C   UNL d   1      53.070  32.735  53.196  0.00  0.00     0.008 A 
ATOM      3  C   UNL d   1      53.824  31.587  53.576  0.00  0.00     0.008 A 
ATOM      4  C   UNL d   1      54.321  32.897  53.881  0.00  0.00     0.085 A 
ATOM      5  C   UNL d   1      53.655  33.228  53.528  0.00  0.00     0.019 A 
ATOM      6  C   UNL d   1      54.403  32.074  53.903  0.00  0.00     0.019 A 
ENDROOT
BRANCH   4   7
ATOM      7  N   UNL d   1      54.902  33.382  54.210  0.00  0.00    -0.208 NA
ATOM      8  C   UNL d   1      54.877  33.559  55.018  0.00  0.00     0.279 C 
ATOM      9  O   UNL d   1      55.459  34.044  55.346  0.00  0.00    -0.265 OA
ATOM     10  C   UNL d   1      54.276  33.253  55.488  0.00  0.00     0.068 C 
ENDBRANCH   4   7
BRANCH   1  11
ATOM     11  C   UNL d   1      52.576  31.426  52.892  0.00  0.00     0.211 C 
ATOM     12  O   UNL d   1      52.794  30.793  52.412  0.00  0.00    -0.644 OA
ATOM     13  O   UNL d   1      51.781  31.570  53.045  0.00  0.00    -0.644 OA
ENDBRANCH   1  11
TORSDOF 2
ENDMDL
MODEL 3
REMARK VINA RESULT:      -7.4      2.021      2.211
REMARK  2 active torsions:
REMARK  status: ('A' for Active; 'I' for Inactive)
REMARK    1  A    between atoms: C_3  and  C_1 
REMARK       I    between atoms: C_2  and  N_4 
REMARK    2  A    between atoms: N_4  and  C_9 
ROOT
ATOM      1  C   UNL d   1      53.946  33.707  54.573  0.00  0.00     0.065 A 
ATOM      2  C   UNL d   1      53.878  33.291  53.865  0.00  0.00     0.008 A 
ATOM      3  C   UNL d   1      53.473  34.366  54.709  0.00  0.00     0.008 A 
ATOM      4  C   UNL d   1      52.855  34.197  53.425  0.00  0.00     0.085 A 
ATOM      5  C   UNL d   1      53.329  33.537  53.288  0.00  0.00     0.019 A 
ATOM      6  C   UNL d   1      52.930  34.609  54.138  0.00  0.00     0.019 A 
ENDROOT
BRANCH   4   7
ATOM      7  N   UNL d   1      52.310  34.444  52.856  0.00  0.00    -0.208 NA
ATOM      8  C   UNL d   1      51.576  34.068  52.804  0.00  0.00     0.279 C 
ATOM      9  O   UNL d   1      51.032  34.316  52.235  0.00  0.00    -0.265 OA
ATOM     10  C   UNL d   1      51.390  33.452  53.317  0.00  0.00     0.068 C 
ENDBRANCH   4   7
BRANCH   1  11
ATOM     11  C   UNL d   1      54.493  33.462  55.147  0.00  0.00     0.211 C 
ATOM     12  O   UNL d   1      55.167  33.911  55.293  0.00  0.00    -0.644 OA
ATOM     13  O   UNL d   1      54.361  32.769  55.572  0.00  0.00    -0.644 OA
ENDBRANCH   1  11
TORSDOF 2
ENDMDL
MODEL 4
REMARK VINA RESULT:      -7.3      2.336      3.456
REMARK  2 active torsions:
REMARK  status: ('A' for Active; 'I' for Inactive)
REMARK    1  A    between atoms: C_3  and  C_1 
REMARK       I    between atoms: C_2  and  N_4 
REMARK    2  A    between atoms: N_4  and  C_9 
ROOT
ATOM      1  C   UNL d   1      51.949  34.158  53.142  0.00  0.00     0.065 A 
ATOM      2  C   UNL d   1      52.009  33.455  53.565  0.00  0.00     0.008 A 
ATOM      3  C   UNL d   1      52.474  34.774  53.292  0.00  0.00     0.008 A 
ATOM      4  C   UNL d   1      53.127  33.982  54.296  0.00  0.00     0.085 A 
ATOM      5  C   UNL d   1      52.601  33.366  54.145  0.00  0.00     0.019 A 
ATOM      6  C   UNL d   1      53.060  34.686  53.867  0.00  0.00     0.019 A 
ENDROOT
BRANCH   4   7
ATOM      7  N   UNL d   1      53.714  33.898  54.869  0.00  0.00    -0.208 NA
ATOM      8  C   UNL d   1      54.382  33.440  54.706  0.00  0.00     0.279 C 
ATOM      9  O   UNL d   1      54.969  33.356  55.280  0.00  0.00    -0.265 OA
ATOM     10  C   UNL d   1      54.460  33.070  53.975  0.00  0.00     0.068 C 
ENDBRANCH   4   7
BRANCH   1  11
ATOM     11  C   UNL d   1      51.360  34.247  52.565  0.00  0.00     0.211 C 
ATOM     12  O   UNL d   1      51.553  34.188  51.766  0.00  0.00    -0.644 OA
ATOM     13  O   UNL d   1      50.582  34.392  52.789  0.00  0.00    -0.644 OA
ENDBRANCH   1  11
TORSDOF 2
ENDMDL
