MODEL 1
REMARK VINA RESULT:      20.6      0.000      0.000
REMARK  2 active torsions:
REMARK  status: ('A' for Active; 'I' for Inactive)
REMARK    1  A    between atoms: C_7  and  C_1 
REMARK    2  A    between atoms: C_5  and  C_3 
ROOT
ATOM      1  C   UNL d   1     -55.244-102.037 -36.474  0.00  0.00     0.067 A 
ATOM      2  N   UNL d   1     -54.800-101.020 -37.695  0.00  0.00    -0.244 NA
ATOM      3  C   UNL d   1     -54.954-101.811 -37.861  0.00  0.00     0.104 A 
ATOM      4  C   UNL d   1     -55.176-102.321 -37.253  0.00  0.00     0.027 A 
ATOM      5  C   UNL d   1     -55.090-101.245 -36.309  0.00  0.00     0.024 A 
ATOM      6  C   UNL d   1     -54.868-100.736 -36.915  0.00  0.00     0.082 A 
ATOM      7  C   UNL d   1     -55.157-100.963 -35.536  0.00  0.00     0.002 A 
ATOM      8  C   UNL d   1     -54.711 -99.936 -36.753  0.00  0.00     0.019 A 
ATOM      9  C   UNL d   1     -55.003-100.172 -35.371  0.00  0.00     0.000 A 
ATOM     10  C   UNL d   1     -54.778 -99.655 -35.981  0.00  0.00     0.002 A 
ENDROOT
BRANCH   3  11
ATOM     11  C   UNL d   1     -54.887-102.094 -38.638  0.00  0.00     0.118 A 
ATOM     12  O   UNL d   1     -54.940-102.873 -38.906  0.00  0.00    -0.304 OA
ATOM     13  C   UNL d   1     -54.833-102.860 -39.725  0.00  0.00     0.123 A 
ATOM     14  C   UNL d   1     -54.717-102.088 -39.956  0.00  0.00     0.029 A 
ATOM     15  C   UNL d   1     -54.750-101.614 -39.281  0.00  0.00     0.028 A 
ENDBRANCH   3  11
BRANCH   1  16
ATOM     16  C   UNL d   1     -55.470-102.557 -35.858  0.00  0.00     0.211 C 
ATOM     17  O   UNL d   1     -54.895-102.843 -35.340  0.00  0.00    -0.644 OA
ATOM     18  O   UNL d   1     -56.261-102.779 -35.773  0.00  0.00    -0.644 OA
ENDBRANCH   1  16
TORSDOF 2
ENDMDL
