MODEL 1
REMARK VINA RESULT:      38.7      0.000      0.000
REMARK  5 active torsions:
REMARK  status: ('A' for Active; 'I' for Inactive)
REMARK    1  A    between atoms: C_6  and  C_1 
REMARK    2  A    between atoms: C_3  and  C_5 
REMARK    3  A    between atoms: C_5  and  C_6 
REMARK    4  A    between atoms: C_17  and  C_13 
REMARK    5  A    between atoms: C_20  and  C_17 
ROOT
ATOM      1  C   UNL d   1     -55.811-102.771 -39.759  0.00  0.00     0.201 C 
ATOM      2  O   UNL d   1     -56.475-102.863 -40.247  0.00  0.00    -0.286 OA
ENDROOT
BRANCH   1   3
ATOM      3  C   UNL d   1     -55.913-102.794 -38.941  0.00  0.00     0.078 A 
ATOM      4  C   UNL d   1     -56.679-102.848 -38.620  0.00  0.00     0.202 A 
ATOM      5  C   UNL d   1     -56.780-102.871 -37.802  0.00  0.00     0.084 A 
ATOM      6  O   UNL d   1     -57.332-102.876 -39.123  0.00  0.00    -0.286 OA
ATOM      7  C   UNL d   1     -56.131-102.842 -37.307  0.00  0.00     0.199 A 
ATOM      8  C   UNL d   1     -55.364-102.789 -37.628  0.00  0.00     0.039 A 
ATOM      9  O   UNL d   1     -56.245-102.867 -36.483  0.00  0.00    -0.286 OA
ATOM     10  C   UNL d   1     -55.271-102.766 -38.428  0.00  0.00     0.010 A 
BRANCH   8  11
ATOM     11  C   UNL d   1     -54.720-102.761 -37.110  0.00  0.00     0.003 C 
BRANCH  11  12
ATOM     12  C   UNL d   1     -54.796-102.481 -36.339  0.00  0.00     0.000 C 
ATOM     13  C   UNL d   1     -54.887-101.681 -36.178  0.00  0.00     0.000 C 
ENDBRANCH  11  12
ENDBRANCH   8  11
ENDBRANCH   1   3
BRANCH   1  14
ATOM     14  C   UNL d   1     -55.064-102.657 -40.098  0.00  0.00     0.068 C 
BRANCH  14  15
ATOM     15  C   UNL d   1     -54.983-102.329 -40.842  0.00  0.00     0.114 A 
ATOM     16  N   UNL d   1     -54.934-101.522 -41.014  0.00  0.00    -0.238 NA
ATOM     17  C   UNL d   1     -54.858-101.448 -41.833  0.00  0.00     0.088 A 
ATOM     18  C   UNL d   1     -54.787-100.789 -42.313  0.00  0.00     0.020 A 
ATOM     19  C   UNL d   1     -54.858-102.198 -42.165  0.00  0.00     0.049 A 
ATOM     20  C   UNL d   1     -54.716-100.868 -43.134  0.00  0.00     0.002 A 
ATOM     21  C   UNL d   1     -54.718-101.633 -43.463  0.00  0.00     0.001 A 
ATOM     22  C   UNL d   1     -54.788-102.293 -42.983  0.00  0.00     0.008 A 
ATOM     23  S   UNL d   1     -54.936-102.763 -41.556  0.00  0.00    -0.066 SA
ENDBRANCH  14  15
ENDBRANCH   1  14
TORSDOF 5
ENDMDL
