MODEL 1
REMARK VINA RESULT:      -9.1      0.000      0.000
REMARK  2 active torsions:
REMARK  status: ('A' for Active; 'I' for Inactive)
REMARK    1  A    between atoms: C_4  and  C_1 
REMARK    2  A    between atoms: C_2  and  C_7 
ROOT
ATOM      1  C   UNL d   1     -48.495  12.919  22.354  0.00  0.00     0.003 A 
ATOM      2  C   UNL d   1     -49.768  12.330  22.622  0.00  0.00     0.071 A 
ATOM      3  C   UNL d   1     -49.050  12.625  22.895  0.00  0.00     0.004 A 
ATOM      4  C   UNL d   1     -48.657  12.919  21.551  0.00  0.00     0.000 A 
ATOM      5  C   UNL d   1     -49.938  12.327  21.812  0.00  0.00     0.004 A 
ATOM      6  C   UNL d   1     -49.376  12.624  21.274  0.00  0.00    -0.000 A 
ENDROOT
BRANCH   1   7
ATOM      7  C   UNL d   1     -47.777  13.214  22.631  0.00  0.00     0.042 A 
ATOM      8  C   UNL d   1     -47.183  12.693  22.876  0.00  0.00     0.045 A 
ATOM      9  C   UNL d   1     -46.464  12.988  23.153  0.00  0.00     0.196 A 
ATOM     10  O   UNL d   1     -45.870  12.468  23.399  0.00  0.00    -0.287 OA
ATOM     11  C   UNL d   1     -46.338  13.803  23.184  0.00  0.00     0.045 A 
ATOM     12  C   UNL d   1     -46.932  14.323  22.939  0.00  0.00     0.045 A 
ATOM     13  C   UNL d   1     -47.651  14.029  22.662  0.00  0.00     0.196 A 
ATOM     14  O   UNL d   1     -48.245  14.549  22.416  0.00  0.00    -0.287 OA
ENDBRANCH   1   7
BRANCH   2  15
ATOM     15  C   UNL d   1     -50.325  12.036  23.156  0.00  0.00     0.419 C 
ATOM     16  F   UNL d   1     -50.832  11.770  23.642  0.00  0.00    -0.166 F 
ATOM     17  F   UNL d   1     -50.352  11.269  23.549  0.00  0.00    -0.166 F 
ATOM     18  F   UNL d   1     -51.040  12.415  23.472  0.00  0.00    -0.166 F 
ENDBRANCH   2  15
TORSDOF 2
ENDMDL
MODEL 2
REMARK VINA RESULT:      -8.9      2.522      3.645
REMARK  2 active torsions:
REMARK  status: ('A' for Active; 'I' for Inactive)
REMARK    1  A    between atoms: C_4  and  C_1 
REMARK    2  A    between atoms: C_2  and  C_7 
ROOT
ATOM      1  C   UNL d   1     -47.925  13.282  22.611  0.00  0.00     0.003 A 
ATOM      2  C   UNL d   1     -46.507  13.421  22.508  0.00  0.00     0.071 A 
ATOM      3  C   UNL d   1     -47.183  12.955  22.440  0.00  0.00     0.004 A 
ATOM      4  C   UNL d   1     -47.991  14.063  22.847  0.00  0.00     0.000 A 
ATOM      5  C   UNL d   1     -46.567  14.211  22.746  0.00  0.00     0.004 A 
ATOM      6  C   UNL d   1     -47.317  14.533  22.917  0.00  0.00    -0.000 A 
ENDROOT
BRANCH   1   7
ATOM      7  C   UNL d   1     -48.600  12.813  22.542  0.00  0.00     0.042 A 
ATOM      8  C   UNL d   1     -48.797  12.279  23.143  0.00  0.00     0.045 A 
ATOM      9  C   UNL d   1     -49.472  11.810  23.073  0.00  0.00     0.196 A 
ATOM     10  O   UNL d   1     -49.669  11.277  23.674  0.00  0.00    -0.287 OA
ATOM     11  C   UNL d   1     -49.950  11.873  22.404  0.00  0.00     0.045 A 
ATOM     12  C   UNL d   1     -49.752  12.407  21.803  0.00  0.00     0.045 A 
ATOM     13  C   UNL d   1     -49.078  12.876  21.873  0.00  0.00     0.196 A 
ATOM     14  O   UNL d   1     -48.881  13.409  21.272  0.00  0.00    -0.287 OA
ENDBRANCH   1   7
BRANCH   2  15
ATOM     15  C   UNL d   1     -45.766  13.101  22.340  0.00  0.00     0.419 C 
ATOM     16  F   UNL d   1     -45.090  12.809  22.187  0.00  0.00    -0.166 F 
ATOM     17  F   UNL d   1     -45.218  13.297  21.703  0.00  0.00    -0.166 F 
ATOM     18  F   UNL d   1     -45.327  12.476  22.755  0.00  0.00    -0.166 F 
ENDBRANCH   2  15
TORSDOF 2
ENDMDL
MODEL 3
REMARK VINA RESULT:      -8.9      2.566      3.740
REMARK  2 active torsions:
REMARK  status: ('A' for Active; 'I' for Inactive)
REMARK    1  A    between atoms: C_4  and  C_1 
REMARK    2  A    between atoms: C_2  and  C_7 
ROOT
ATOM      1  C   UNL d   1     -47.977  12.449  23.129  0.00  0.00     0.003 A 
ATOM      2  C   UNL d   1     -46.637  12.876  22.878  0.00  0.00     0.071 A 
ATOM      3  C   UNL d   1     -47.447  12.977  22.772  0.00  0.00     0.004 A 
ATOM      4  C   UNL d   1     -47.700  11.828  23.586  0.00  0.00     0.000 A 
ATOM      5  C   UNL d   1     -46.351  12.251  23.337  0.00  0.00     0.004 A 
ATOM      6  C   UNL d   1     -46.889  11.723  23.693  0.00  0.00    -0.000 A 
ENDROOT
BRANCH   1   7
ATOM      7  C   UNL d   1     -48.788  12.553  23.021  0.00  0.00     0.042 A 
ATOM      8  C   UNL d   1     -49.181  13.171  23.407  0.00  0.00     0.045 A 
ATOM      9  C   UNL d   1     -49.992  13.275  23.299  0.00  0.00     0.196 A 
ATOM     10  O   UNL d   1     -50.385  13.892  23.684  0.00  0.00    -0.287 OA
ATOM     11  C   UNL d   1     -50.410  12.763  22.806  0.00  0.00     0.045 A 
ATOM     12  C   UNL d   1     -50.017  12.145  22.421  0.00  0.00     0.045 A 
ATOM     13  C   UNL d   1     -49.206  12.041  22.528  0.00  0.00     0.196 A 
ATOM     14  O   UNL d   1     -48.813  11.424  22.143  0.00  0.00    -0.287 OA
ENDBRANCH   1   7
BRANCH   2  15
ATOM     15  C   UNL d   1     -46.105  13.399  22.525  0.00  0.00     0.419 C 
ATOM     16  F   UNL d   1     -45.622  13.877  22.205  0.00  0.00    -0.166 F 
ATOM     17  F   UNL d   1     -45.619  13.291  21.821  0.00  0.00    -0.166 F 
ATOM     18  F   UNL d   1     -45.885  14.205  22.763  0.00  0.00    -0.166 F 
ENDBRANCH   2  15
TORSDOF 2
ENDMDL
MODEL 4
REMARK VINA RESULT:      -8.7      1.870      2.309
REMARK  2 active torsions:
REMARK  status: ('A' for Active; 'I' for Inactive)
REMARK    1  A    between atoms: C_4  and  C_1 
REMARK    2  A    between atoms: C_2  and  C_7 
ROOT
ATOM      1  C   UNL d   1     -48.456  13.093  22.569  0.00  0.00     0.003 A 
ATOM      2  C   UNL d   1     -49.239  14.288  22.565  0.00  0.00     0.071 A 
ATOM      3  C   UNL d   1     -48.694  13.796  22.938  0.00  0.00     0.004 A 
ATOM      4  C   UNL d   1     -48.759  12.885  21.837  0.00  0.00     0.000 A 
ATOM      5  C   UNL d   1     -49.548  14.084  21.826  0.00  0.00     0.004 A 
ATOM      6  C   UNL d   1     -49.305  13.375  21.461  0.00  0.00    -0.000 A 
ENDROOT
BRANCH   1   7
ATOM      7  C   UNL d   1     -47.910  12.603  22.945  0.00  0.00     0.042 A 
ATOM      8  C   UNL d   1     -47.108  12.801  22.948  0.00  0.00     0.045 A 
ATOM      9  C   UNL d   1     -46.562  12.311  23.324  0.00  0.00     0.196 A 
ATOM     10  O   UNL d   1     -45.759  12.510  23.326  0.00  0.00    -0.287 OA
ATOM     11  C   UNL d   1     -46.817  11.622  23.698  0.00  0.00     0.045 A 
ATOM     12  C   UNL d   1     -47.620  11.423  23.696  0.00  0.00     0.045 A 
ATOM     13  C   UNL d   1     -48.166  11.913  23.319  0.00  0.00     0.196 A 
ATOM     14  O   UNL d   1     -48.969  11.714  23.317  0.00  0.00    -0.287 OA
ENDBRANCH   1   7
BRANCH   2  15
ATOM     15  C   UNL d   1     -49.479  14.989  22.928  0.00  0.00     0.419 C 
ATOM     16  F   UNL d   1     -49.697  15.628  23.257  0.00  0.00    -0.166 F 
ATOM     17  F   UNL d   1     -50.111  15.119  23.500  0.00  0.00    -0.166 F 
ATOM     18  F   UNL d   1     -49.164  15.794  22.836  0.00  0.00    -0.166 F 
ENDBRANCH   2  15
TORSDOF 2
ENDMDL
MODEL 5
REMARK VINA RESULT:      -8.2      1.575      2.207
REMARK  2 active torsions:
REMARK  status: ('A' for Active; 'I' for Inactive)
REMARK    1  A    between atoms: C_4  and  C_1 
REMARK    2  A    between atoms: C_2  and  C_7 
ROOT
ATOM      1  C   UNL d   1     -48.741  12.177  23.133  0.00  0.00     0.003 A 
ATOM      2  C   UNL d   1     -49.773  12.531  22.212  0.00  0.00     0.071 A 
ATOM      3  C   UNL d   1     -48.973  12.452  22.387  0.00  0.00     0.004 A 
ATOM      4  C   UNL d   1     -49.301  11.983  23.698  0.00  0.00     0.000 A 
ATOM      5  C   UNL d   1     -50.345  12.337  22.778  0.00  0.00     0.004 A 
ATOM      6  C   UNL d   1     -50.104  12.061  23.527  0.00  0.00    -0.000 A 
ENDROOT
BRANCH   1   7
ATOM      7  C   UNL d   1     -47.938  12.099  23.305  0.00  0.00     0.042 A 
ATOM      8  C   UNL d   1     -47.469  12.772  23.409  0.00  0.00     0.045 A 
ATOM      9  C   UNL d   1     -46.666  12.695  23.580  0.00  0.00     0.196 A 
ATOM     10  O   UNL d   1     -46.198  13.368  23.684  0.00  0.00    -0.287 OA
ATOM     11  C   UNL d   1     -46.331  11.944  23.648  0.00  0.00     0.045 A 
ATOM     12  C   UNL d   1     -46.799  11.270  23.544  0.00  0.00     0.045 A 
ATOM     13  C   UNL d   1     -47.602  11.348  23.372  0.00  0.00     0.196 A 
ATOM     14  O   UNL d   1     -48.071  10.675  23.268  0.00  0.00    -0.287 OA
ENDBRANCH   1   7
BRANCH   2  15
ATOM     15  C   UNL d   1     -50.010  12.804  21.471  0.00  0.00     0.419 C 
ATOM     16  F   UNL d   1     -50.226  13.051  20.795  0.00  0.00    -0.166 F 
ATOM     17  F   UNL d   1     -50.101  13.614  21.191  0.00  0.00    -0.166 F 
ATOM     18  F   UNL d   1     -50.235  12.353  20.763  0.00  0.00    -0.166 F 
ENDBRANCH   2  15
TORSDOF 2
ENDMDL
