MODEL 1
REMARK VINA RESULT:      -1.1      0.000      0.000
REMARK  4 active torsions:
REMARK  status: ('A' for Active; 'I' for Inactive)
REMARK    1  A    between atoms: C_8  and  N_1 
REMARK    2  A    between atoms: C_6  and  C_3 
REMARK       I    between atoms: N_9  and  C_6 
REMARK    3  A    between atoms: C_13  and  N_9 
REMARK    4  A    between atoms: C_14  and  C_13 
ROOT
ATOM      1  N   UNL d   1      32.591  18.236 -23.817  0.00  0.00    -0.276 N 
ATOM      2  C   UNL d   1      32.559  17.449 -23.563  0.00  0.00     0.181 A 
ATOM      3  C   UNL d   1      32.317  16.982 -24.192  0.00  0.00     0.126 A 
ATOM      4  C   UNL d   1      32.364  18.249 -24.615  0.00  0.00     0.152 A 
ATOM      5  S   UNL d   1      32.194  17.473 -24.848  0.00  0.00    -0.051 SA
ATOM      6  S   UNL d   1      32.316  18.924 -25.097  0.00  0.00    -0.052 SA
ATOM      7  N   UNL d   1      32.741  17.182 -22.803  0.00  0.00    -0.128 N 
ENDROOT
BRANCH   3   8
ATOM      8  C   UNL d   1      32.210  16.161 -24.182  0.00  0.00     0.288 C 
ATOM      9  N   UNL d   1      31.450  15.846 -24.121  0.00  0.00    -0.204 NA
ATOM     10  O   UNL d   1      32.859  15.656 -24.234  0.00  0.00    -0.265 OA
BRANCH   9  11
ATOM     11  C   UNL d   1      30.793  16.351 -24.068  0.00  0.00     0.127 C 
BRANCH  11  12
ATOM     12  C   UNL d   1      30.030  16.045 -24.052  0.00  0.00     0.119 A 
ATOM     13  O   UNL d   1      29.546  15.927 -24.707  0.00  0.00    -0.304 OA
ATOM     14  C   UNL d   1      28.824  15.609 -24.447  0.00  0.00     0.123 A 
ATOM     15  C   UNL d   1      28.873  15.535 -23.620  0.00  0.00     0.029 A 
ATOM     16  C   UNL d   1      29.614  15.803 -23.378  0.00  0.00     0.028 A 
ENDBRANCH  11  12
ENDBRANCH   9  11
ENDBRANCH   3   8
BRANCH   1  17
ATOM     17  C   UNL d   1      32.808  18.895 -23.364  0.00  0.00     0.067 A 
ATOM     18  C   UNL d   1      32.808  18.848 -22.547  0.00  0.00     0.018 A 
ATOM     19  C   UNL d   1      33.025  19.506 -22.094  0.00  0.00     0.002 A 
ATOM     20  C   UNL d   1      33.241  20.206 -22.472  0.00  0.00     0.000 A 
ATOM     21  C   UNL d   1      33.239  20.249 -23.307  0.00  0.00     0.002 A 
ATOM     22  C   UNL d   1      33.023  19.592 -23.745  0.00  0.00     0.018 A 
ENDBRANCH   1  17
TORSDOF 4
ENDMDL
MODEL 2
REMARK VINA RESULT:      -0.4      1.725      2.369
REMARK  4 active torsions:
REMARK  status: ('A' for Active; 'I' for Inactive)
REMARK    1  A    between atoms: C_8  and  N_1 
REMARK    2  A    between atoms: C_6  and  C_3 
REMARK       I    between atoms: N_9  and  C_6 
REMARK    3  A    between atoms: C_13  and  N_9 
REMARK    4  A    between atoms: C_14  and  C_13 
ROOT
ATOM      1  N   UNL d   1      32.817  19.784 -22.511  0.00  0.00    -0.276 N 
ATOM      2  C   UNL d   1      32.682  19.757 -23.327  0.00  0.00     0.181 A 
ATOM      3  C   UNL d   1      32.826  18.994 -23.590  0.00  0.00     0.126 A 
ATOM      4  C   UNL d   1      33.048  19.022 -22.273  0.00  0.00     0.152 A 
ATOM      5  S   UNL d   1      33.054  18.534 -22.941  0.00  0.00    -0.051 SA
ATOM      6  S   UNL d   1      33.241  18.792 -21.499  0.00  0.00    -0.052 SA
ATOM      7  N   UNL d   1      32.442  20.394 -23.795  0.00  0.00    -0.128 N 
ENDROOT
BRANCH   3   8
ATOM      8  C   UNL d   1      32.758  18.722 -24.369  0.00  0.00     0.288 C 
ATOM      9  N   UNL d   1      32.204  18.139 -24.554  0.00  0.00    -0.204 NA
ATOM     10  O   UNL d   1      33.240  19.029 -24.962  0.00  0.00    -0.265 OA
BRANCH   9  11
ATOM     11  C   UNL d   1      31.715  17.826 -23.960  0.00  0.00     0.127 C 
BRANCH  11  12
ATOM     12  C   UNL d   1      31.103  17.310 -24.150  0.00  0.00     0.119 A 
ATOM     13  O   UNL d   1      31.192  16.524 -24.380  0.00  0.00    -0.304 OA
ATOM     14  C   UNL d   1      30.439  16.204 -24.519  0.00  0.00     0.123 A 
ATOM     15  C   UNL d   1      29.885  16.807 -24.370  0.00  0.00     0.029 A 
ATOM     16  C   UNL d   1      30.295  17.486 -24.143  0.00  0.00     0.028 A 
ENDBRANCH  11  12
ENDBRANCH   9  11
ENDBRANCH   3   8
BRANCH   1  17
ATOM     17  C   UNL d   1      32.740  20.443 -22.017  0.00  0.00     0.067 A 
ATOM     18  C   UNL d   1      32.168  20.450 -21.431  0.00  0.00     0.018 A 
ATOM     19  C   UNL d   1      32.090  21.109 -20.936  0.00  0.00     0.002 A 
ATOM     20  C   UNL d   1      32.590  21.756 -21.038  0.00  0.00     0.000 A 
ATOM     21  C   UNL d   1      33.173  21.744 -21.639  0.00  0.00     0.002 A 
ATOM     22  C   UNL d   1      33.241  21.088 -22.122  0.00  0.00     0.018 A 
ENDBRANCH   1  17
TORSDOF 4
ENDMDL
MODEL 3
REMARK VINA RESULT:      -0.2      2.645      3.974
REMARK  4 active torsions:
REMARK  status: ('A' for Active; 'I' for Inactive)
REMARK    1  A    between atoms: C_8  and  N_1 
REMARK    2  A    between atoms: C_6  and  C_3 
REMARK       I    between atoms: N_9  and  C_6 
REMARK    3  A    between atoms: C_13  and  N_9 
REMARK    4  A    between atoms: C_14  and  C_13 
ROOT
ATOM      1  N   UNL d   1      32.856  21.464 -21.737  0.00  0.00    -0.276 N 
ATOM      2  C   UNL d   1      32.819  20.713 -21.392  0.00  0.00     0.181 A 
ATOM      3  C   UNL d   1      33.053  20.159 -21.950  0.00  0.00     0.126 A 
ATOM      4  C   UNL d   1      33.116  21.365 -22.520  0.00  0.00     0.152 A 
ATOM      5  S   UNL d   1      33.238  20.558 -22.651  0.00  0.00    -0.051 SA
ATOM      6  S   UNL d   1      33.234  21.973 -23.073  0.00  0.00    -0.052 SA
ATOM      7  N   UNL d   1      32.587  20.551 -20.617  0.00  0.00    -0.128 N 
ENDROOT
BRANCH   3   8
ATOM      8  C   UNL d   1      33.099  19.339 -21.839  0.00  0.00     0.288 C 
ATOM      9  N   UNL d   1      33.005  18.832 -22.483  0.00  0.00    -0.204 NA
ATOM     10  O   UNL d   1      33.238  19.027 -21.089  0.00  0.00    -0.265 OA
BRANCH   9  11
ATOM     11  C   UNL d   1      32.864  19.142 -23.240  0.00  0.00     0.127 C 
BRANCH  11  12
ATOM     12  C   UNL d   1      32.596  18.657 -23.848  0.00  0.00     0.119 A 
ATOM     13  O   UNL d   1      31.929  18.177 -23.821  0.00  0.00    -0.304 OA
ATOM     14  C   UNL d   1      31.858  17.781 -24.548  0.00  0.00     0.123 A 
ATOM     15  C   UNL d   1      32.495  18.028 -25.022  0.00  0.00     0.029 A 
ATOM     16  C   UNL d   1      32.949  18.566 -24.592  0.00  0.00     0.028 A 
ENDBRANCH  11  12
ENDBRANCH   9  11
ENDBRANCH   3   8
BRANCH   1  17
ATOM     17  C   UNL d   1      32.669  22.185 -21.376  0.00  0.00     0.067 A 
ATOM     18  C   UNL d   1      31.921  22.505 -21.464  0.00  0.00     0.018 A 
ATOM     19  C   UNL d   1      31.733  23.226 -21.104  0.00  0.00     0.002 A 
ATOM     20  C   UNL d   1      32.303  23.618 -20.657  0.00  0.00     0.000 A 
ATOM     21  C   UNL d   1      33.067  23.287 -20.569  0.00  0.00     0.002 A 
ATOM     22  C   UNL d   1      33.241  22.574 -20.930  0.00  0.00     0.018 A 
ENDBRANCH   1  17
TORSDOF 4
ENDMDL
MODEL 4
REMARK VINA RESULT:       1.0      5.041      6.439
REMARK  4 active torsions:
REMARK  status: ('A' for Active; 'I' for Inactive)
REMARK    1  A    between atoms: C_8  and  N_1 
REMARK    2  A    between atoms: C_6  and  C_3 
REMARK       I    between atoms: N_9  and  C_6 
REMARK    3  A    between atoms: C_13  and  N_9 
REMARK    4  A    between atoms: C_14  and  C_13 
ROOT
ATOM      1  N   UNL d   1      32.385  22.629 -20.133  0.00  0.00    -0.276 N 
ATOM      2  C   UNL d   1      32.729  21.976 -20.506  0.00  0.00     0.181 A 
ATOM      3  C   UNL d   1      32.476  21.958 -21.286  0.00  0.00     0.126 A 
ATOM      4  C   UNL d   1      31.913  23.017 -20.696  0.00  0.00     0.152 A 
ATOM      5  S   UNL d   1      31.970  22.602 -21.409  0.00  0.00    -0.051 SA
ATOM      6  S   UNL d   1      31.464  23.702 -20.565  0.00  0.00    -0.052 SA
ATOM      7  N   UNL d   1      33.241  21.434 -20.150  0.00  0.00    -0.128 N 
ENDROOT
BRANCH   3   8
ATOM      8  C   UNL d   1      32.686  21.398 -21.858  0.00  0.00     0.288 C 
ATOM      9  N   UNL d   1      32.934  21.645 -22.604  0.00  0.00    -0.204 NA
ATOM     10  O   UNL d   1      32.647  20.592 -21.686  0.00  0.00    -0.265 OA
BRANCH   9  11
ATOM     11  C   UNL d   1      32.974  22.455 -22.782  0.00  0.00     0.127 C 
BRANCH  11  12
ATOM     12  C   UNL d   1      33.076  22.709 -23.558  0.00  0.00     0.119 A 
ATOM     13  O   UNL d   1      33.145  22.222 -24.217  0.00  0.00    -0.304 OA
ATOM     14  C   UNL d   1      33.240  22.700 -24.890  0.00  0.00     0.123 A 
ATOM     15  C   UNL d   1      33.227  23.491 -24.631  0.00  0.00     0.029 A 
ATOM     16  C   UNL d   1      33.126  23.496 -23.812  0.00  0.00     0.028 A 
ENDBRANCH  11  12
ENDBRANCH   9  11
ENDBRANCH   3   8
BRANCH   1  17
ATOM     17  C   UNL d   1      32.487  22.861 -19.345  0.00  0.00     0.067 A 
ATOM     18  C   UNL d   1      31.989  22.568 -18.765  0.00  0.00     0.018 A 
ATOM     19  C   UNL d   1      32.090  22.799 -17.976  0.00  0.00     0.002 A 
ATOM     20  C   UNL d   1      32.694  23.324 -17.780  0.00  0.00     0.000 A 
ATOM     21  C   UNL d   1      33.201  23.621 -18.377  0.00  0.00     0.002 A 
ATOM     22  C   UNL d   1      33.091  23.385 -19.153  0.00  0.00     0.018 A 
ENDBRANCH   1  17
TORSDOF 4
ENDMDL
