MODEL 1
REMARK VINA RESULT:      -2.0      0.000      0.000
REMARK  2 active torsions:
REMARK  status: ('A' for Active; 'I' for Inactive)
REMARK    1  A    between atoms: CA_2  and  C_1 
REMARK    2  A    between atoms: C_3  and  CA_2 
ROOT
ATOM      1  C   UNL d   1      23.971  12.872  -1.148  0.00  0.00     0.053 A 
ATOM      2  C   UNL d   1      24.473  13.335  -1.621  0.00  0.00     0.142 A 
ATOM      3  F   UNL d   1      24.674  14.099  -1.382  0.00  0.00    -0.204 F 
ATOM      4  C   UNL d   1      23.769  12.101  -1.389  0.00  0.00     0.004 A 
ATOM      5  C   UNL d   1      24.768  13.024  -2.329  0.00  0.00     0.030 A 
ATOM      6  C   UNL d   1      24.071  11.799  -2.102  0.00  0.00     0.000 A 
ATOM      7  C   UNL d   1      24.568  12.260  -2.568  0.00  0.00     0.002 A 
ENDROOT
BRANCH   1   8
ATOM      8  CA  UNL d   1      23.674  13.175  -0.443  0.00  0.00     0.169 C 
ATOM      9  N   UNL d   1      24.102  13.740  -0.021  0.00  0.00    -0.142 N 
BRANCH   8  10
ATOM     10  C   UNL d   1      22.946  12.910  -0.160  0.00  0.00     0.231 C 
ATOM     11  O   UNL d   1      22.818  12.110  -0.017  0.00  0.00    -0.643 OA
ATOM     12  OXT UNL d   1      22.339  13.452  -0.019  0.00  0.00    -0.643 OA
ENDBRANCH   8  10
ENDBRANCH   1   8
TORSDOF 2
ENDMDL
MODEL 2
REMARK VINA RESULT:      -1.0      1.688      2.505
REMARK  2 active torsions:
REMARK  status: ('A' for Active; 'I' for Inactive)
REMARK    1  A    between atoms: CA_2  and  C_1 
REMARK    2  A    between atoms: C_3  and  CA_2 
ROOT
ATOM      1  C   UNL d   1      24.037  13.008  -0.830  0.00  0.00     0.053 A 
ATOM      2  C   UNL d   1      23.305  12.963  -0.439  0.00  0.00     0.142 A 
ATOM      3  F   UNL d   1      22.873  12.261  -0.458  0.00  0.00    -0.204 F 
ATOM      4  C   UNL d   1      24.474  13.717  -0.811  0.00  0.00     0.004 A 
ATOM      5  C   UNL d   1      23.017  13.624  -0.035  0.00  0.00     0.030 A 
ATOM      6  C   UNL d   1      24.175  14.376  -0.401  0.00  0.00     0.000 A 
ATOM      7  C   UNL d   1      23.449  14.327  -0.015  0.00  0.00     0.002 A 
ENDROOT
BRANCH   1   8
ATOM      8  CA  UNL d   1      24.330  12.354  -1.235  0.00  0.00     0.169 C 
ATOM      9  N   UNL d   1      24.768  11.781  -0.835  0.00  0.00    -0.142 N 
BRANCH   8  10
ATOM     10  C   UNL d   1      24.182  12.275  -2.043  0.00  0.00     0.231 C 
ATOM     11  O   UNL d   1      23.481  11.938  -2.309  0.00  0.00    -0.643 OA
ATOM     12  OXT UNL d   1      24.742  12.538  -2.590  0.00  0.00    -0.643 OA
ENDBRANCH   8  10
ENDBRANCH   1   8
TORSDOF 2
ENDMDL
