MODEL 1
REMARK VINA RESULT:       8.9      0.000      0.000
REMARK  5 active torsions:
REMARK  status: ('A' for Active; 'I' for Inactive)
REMARK    1  A    between atoms: N_2  and  C_1 
REMARK    2  A    between atoms: C_5  and  C_1 
REMARK    3  A    between atoms: O_4  and  N_2 
REMARK    4  A    between atoms: C_3  and  O_4 
REMARK    5  A    between atoms: C_6  and  C_3 
ROOT
ATOM      1  O   UNL d   1      46.011 -16.930  43.915  0.00  0.00    -0.168 OA
ENDROOT
BRANCH   1   2
ATOM      2  C   UNL d   1      46.237 -17.794  44.104  0.00  0.00     0.319 C 
ATOM      3  O   UNL d   1      46.350 -18.060  44.955  0.00  0.00    -0.257 OA
BRANCH   2   4
ATOM      4  C   UNL d   1      46.339 -18.338  43.488  0.00  0.00     0.065 A 
ATOM      5  C   UNL d   1      46.523 -18.055  42.728  0.00  0.00     0.005 A 
ATOM      6  C   UNL d   1      46.624 -18.610  42.116  0.00  0.00     0.000 A 
ATOM      7  C   UNL d   1      46.544 -19.417  42.253  0.00  0.00     0.000 A 
ATOM      8  C   UNL d   1      46.361 -19.666  43.018  0.00  0.00     0.000 A 
ATOM      9  C   UNL d   1      46.647 -19.954  41.635  0.00  0.00     0.000 C 
ATOM     10  C   UNL d   1      46.259 -19.144  43.624  0.00  0.00     0.005 A 
ENDBRANCH   2   4
ENDBRANCH   1   2
BRANCH   1  11
ATOM     11  N   UNL d   1      45.952 -16.370  44.505  0.00  0.00    -0.100 NA
BRANCH  11  12
ATOM     12  C   UNL d   1      45.402 -15.764  44.467  0.00  0.00     0.228 C 
ATOM     13  N   UNL d   1      44.619 -15.943  44.286  0.00  0.00    -0.123 N 
BRANCH  12  14
ATOM     14  C   UNL d   1      45.612 -14.986  44.604  0.00  0.00     0.121 A 
ATOM     15  N   UNL d   1      46.388 -14.790  44.760  0.00  0.00    -0.241 NA
ATOM     16  C   UNL d   1      46.596 -13.994  44.900  0.00  0.00     0.099 A 
ATOM     17  C   UNL d   1      46.013 -13.409  44.878  0.00  0.00     0.021 A 
ATOM     18  C   UNL d   1      45.223 -13.610  44.718  0.00  0.00     0.003 A 
ATOM     19  C   UNL d   1      45.029 -14.400  44.582  0.00  0.00     0.022 A 
ENDBRANCH  12  14
ENDBRANCH  11  12
ENDBRANCH   1  11
TORSDOF 5
ENDMDL
