MODEL 1
REMARK VINA RESULT:      39.6      0.000      0.000
REMARK  7 active torsions:
REMARK  status: ('A' for Active; 'I' for Inactive)
REMARK    1  A    between atoms: N_2  and  C_1 
REMARK    2  A    between atoms: S_4  and  C_3 
REMARK    3  A    between atoms: C_6  and  S_4 
REMARK    4  A    between atoms: C_5  and  C_8 
REMARK    5  A    between atoms: C_9  and  C_6 
REMARK    6  A    between atoms: O_14  and  C_9 
REMARK    7  A    between atoms: C_12  and  O_14 
ROOT
ATOM      1  S   UNL d   1      15.110  15.608  -0.890  0.00  0.00     0.096 S 
ATOM      2  O   UNL d   1      15.601  15.956  -0.335  0.00  0.00    -0.247 OA
ENDROOT
BRANCH   1   3
ATOM      3  C   UNL d   1      15.058  15.929  -1.652  0.00  0.00     0.082 A 
ATOM      4  C   UNL d   1      15.244  16.735  -1.786  0.00  0.00     0.135 A 
ATOM      5  C   UNL d   1      15.188  17.042  -2.550  0.00  0.00     0.028 A 
ATOM      6  C   UNL d   1      14.953  16.568  -3.182  0.00  0.00     0.073 A 
ATOM      7  C   UNL d   1      14.770  15.770  -3.048  0.00  0.00     0.005 A 
ATOM      8  C   UNL d   1      14.822  15.450  -2.284  0.00  0.00     0.011 A 
BRANCH   4   9
ATOM      9  N   UNL d   1      15.479  17.208  -1.153  0.00  0.00    -0.113 N 
ATOM     10  O   UNL d   1      14.900  17.553  -0.661  0.00  0.00    -0.532 OA
ATOM     11  O   UNL d   1      16.285  17.342  -1.006  0.00  0.00    -0.532 OA
ENDBRANCH   4   9
BRANCH   6  12
ATOM     12  C   UNL d   1      14.898  16.876  -3.945  0.00  0.00     0.419 C 
ATOM     13  F   UNL d   1      14.749  16.450  -4.692  0.00  0.00    -0.166 F 
ATOM     14  F   UNL d   1      14.845  17.144  -4.648  0.00  0.00    -0.166 F 
ATOM     15  F   UNL d   1      14.969  17.695  -4.225  0.00  0.00    -0.166 F 
ENDBRANCH   6  12
ENDBRANCH   1   3
BRANCH   1  16
ATOM     16  C   UNL d   1      14.667  14.940  -0.694  0.00  0.00     0.137 C 
BRANCH  16  17
ATOM     17  C   UNL d   1      15.050  14.251  -0.443  0.00  0.00     0.309 C 
ATOM     18  O   UNL d   1      15.848  14.136  -0.620  0.00  0.00    -0.258 OA
BRANCH  17  19
ATOM     19  O   UNL d   1      14.635  13.679  -0.016  0.00  0.00    -0.273 OA
BRANCH  19  20
ATOM     20  C   UNL d   1      14.521  13.050  -0.292  0.00  0.00     0.103 A 
ATOM     21  C   UNL d   1      15.012  12.733  -0.673  0.00  0.00     0.025 A 
ATOM     22  C   UNL d   1      14.900  12.098  -0.953  0.00  0.00     0.002 A 
ATOM     23  C   UNL d   1      15.392  11.781  -1.335  0.00  0.00     0.000 C 
ATOM     24  C   UNL d   1      14.283  11.782  -0.844  0.00  0.00     0.000 A 
ATOM     25  C   UNL d   1      13.778  12.103  -0.454  0.00  0.00     0.002 A 
ATOM     26  C   UNL d   1      13.903  12.734  -0.182  0.00  0.00     0.025 A 
ATOM     27  C   UNL d   1      13.150  11.781  -0.343  0.00  0.00     0.000 C 
ENDBRANCH  19  20
ENDBRANCH  17  19
ENDBRANCH  16  17
ENDBRANCH   1  16
TORSDOF 7
ENDMDL
