MODEL 1
REMARK VINA RESULT:      -4.6      0.000      0.000
REMARK  1 active torsions:
REMARK  status: ('A' for Active; 'I' for Inactive)
REMARK       I    between atoms: N_2  and  C_1 
REMARK    1  A    between atoms: C_5  and  N_2 
ROOT
ATOM      1  C   UNL d   1      56.690  -0.109  31.782  0.00  0.00     0.100 A 
ATOM      2  C   UNL d   1      55.729  -0.254  33.119  0.00  0.00     0.058 A 
ATOM      3 CL   UNL d   1      55.250  -0.324  33.785  0.00  0.00    -0.082 Cl
ATOM      4  C   UNL d   1      56.579  -0.851  32.139  0.00  0.00     0.021 A 
ATOM      5  C   UNL d   1      56.320   0.557  32.097  0.00  0.00     0.021 A 
ATOM      6  C   UNL d   1      56.099  -0.920  32.805  0.00  0.00     0.013 A 
ATOM      7  C   UNL d   1      55.838   0.483  32.768  0.00  0.00     0.013 A 
ENDROOT
BRANCH   1   8
ATOM      8  N   UNL d   1      57.172  -0.043  31.114  0.00  0.00    -0.056 NA
ATOM      9  C   UNL d   1      57.907   0.322  31.168  0.00  0.00     0.787 C 
ATOM     10  N   UNL d   1      58.390   0.391  30.505  0.00  0.00     0.064 N 
ATOM     11  N   UNL d   1      58.159   0.621  31.895  0.00  0.00     0.064 N 
ENDBRANCH   1   8
TORSDOF 1
ENDMDL
MODEL 2
REMARK VINA RESULT:      -3.8      8.868      9.415
REMARK  1 active torsions:
REMARK  status: ('A' for Active; 'I' for Inactive)
REMARK       I    between atoms: N_2  and  C_1 
REMARK    1  A    between atoms: C_5  and  N_2 
ROOT
ATOM      1  C   UNL d   1      59.734  -7.918  36.125  0.00  0.00     0.100 A 
ATOM      2  C   UNL d   1      60.429  -6.420  36.209  0.00  0.00     0.058 A 
ATOM      3 CL   UNL d   1      60.773  -5.674  36.251  0.00  0.00    -0.082 Cl
ATOM      4  C   UNL d   1      60.544  -7.842  36.288  0.00  0.00     0.021 A 
ATOM      5  C   UNL d   1      59.274  -7.243  36.005  0.00  0.00     0.021 A 
ATOM      6  C   UNL d   1      60.889  -7.095  36.329  0.00  0.00     0.013 A 
ATOM      7  C   UNL d   1      59.625  -6.493  36.048  0.00  0.00     0.013 A 
ENDROOT
BRANCH   1   8
ATOM      8  N   UNL d   1      59.391  -8.668  36.084  0.00  0.00    -0.056 NA
ATOM      9  C   UNL d   1      59.357  -9.070  35.367  0.00  0.00     0.787 C 
ATOM     10  N   UNL d   1      59.017  -9.818  35.322  0.00  0.00     0.064 N 
ATOM     11  N   UNL d   1      59.667  -8.716  34.689  0.00  0.00     0.064 N 
ENDBRANCH   1   8
TORSDOF 1
ENDMDL
MODEL 3
REMARK VINA RESULT:      -3.4      2.026      2.826
REMARK  1 active torsions:
REMARK  status: ('A' for Active; 'I' for Inactive)
REMARK       I    between atoms: N_2  and  C_1 
REMARK    1  A    between atoms: C_5  and  N_2 
ROOT
ATOM      1  C   UNL d   1      56.753   0.489  32.287  0.00  0.00     0.100 A 
ATOM      2  C   UNL d   1      58.119   0.618  31.365  0.00  0.00     0.058 A 
ATOM      3 CL   UNL d   1      58.800   0.682  30.908  0.00  0.00    -0.082 Cl
ATOM      4  C   UNL d   1      56.707   0.426  31.461  0.00  0.00     0.021 A 
ATOM      5  C   UNL d   1      57.483   0.616  32.649  0.00  0.00     0.021 A 
ATOM      6  C   UNL d   1      57.389   0.491  31.003  0.00  0.00     0.013 A 
ATOM      7  C   UNL d   1      58.167   0.680  32.185  0.00  0.00     0.013 A 
ENDROOT
BRANCH   1   8
ATOM      8  N   UNL d   1      56.067   0.424  32.743  0.00  0.00    -0.056 NA
ATOM      9  C   UNL d   1      55.813  -0.313  33.008  0.00  0.00     0.787 C 
ATOM     10  N   UNL d   1      55.131  -0.382  33.463  0.00  0.00     0.064 N 
ATOM     11  N   UNL d   1      56.250  -0.986  32.815  0.00  0.00     0.064 N 
ENDBRANCH   1   8
TORSDOF 1
ENDMDL
MODEL 4
REMARK VINA RESULT:      -2.9      8.860      9.419
REMARK  1 active torsions:
REMARK  status: ('A' for Active; 'I' for Inactive)
REMARK       I    between atoms: N_2  and  C_1 
REMARK    1  A    between atoms: C_5  and  N_2 
ROOT
ATOM      1  C   UNL d   1      60.378  -7.747  35.955  0.00  0.00     0.100 A 
ATOM      2  C   UNL d   1      59.521  -9.091  35.517  0.00  0.00     0.058 A 
ATOM      3 CL   UNL d   1      59.096  -9.761  35.298  0.00  0.00    -0.082 Cl
ATOM      4  C   UNL d   1      59.657  -7.922  36.327  0.00  0.00     0.021 A 
ATOM      5  C   UNL d   1      60.668  -8.246  35.365  0.00  0.00     0.021 A 
ATOM      6  C   UNL d   1      59.231  -8.593  36.107  0.00  0.00     0.013 A 
ATOM      7  C   UNL d   1      60.236  -8.919  35.147  0.00  0.00     0.013 A 
ENDROOT
BRANCH   1   8
ATOM      8  N   UNL d   1      60.802  -7.074  36.178  0.00  0.00    -0.056 NA
ATOM      9  C   UNL d   1      60.463  -6.328  36.109  0.00  0.00     0.787 C 
ATOM     10  N   UNL d   1      60.882  -5.656  36.330  0.00  0.00     0.064 N 
ATOM     11  N   UNL d   1      59.695  -6.258  35.815  0.00  0.00     0.064 N 
ENDBRANCH   1   8
TORSDOF 1
ENDMDL
MODEL 5
REMARK VINA RESULT:      -2.2      3.966      4.699
REMARK  1 active torsions:
REMARK  status: ('A' for Active; 'I' for Inactive)
REMARK       I    between atoms: N_2  and  C_1 
REMARK    1  A    between atoms: C_5  and  N_2 
ROOT
ATOM      1  C   UNL d   1      58.936  -1.329  28.764  0.00  0.00     0.100 A 
ATOM      2  C   UNL d   1      59.788  -2.728  28.991  0.00  0.00     0.058 A 
ATOM      3 CL   UNL d   1      60.210  -3.425  29.105  0.00  0.00    -0.082 Cl
ATOM      4  C   UNL d   1      59.717  -1.393  28.488  0.00  0.00     0.021 A 
ATOM      5  C   UNL d   1      58.585  -1.966  29.152  0.00  0.00     0.021 A 
ATOM      6  C   UNL d   1      60.139  -2.091  28.602  0.00  0.00     0.013 A 
ATOM      7  C   UNL d   1      59.014  -2.667  29.265  0.00  0.00     0.013 A 
ENDROOT
BRANCH   1   8
ATOM      8  N   UNL d   1      58.516  -0.628  28.648  0.00  0.00    -0.056 NA
ATOM      9  C   UNL d   1      58.563  -0.019  29.200  0.00  0.00     0.787 C 
ATOM     10  N   UNL d   1      58.145   0.680  29.087  0.00  0.00     0.064 N 
ATOM     11  N   UNL d   1      59.034  -0.116  29.870  0.00  0.00     0.064 N 
ENDBRANCH   1   8
TORSDOF 1
ENDMDL
MODEL 6
REMARK VINA RESULT:      -2.1      4.593      5.281
REMARK  1 active torsions:
REMARK  status: ('A' for Active; 'I' for Inactive)
REMARK       I    between atoms: N_2  and  C_1 
REMARK    1  A    between atoms: C_5  and  N_2 
ROOT
ATOM      1  C   UNL d   1      59.735  -2.726  28.694  0.00  0.00     0.100 A 
ATOM      2  C   UNL d   1      58.922  -1.368  29.173  0.00  0.00     0.058 A 
ATOM      3 CL   UNL d   1      58.518  -0.692  29.410  0.00  0.00    -0.082 Cl
ATOM      4  C   UNL d   1      59.028  -2.792  29.123  0.00  0.00     0.021 A 
ATOM      5  C   UNL d   1      60.033  -1.980  28.506  0.00  0.00     0.021 A 
ATOM      6  C   UNL d   1      58.624  -2.114  29.361  0.00  0.00     0.013 A 
ATOM      7  C   UNL d   1      59.623  -1.300  28.747  0.00  0.00     0.013 A 
ENDROOT
BRANCH   1   8
ATOM      8  N   UNL d   1      60.137  -3.408  28.457  0.00  0.00    -0.056 NA
ATOM      9  C   UNL d   1      60.729  -3.726  28.932  0.00  0.00     0.787 C 
ATOM     10  N   UNL d   1      61.132  -4.405  28.699  0.00  0.00     0.064 N 
ATOM     11  N   UNL d   1      60.917  -3.359  29.646  0.00  0.00     0.064 N 
ENDBRANCH   1   8
TORSDOF 1
ENDMDL
