MODEL 1
REMARK VINA RESULT:      43.8      0.000      0.000
REMARK  3 active torsions:
REMARK  status: ('A' for Active; 'I' for Inactive)
REMARK    1  A    between atoms: C_12  and  C_5 
REMARK    2  A    between atoms: C_14  and  C_12 
REMARK    3  A    between atoms: C_15  and  C_14 
ROOT
ATOM      1  C   UNL d   1      60.799  49.362  52.152  0.00  0.00     0.206 A 
ATOM      2  C   UNL d   1      60.028  49.504  51.896  0.00  0.00     0.063 A 
ATOM      3  C   UNL d   1      60.472  49.481  50.548  0.00  0.00     0.111 A 
ATOM      4  C   UNL d   1      61.240  49.339  50.803  0.00  0.00     0.214 A 
ATOM      5  C   UNL d   1      59.865  49.564  51.099  0.00  0.00     0.018 A 
ATOM      6  O   UNL d   1      61.400  49.280  51.610  0.00  0.00    -0.268 OA
ATOM      7  N   UNL d   1      60.807  49.330  52.947  0.00  0.00    -0.123 NA
ATOM      8  N   UNL d   1      60.060  49.447  53.220  0.00  0.00    -0.146 NA
ATOM      9  C   UNL d   1      59.565  49.558  52.576  0.00  0.00     0.106 A 
ATOM     10  C   UNL d   1      60.312  49.540  49.741  0.00  0.00     0.105 C 
ATOM     11  N   UNL d   1      60.152  49.598  48.946  0.00  0.00    -0.191 NA
ATOM     12  N   UNL d   1      61.825  49.259  50.272  0.00  0.00    -0.120 N 
ATOM     13  C   UNL d   1      58.673  49.705  52.720  0.00  0.00     0.023 C 
ENDROOT
BRANCH   5  14
ATOM     14  C   UNL d   1      59.108  49.704  50.847  0.00  0.00     0.001 C 
BRANCH  14  15
ATOM     15  C   UNL d   1      58.496  49.141  50.426  0.00  0.00     0.000 C 
BRANCH  15  16
ATOM     16  C   UNL d   1      57.676  49.230  50.387  0.00  0.00     0.000 A 
ATOM     17  C   UNL d   1      57.256  48.993  49.700  0.00  0.00     0.000 A 
ATOM     18  C   UNL d   1      56.449  49.085  49.672  0.00  0.00     0.000 A 
ATOM     19  C   UNL d   1      56.037  49.414  50.322  0.00  0.00     0.000 A 
ATOM     20  C   UNL d   1      56.451  49.647  50.997  0.00  0.00     0.000 A 
ATOM     21  C   UNL d   1      57.272  49.551  51.020  0.00  0.00     0.000 A 
ENDBRANCH  15  16
ENDBRANCH  14  15
ENDBRANCH   5  14
TORSDOF 3
ENDMDL
