MODEL 1
REMARK VINA RESULT:       3.9      0.000      0.000
REMARK  4 active torsions:
REMARK  status: ('A' for Active; 'I' for Inactive)
REMARK    1  A    between atoms: N_3  and  S_1 
REMARK    2  A    between atoms: C_6  and  S_1 
REMARK       I    between atoms: C_2  and  N_4 
REMARK       I    between atoms: N_5  and  C_2 
REMARK    3  A    between atoms: C_14  and  N_5 
REMARK    4  A    between atoms: C_15  and  N_5 
ROOT
ATOM      1  C   UNL d   1      59.303   0.379  31.104  0.00  0.00     0.339 C 
ATOM      2  N   UNL d   1      57.391   0.396  32.676  0.00  0.00    -0.226 N 
ATOM      3  N   UNL d   1      58.656   0.385  31.636  0.00  0.00    -0.254 N 
ATOM      4  N   UNL d   1      59.219   0.106  30.336  0.00  0.00    -0.260 N 
ATOM      5  C   UNL d   1      58.136   0.672  32.930  0.00  0.00     0.111 A 
ATOM      6  C   UNL d   1      57.291   0.118  31.908  0.00  0.00     0.111 A 
ATOM      7  O   UNL d   1      60.038   0.656  31.365  0.00  0.00    -0.245 OA
ATOM      8  C   UNL d   1      57.922   0.113  31.389  0.00  0.00     0.104 A 
ATOM      9  C   UNL d   1      58.767   0.667  32.411  0.00  0.00     0.104 A 
ENDROOT
BRANCH   4  10
ATOM     10  C   UNL d   1      58.469  -0.174  30.078  0.00  0.00     0.068 A 
ATOM     11  C   UNL d   1      57.933   0.366  29.731  0.00  0.00     0.018 A 
ATOM     12  C   UNL d   1      57.189   0.098  29.472  0.00  0.00     0.002 A 
ATOM     13  C   UNL d   1      56.986  -0.710  29.562  0.00  0.00     0.000 A 
ATOM     14  C   UNL d   1      57.527  -1.245  29.910  0.00  0.00     0.002 A 
ATOM     15  C   UNL d   1      58.277  -0.970  30.170  0.00  0.00     0.018 A 
ENDBRANCH   4  10
BRANCH   4  16
ATOM     16  C   UNL d   1      59.854   0.106  29.830  0.00  0.00     0.068 A 
ATOM     17  C   UNL d   1      59.866   0.625  29.185  0.00  0.00     0.018 A 
ATOM     18  C   UNL d   1      60.503   0.627  28.673  0.00  0.00     0.002 A 
ATOM     19  C   UNL d   1      61.133   0.113  28.799  0.00  0.00     0.000 A 
ATOM     20  C   UNL d   1      61.119  -0.403  29.442  0.00  0.00     0.002 A 
ATOM     21  C   UNL d   1      60.480  -0.402  29.952  0.00  0.00     0.018 A 
ENDBRANCH   4  16
BRANCH   2  22
ATOM     22  S   UNL d   1      56.754   0.401  33.200  0.00  0.00     0.271 S 
ATOM     23  O   UNL d   1      56.888   0.418  34.013  0.00  0.00    -0.200 OA
ATOM     24  O   UNL d   1      55.983   0.391  32.913  0.00  0.00    -0.200 OA
BRANCH  22  25
ATOM     25  C   UNL d   1      56.117   0.407  33.724  0.00  0.00     0.104 A 
ATOM     26  C   UNL d   1      56.222   0.140  34.504  0.00  0.00     0.013 A 
ATOM     27  C   UNL d   1      55.585   0.145  35.028  0.00  0.00     0.001 A 
ATOM     28  C   UNL d   1      54.843   0.418  34.773  0.00  0.00     0.000 A 
ATOM     29  C   UNL d   1      54.746   0.682  33.996  0.00  0.00     0.001 A 
ATOM     30  C   UNL d   1      54.206   0.424  35.297  0.00  0.00     0.000 C 
ATOM     31  C   UNL d   1      55.380   0.676  33.475  0.00  0.00     0.013 A 
ENDBRANCH  22  25
ENDBRANCH   2  22
TORSDOF 4
ENDMDL
