MODEL 1
REMARK VINA RESULT:      -3.8      0.000      0.000
REMARK  3 active torsions:
REMARK  status: ('A' for Active; 'I' for Inactive)
REMARK    1  A    between atoms: N_6  and  C_1 
REMARK       I    between atoms: C_8  and  N_6 
REMARK       I    between atoms: C_11  and  N_7 
REMARK    2  A    between atoms: C_14  and  C_8 
REMARK    3  A    between atoms: O_23  and  C_20 
ROOT
ATOM      1  C   UNL d   1     -41.342-122.667 -51.551  0.00  0.00     0.124 A 
ATOM      2  C   UNL d   1     -41.288-121.938 -51.936  0.00  0.00     0.093 A 
ATOM      3  C   UNL d   1     -41.413-122.877 -52.870  0.00  0.00     0.049 A 
ATOM      4  C   UNL d   1     -41.334-122.078 -52.760  0.00  0.00     0.021 A 
ATOM      5  S   UNL d   1     -41.419-123.255 -52.132  0.00  0.00    -0.066 SA
ATOM      6  N   UNL d   1     -41.450-122.678 -54.293  0.00  0.00    -0.272 N 
ATOM      7  C   UNL d   1     -41.473-123.192 -53.653  0.00  0.00     0.089 A 
ATOM      8  C   UNL d   1     -41.205-121.207 -51.569  0.00  0.00     0.103 C 
ATOM      9  C   UNL d   1     -41.508-122.973 -55.065  0.00  0.00     0.265 C 
ATOM     10  N   UNL d   1     -41.123-120.481 -51.205  0.00  0.00    -0.191 NA
ATOM     11  C   UNL d   1     -41.309-121.552 -53.403  0.00  0.00     0.020 A 
ATOM     12  C   UNL d   1     -41.368-121.860 -54.169  0.00  0.00     0.083 A 
ATOM     13  O   UNL d   1     -41.588-123.783 -55.189  0.00  0.00    -0.267 OA
ATOM     14  C   UNL d   1     -41.485-122.459 -55.710  0.00  0.00     0.066 C 
ENDROOT
BRANCH   1  15
ATOM     15  N   UNL d   1     -41.321-122.795 -50.729  0.00  0.00    -0.201 NA
ATOM     16  C   UNL d   1     -41.916-123.242 -50.376  0.00  0.00     0.280 C 
ATOM     17  O   UNL d   1     -42.528-123.565 -50.819  0.00  0.00    -0.265 OA
BRANCH  16  18
ATOM     18  C   UNL d   1     -41.896-123.368 -49.563  0.00  0.00     0.058 A 
ATOM     19  C   UNL d   1     -42.588-123.399 -49.134  0.00  0.00     0.007 A 
ATOM     20  C   UNL d   1     -42.568-123.526 -48.313  0.00  0.00     0.024 A 
ATOM     21  C   UNL d   1     -41.844-123.620 -47.937  0.00  0.00     0.094 A 
ATOM     22  C   UNL d   1     -41.145-123.591 -48.366  0.00  0.00     0.024 A 
ATOM     23  C   UNL d   1     -41.165-123.465 -49.179  0.00  0.00     0.007 A 
BRANCH  21  24
ATOM     24  O   UNL d   1     -41.824-123.748 -47.111  0.00  0.00    -0.328 OA
ATOM     25  C   UNL d   1     -41.123-123.629 -46.681  0.00  0.00     0.181 C 
ENDBRANCH  21  24
ENDBRANCH  16  18
ENDBRANCH   1  15
TORSDOF 3
ENDMDL
