MODEL 1
REMARK VINA RESULT:      51.6      0.000      0.000
REMARK  3 active torsions:
REMARK  status: ('A' for Active; 'I' for Inactive)
REMARK    1  A    between atoms: C_6  and  C_1 
REMARK    2  A    between atoms: C_12  and  C_6 
REMARK    3  A    between atoms: C_9  and  C_10 
ROOT
ATOM      1  C   UNL d   1     -55.809 -99.864 -43.937  0.00  0.00     0.139 A 
ATOM      2  C   UNL d   1     -55.215-101.055 -43.938  0.00  0.00     0.064 A 
ATOM      3  C   UNL d   1     -55.392-100.402 -44.407  0.00  0.00     0.220 A 
ATOM      4  C   UNL d   1     -55.518-100.927 -43.181  0.00  0.00     0.106 A 
ATOM      5  O   UNL d   1     -55.886-100.187 -43.182  0.00  0.00    -0.304 OA
ATOM      6  C   UNL d   1     -55.417-101.494 -42.603  0.00  0.00     0.067 A 
ATOM      7  C   UNL d   1     -54.812-101.753 -44.109  0.00  0.00     0.009 A 
ATOM      8  O   UNL d   1     -55.195-100.294 -45.201  0.00  0.00    -0.284 OA
ATOM      9  C   UNL d   1     -55.015-102.193 -42.774  0.00  0.00     0.198 A 
ATOM     10  C   UNL d   1     -54.715-102.320 -43.523  0.00  0.00     0.042 A 
ATOM     11  O   UNL d   1     -54.916-102.763 -42.188  0.00  0.00    -0.286 OA
ENDROOT
BRANCH   1  12
ATOM     12  C   UNL d   1     -56.099 -99.130 -44.178  0.00  0.00     0.028 C 
BRANCH  12  13
ATOM     13  C   UNL d   1     -56.870 -99.057 -44.472  0.00  0.00     0.002 A 
ATOM     14  C   UNL d   1     -57.483 -98.894 -43.950  0.00  0.00    -0.000 A 
ATOM     15  C   UNL d   1     -58.251 -98.819 -44.227  0.00  0.00    -0.004 A 
ATOM     16  C   UNL d   1     -58.409 -98.908 -45.041  0.00  0.00    -0.023 A 
ATOM     17  C   UNL d   1     -57.788 -99.072 -45.563  0.00  0.00    -0.004 A 
ATOM     18  C   UNL d   1     -57.017 -99.145 -45.270  0.00  0.00    -0.000 A 
BRANCH  16  19
ATOM     19  C   UNL d   1     -59.187 -98.832 -45.324  0.00  0.00     0.019 C 
ATOM     20  C   UNL d   1     -59.955 -98.758 -45.601  0.00  0.00     0.004 C 
ATOM     21  C   UNL d   1     -58.896 -98.755 -46.095  0.00  0.00     0.004 C 
ATOM     22  C   UNL d   1     -59.465 -98.911 -44.552  0.00  0.00     0.004 C 
ENDBRANCH  16  19
ENDBRANCH  12  13
ENDBRANCH   1  12
TORSDOF 3
ENDMDL
