MODEL 1
REMARK VINA RESULT:      -3.7      0.000      0.000
REMARK  7 active torsions:
REMARK  status: ('A' for Active; 'I' for Inactive)
REMARK    1  A    between atoms: N_4  and  C_1 
REMARK       I    between atoms: C_3  and  N_4 
REMARK    2  A    between atoms: C_8  and  C_3 
REMARK    3  A    between atoms: S_10  and  C_5 
REMARK    4  A    between atoms: C_9  and  C_15 
REMARK       I    between atoms: N_12  and  C_9 
REMARK    5  A    between atoms: C_15  and  S_10 
REMARK    6  A    between atoms: C_17  and  N_12 
REMARK    7  A    between atoms: O_18  and  C_13 
ROOT
ATOM      1  C   UNL d   1     -41.206-122.386 -50.543  0.00  0.00     0.219 A 
ATOM      2  S   UNL d   1     -41.131-122.791 -51.257  0.00  0.00    -0.019 SA
ATOM      3  C   UNL d   1     -41.175-122.250 -51.874  0.00  0.00     0.165 A 
ATOM      4  N   UNL d   1     -41.298-121.582 -50.723  0.00  0.00    -0.120 NA
ATOM      5  N   UNL d   1     -41.278-121.498 -51.544  0.00  0.00    -0.133 NA
ENDROOT
BRANCH   1   6
ATOM      6  N   UNL d   1     -41.193-122.725 -49.786  0.00  0.00    -0.181 NA
ATOM      7  C   UNL d   1     -41.896-122.771 -49.350  0.00  0.00     0.283 C 
ATOM      8  O   UNL d   1     -42.599-122.484 -49.665  0.00  0.00    -0.265 OA
BRANCH   7   9
ATOM      9  C   UNL d   1     -41.886-123.108 -48.594  0.00  0.00     0.080 A 
ATOM     10  C   UNL d   1     -42.552-123.478 -48.309  0.00  0.00     0.099 A 
ATOM     11  C   UNL d   1     -42.546-123.817 -47.552  0.00  0.00     0.024 A 
ATOM     12  C   UNL d   1     -41.869-123.778 -47.095  0.00  0.00     0.002 A 
ATOM     13  C   UNL d   1     -41.191-123.399 -47.390  0.00  0.00     0.000 A 
ATOM     14  C   UNL d   1     -41.206-123.066 -48.142  0.00  0.00     0.007 A 
BRANCH  10  15
ATOM     15  O   UNL d   1     -43.242-123.522 -48.767  0.00  0.00    -0.328 OA
ATOM     16  C   UNL d   1     -43.940-123.814 -48.450  0.00  0.00     0.181 C 
ENDBRANCH  10  15
ENDBRANCH   7   9
ENDBRANCH   1   6
BRANCH   3  17
ATOM     17  S   UNL d   1     -41.123-122.429 -52.678  0.00  0.00    -0.054 SA
BRANCH  17  18
ATOM     18  C   UNL d   1     -41.792-122.728 -53.073  0.00  0.00     0.100 C 
BRANCH  18  19
ATOM     19  C   UNL d   1     -41.847-122.664 -53.892  0.00  0.00     0.286 C 
ATOM     20  N   UNL d   1     -42.307-122.066 -54.232  0.00  0.00    -0.208 NA
ATOM     21  O   UNL d   1     -41.443-123.196 -54.386  0.00  0.00    -0.265 OA
BRANCH  20  22
ATOM     22  C   UNL d   1     -42.368-121.994 -55.043  0.00  0.00     0.085 A 
ATOM     23  C   UNL d   1     -41.825-121.615 -55.547  0.00  0.00     0.019 A 
ATOM     24  C   UNL d   1     -42.107-121.675 -56.317  0.00  0.00     0.002 A 
ATOM     25  C   UNL d   1     -42.825-122.090 -56.301  0.00  0.00     0.002 A 
ATOM     26  C   UNL d   1     -42.981-122.285 -55.510  0.00  0.00     0.019 A 
ENDBRANCH  20  22
ENDBRANCH  18  19
ENDBRANCH  17  18
ENDBRANCH   3  17
TORSDOF 7
ENDMDL
MODEL 2
REMARK VINA RESULT:      -2.6      1.139      6.190
REMARK  7 active torsions:
REMARK  status: ('A' for Active; 'I' for Inactive)
REMARK    1  A    between atoms: N_4  and  C_1 
REMARK       I    between atoms: C_3  and  N_4 
REMARK    2  A    between atoms: C_8  and  C_3 
REMARK    3  A    between atoms: S_10  and  C_5 
REMARK    4  A    between atoms: C_9  and  C_15 
REMARK       I    between atoms: N_12  and  C_9 
REMARK    5  A    between atoms: C_15  and  S_10 
REMARK    6  A    between atoms: C_17  and  N_12 
REMARK    7  A    between atoms: O_18  and  C_13 
ROOT
ATOM      1  C   UNL d   1     -41.173-122.922 -52.820  0.00  0.00     0.219 A 
ATOM      2  S   UNL d   1     -41.222-122.517 -52.104  0.00  0.00    -0.019 SA
ATOM      3  C   UNL d   1     -41.207-123.062 -51.490  0.00  0.00     0.165 A 
ATOM      4  N   UNL d   1     -41.128-123.731 -52.645  0.00  0.00    -0.120 NA
ATOM      5  N   UNL d   1     -41.149-123.817 -51.824  0.00  0.00    -0.133 NA
ENDROOT
BRANCH   1   6
ATOM      6  N   UNL d   1     -41.171-122.579 -53.576  0.00  0.00    -0.181 NA
ATOM      7  C   UNL d   1     -41.835-122.669 -54.064  0.00  0.00     0.283 C 
ATOM      8  O   UNL d   1     -42.489-123.092 -53.801  0.00  0.00    -0.265 OA
BRANCH   7   9
ATOM      9  C   UNL d   1     -41.836-122.328 -54.819  0.00  0.00     0.080 A 
ATOM     10  C   UNL d   1     -42.487-121.914 -55.073  0.00  0.00     0.099 A 
ATOM     11  C   UNL d   1     -42.492-121.571 -55.829  0.00  0.00     0.024 A 
ATOM     12  C   UNL d   1     -41.839-121.653 -56.315  0.00  0.00     0.002 A 
ATOM     13  C   UNL d   1     -41.175-122.077 -56.051  0.00  0.00     0.000 A 
ATOM     14  C   UNL d   1     -41.180-122.413 -55.300  0.00  0.00     0.007 A 
BRANCH  10  15
ATOM     15  O   UNL d   1     -43.152-121.828 -54.585  0.00  0.00    -0.328 OA
ATOM     16  C   UNL d   1     -43.900-121.725 -54.907  0.00  0.00     0.181 C 
ENDBRANCH  10  15
ENDBRANCH   7   9
ENDBRANCH   1   6
BRANCH   3  17
ATOM     17  S   UNL d   1     -41.245-122.884 -50.685  0.00  0.00    -0.054 SA
BRANCH  17  18
ATOM     18  C   UNL d   1     -41.902-123.135 -50.241  0.00  0.00     0.100 C 
BRANCH  18  19
ATOM     19  C   UNL d   1     -41.852-123.175 -49.421  0.00  0.00     0.286 C 
ATOM     20  N   UNL d   1     -42.373-123.658 -48.996  0.00  0.00    -0.208 NA
ATOM     21  O   UNL d   1     -41.280-122.735 -49.009  0.00  0.00    -0.265 OA
BRANCH  20  22
ATOM     22  C   UNL d   1     -42.332-123.706 -48.183  0.00  0.00     0.085 A 
ATOM     23  C   UNL d   1     -42.975-123.771 -47.659  0.00  0.00     0.019 A 
ATOM     24  C   UNL d   1     -42.678-123.802 -46.893  0.00  0.00     0.002 A 
ATOM     25  C   UNL d   1     -41.851-123.758 -46.931  0.00  0.00     0.002 A 
ATOM     26  C   UNL d   1     -41.643-123.698 -47.731  0.00  0.00     0.019 A 
ENDBRANCH  20  22
ENDBRANCH  18  19
ENDBRANCH  17  18
ENDBRANCH   3  17
TORSDOF 7
ENDMDL
