MODEL 1
REMARK VINA RESULT:      73.1      0.000      0.000
REMARK  9 active torsions:
REMARK  status: ('A' for Active; 'I' for Inactive)
REMARK    1  A    between atoms: C_7  and  C_1 
REMARK    2  A    between atoms: C_9  and  N_2 
REMARK    3  A    between atoms: C_14  and  C_7 
REMARK    4  A    between atoms: C_8  and  C_9 
REMARK       I    between atoms: N_11  and  C_8 
REMARK    5  A    between atoms: C_10  and  N_11 
REMARK    6  A    between atoms: O_30  and  C_19 
REMARK    7  A    between atoms: O_31  and  C_20 
REMARK    8  A    between atoms: C_32  and  C_25 
REMARK    9  A    between atoms: C_33  and  C_29 
ROOT
ATOM      1  C   UNL d   1      46.083 -17.102  42.474  0.00  0.00     0.095 A 
ATOM      2  N   UNL d   1      45.856 -18.233  41.635  0.00  0.00    -0.300 N 
ATOM      3  C   UNL d   1      46.190 -17.631  43.130  0.00  0.00     0.202 A 
ATOM      4  C   UNL d   1      45.916 -17.403  41.726  0.00  0.00     0.087 A 
ATOM      5  C   UNL d   1      46.125 -18.458  43.011  0.00  0.00     0.055 A 
ATOM      6  C   UNL d   1      45.958 -18.771  42.268  0.00  0.00     0.067 A 
ATOM      7  C   UNL d   1      45.898 -19.589  42.172  0.00  0.00     0.018 A 
ATOM      8  C   UNL d   1      46.230 -18.991  43.656  0.00  0.00     0.005 A 
ATOM      9  O   UNL d   1      46.354 -17.334  43.866  0.00  0.00    -0.286 OA
ATOM     10  C   UNL d   1      46.167 -19.806  43.545  0.00  0.00     0.000 A 
ATOM     11  C   UNL d   1      46.003 -20.103  42.809  0.00  0.00     0.002 A 
ENDROOT
BRANCH   2  12
ATOM     12  C   UNL d   1      45.689 -18.534  40.887  0.00  0.00     0.144 C 
BRANCH  12  13
ATOM     13  C   UNL d   1      45.776 -18.059  40.223  0.00  0.00     0.297 C 
ATOM     14  N   UNL d   1      45.114 -17.725  39.866  0.00  0.00    -0.207 NA
ATOM     15  O   UNL d   1      46.524 -17.916  39.917  0.00  0.00    -0.264 OA
BRANCH  14  16
ATOM     16  C   UNL d   1      45.205 -17.246  39.197  0.00  0.00     0.089 A 
ATOM     17  C   UNL d   1      45.877 -16.795  39.110  0.00  0.00     0.043 A 
ATOM     18  C   UNL d   1      45.972 -16.321  38.453  0.00  0.00     0.098 A 
ATOM     19  C   UNL d   1      45.378 -16.296  37.867  0.00  0.00     0.049 A 
ATOM     20  C   UNL d   1      44.701 -16.753  37.958  0.00  0.00     0.098 A 
ATOM     21  C   UNL d   1      44.610 -17.233  38.627  0.00  0.00     0.043 A 
BRANCH  18  22
ATOM     22  O   UNL d   1      46.647 -15.867  38.364  0.00  0.00    -0.328 OA
ATOM     23  C   UNL d   1      46.595 -15.125  38.012  0.00  0.00     0.181 C 
ENDBRANCH  18  22
BRANCH  20  24
ATOM     24  O   UNL d   1      44.120 -16.735  37.393  0.00  0.00    -0.328 OA
ATOM     25  C   UNL d   1      44.179 -16.218  36.758  0.00  0.00     0.181 C 
ENDBRANCH  20  24
ENDBRANCH  14  16
ENDBRANCH  12  13
ENDBRANCH   2  12
BRANCH   1  26
ATOM     26  C   UNL d   1      46.145 -16.283  42.583  0.00  0.00     0.200 C 
ATOM     27  O   UNL d   1      46.643 -15.842  42.098  0.00  0.00    -0.286 OA
BRANCH  26  28
ATOM     28  C   UNL d   1      45.711 -15.909  43.176  0.00  0.00     0.039 A 
ATOM     29  C   UNL d   1      45.488 -15.111  43.095  0.00  0.00     0.003 A 
ATOM     30  C   UNL d   1      45.049 -14.729  43.691  0.00  0.00     0.000 A 
ATOM     31  C   UNL d   1      44.834 -15.145  44.368  0.00  0.00     0.000 A 
ATOM     32  C   UNL d   1      45.066 -15.947  44.434  0.00  0.00     0.000 A 
ATOM     33  C   UNL d   1      45.505 -16.329  43.838  0.00  0.00     0.003 A 
BRANCH  31  34
ATOM     34  C   UNL d   1      44.399 -14.758  44.954  0.00  0.00     0.000 C 
ATOM     35  C   UNL d   1      43.737 -14.328  44.722  0.00  0.00     0.000 C 
ENDBRANCH  31  34
ENDBRANCH  26  28
ENDBRANCH   1  26
BRANCH  10  36
ATOM     36  C   UNL d   1      46.272 -20.315  44.184  0.00  0.00     0.000 C 
ATOM     37  C   UNL d   1      45.771 -20.261  44.845  0.00  0.00     0.000 C 
ENDBRANCH  10  36
TORSDOF 9
ENDMDL
