MODEL 1
REMARK VINA RESULT:      42.3      0.000      0.000
REMARK  4 active torsions:
REMARK  status: ('A' for Active; 'I' for Inactive)
REMARK    1  A    between atoms: C_10  and  N_2 
REMARK    2  A    between atoms: C_7  and  N_4 
REMARK    3  A    between atoms: C_11  and  C_7 
REMARK    4  A    between atoms: O_22  and  C_18 
ROOT
ATOM      1  S   UNL d   1      46.078 -18.045  44.234  0.00  0.00     0.276 S 
ATOM      2  N   UNL d   1      46.081 -17.409  43.705  0.00  0.00    -0.184 N 
ATOM      3  C   UNL d   1      46.271 -17.539  42.906  0.00  0.00     0.348 A 
ATOM      4  N   UNL d   1      46.456 -18.304  42.649  0.00  0.00    -0.258 N 
ATOM      5  C   UNL d   1      46.263 -18.806  43.977  0.00  0.00     0.120 A 
ATOM      6  C   UNL d   1      46.453 -18.937  43.178  0.00  0.00     0.081 A 
ATOM      7  O   UNL d   1      45.998 -18.464  44.955  0.00  0.00    -0.199 OA
ATOM      8  O   UNL d   1      45.875 -17.341  44.627  0.00  0.00    -0.199 OA
ATOM      9  O   UNL d   1      46.276 -16.901  42.364  0.00  0.00    -0.245 OA
ATOM     10  C   UNL d   1      46.259 -19.434  44.504  0.00  0.00     0.014 A 
ATOM     11  C   UNL d   1      46.639 -19.694  42.911  0.00  0.00     0.018 A 
ATOM     12  C   UNL d   1      46.444 -20.199  44.248  0.00  0.00     0.001 A 
ATOM     13  C   UNL d   1      46.635 -20.330  43.448  0.00  0.00     0.002 A 
ENDROOT
BRANCH   2  14
ATOM     14  C   UNL d   1      45.897 -16.651  43.963  0.00  0.00     0.079 A 
ATOM     15  C   UNL d   1      45.319 -16.535  44.544  0.00  0.00     0.020 A 
ATOM     16  C   UNL d   1      45.133 -15.775  44.805  0.00  0.00     0.026 A 
ATOM     17  C   UNL d   1      45.529 -15.120  44.481  0.00  0.00     0.094 A 
ATOM     18  C   UNL d   1      46.107 -15.231  43.900  0.00  0.00     0.026 A 
ATOM     19  C   UNL d   1      46.293 -15.996  43.640  0.00  0.00     0.020 A 
BRANCH  17  20
ATOM     20  O   UNL d   1      45.345 -14.345  44.741  0.00  0.00    -0.328 OA
ATOM     21  C   UNL d   1      45.759 -13.704  44.444  0.00  0.00     0.181 C 
ENDBRANCH  17  20
ENDBRANCH   2  14
BRANCH   4  22
ATOM     22  C   UNL d   1      46.647 -18.434  41.851  0.00  0.00     0.087 C 
BRANCH  22  23
ATOM     23  C   UNL d   1      46.064 -18.376  41.276  0.00  0.00     0.045 A 
ATOM     24  C   UNL d   1      46.067 -18.906  40.651  0.00  0.00     0.141 A 
ATOM     25  F   UNL d   1      46.641 -19.486  40.595  0.00  0.00    -0.204 F 
ATOM     26  C   UNL d   1      45.481 -18.846  40.075  0.00  0.00     0.030 A 
ATOM     27  C   UNL d   1      44.904 -18.264  40.129  0.00  0.00     0.002 A 
ATOM     28  C   UNL d   1      44.911 -17.740  40.758  0.00  0.00     0.000 A 
ATOM     29  C   UNL d   1      45.491 -17.796  41.332  0.00  0.00     0.004 A 
ENDBRANCH  22  23
ENDBRANCH   4  22
TORSDOF 4
ENDMDL
