MODEL 1
REMARK VINA RESULT:       6.3      0.000      0.000
REMARK  3 active torsions:
REMARK  status: ('A' for Active; 'I' for Inactive)
REMARK    1  A    between atoms: C_4  and  C_1 
REMARK    2  A    between atoms: C_11  and  C_10 
REMARK    3  A    between atoms: O_20  and  C_11 
ROOT
ATOM      1  C   UNL d   1     -41.573-122.340 -51.595  0.00  0.00     0.004 A 
ATOM      2  C   UNL d   1     -41.386-122.195 -53.003  0.00  0.00     0.102 A 
ATOM      3  C   UNL d   1     -41.536-122.673 -52.347  0.00  0.00     0.023 A 
ATOM      4  O   UNL d   1     -41.273-121.384 -52.906  0.00  0.00    -0.307 OA
ATOM      5  C   UNL d   1     -41.311-121.053 -52.153  0.00  0.00     0.102 A 
ATOM      6  C   UNL d   1     -41.461-121.531 -51.498  0.00  0.00     0.023 A 
ATOM      7  C   UNL d   1     -41.348-122.526 -53.755  0.00  0.00     0.046 A 
ATOM      8  C   UNL d   1     -41.648-123.482 -52.444  0.00  0.00     0.004 A 
ATOM      9  C   UNL d   1     -41.198-120.242 -52.056  0.00  0.00     0.046 A 
ATOM     10  C   UNL d   1     -41.461-123.340 -53.854  0.00  0.00     0.105 A 
ATOM     11  C   UNL d   1     -41.611-123.818 -53.199  0.00  0.00     0.021 A 
ATOM     12  C   UNL d   1     -41.498-121.198 -50.745  0.00  0.00     0.004 A 
ATOM     13  N   UNL d   1     -41.424-123.678 -54.612  0.00  0.00    -0.148 N 
ATOM     14  C   UNL d   1     -41.235-119.905 -51.299  0.00  0.00     0.105 A 
ATOM     15  C   UNL d   1     -41.385-120.383 -50.644  0.00  0.00     0.021 A 
ATOM     16  N   UNL d   1     -41.123-119.091 -51.200  0.00  0.00    -0.148 N 
ENDROOT
BRANCH   1  17
ATOM     17  C   UNL d   1     -41.723-122.818 -50.939  0.00  0.00     0.005 A 
ATOM     18  C   UNL d   1     -42.469-122.819 -50.591  0.00  0.00     0.063 A 
ATOM     19  C   UNL d   1     -42.620-123.300 -49.932  0.00  0.00     0.005 A 
ATOM     20  C   UNL d   1     -42.024-123.776 -49.624  0.00  0.00     0.000 A 
ATOM     21  C   UNL d   1     -41.273-123.776 -49.972  0.00  0.00     0.000 A 
ATOM     22  C   UNL d   1     -41.123-123.296 -50.631  0.00  0.00     0.000 A 
BRANCH  18  23
ATOM     23  C   UNL d   1     -43.263-122.514 -50.598  0.00  0.00     0.296 C 
ATOM     24  O   UNL d   1     -43.815-122.996 -50.039  0.00  0.00    -0.259 OA
BRANCH  23  25
ATOM     25  O   UNL d   1     -43.931-122.033 -50.786  0.00  0.00    -0.296 OA
ATOM     26  C   UNL d   1     -44.751-121.912 -50.298  0.00  0.00     0.185 C 
ENDBRANCH  23  25
ENDBRANCH  18  23
ENDBRANCH   1  17
TORSDOF 3
ENDMDL
