MODEL 1
REMARK VINA RESULT:      35.1      0.000      0.000
REMARK  4 active torsions:
REMARK  status: ('A' for Active; 'I' for Inactive)
REMARK    1  A    between atoms: C_6  and  C_1 
REMARK    2  A    between atoms: N_4  and  C_2 
REMARK       I    between atoms: C_3  and  N_4 
REMARK       I    between atoms: N_9  and  C_3 
REMARK    3  A    between atoms: C_15  and  N_9 
REMARK    4  A    between atoms: C_23  and  C_15 
ROOT
ATOM      1  C   UNL d   1      15.256  13.468  -0.486  0.00  0.00     0.040 A 
ATOM      2  C   UNL d   1      14.352  13.011  -1.168  0.00  0.00     0.109 A 
ATOM      3  C   UNL d   1      14.870  13.852  -0.871  0.00  0.00     0.035 A 
ATOM      4  C   UNL d   1      15.840  13.576  -0.014  0.00  0.00    -0.023 A 
ATOM      5  C   UNL d   1      15.108  12.418  -0.440  0.00  0.00     0.013 A 
ATOM      6  C   UNL d   1      15.392  12.904  -0.281  0.00  0.00    -0.011 A 
ATOM      7  C   UNL d   1      14.710  11.779  -0.670  0.00  0.00     0.025 A 
ATOM      8  C   UNL d   1      14.931  13.350  -0.739  0.00  0.00    -0.005 A 
ATOM      9  C   UNL d   1      14.242  12.226  -1.134  0.00  0.00     0.031 A 
ATOM     10  C   UNL d   1      15.282  12.119  -0.246  0.00  0.00    -0.027 A 
ENDROOT
BRANCH   2  11
ATOM     11  N   UNL d   1      13.730  12.761  -1.649  0.00  0.00    -0.217 NA
ATOM     12  C   UNL d   1      13.844  12.666  -2.458  0.00  0.00     0.360 C 
ATOM     13  N   UNL d   1      13.228  12.417  -2.944  0.00  0.00    -0.214 NA
ATOM     14  O   UNL d   1      14.591  12.822  -2.790  0.00  0.00    -0.243 OA
BRANCH  13  15
ATOM     15  C   UNL d   1      13.343  12.320  -3.762  0.00  0.00     0.147 C 
ATOM     16  C   UNL d   1      13.917  11.779  -3.503  0.00  0.00     0.033 C 
ATOM     17  C   UNL d   1      12.769  12.861  -4.011  0.00  0.00     0.033 C 
BRANCH  15  18
ATOM     18  C   UNL d   1      13.463  12.218  -4.574  0.00  0.00     0.229 C 
ATOM     19  O   UNL d   1      12.863  11.888  -5.039  0.00  0.00    -0.286 OA
ENDBRANCH  15  18
ENDBRANCH  13  15
ENDBRANCH   2  11
BRANCH   1  20
ATOM     20  C   UNL d   1      15.184  14.260  -0.674  0.00  0.00    -0.019 A 
ATOM     21  C   UNL d   1      15.037  14.493  -1.458  0.00  0.00    -0.004 A 
ATOM     22  C   UNL d   1      14.963  15.292  -1.650  0.00  0.00    -0.000 A 
ATOM     23  C   UNL d   1      15.037  15.869  -1.055  0.00  0.00    -0.000 A 
ATOM     24  C   UNL d   1      15.184  15.632  -0.278  0.00  0.00    -0.000 A 
ATOM     25  C   UNL d   1      14.965  16.670  -1.244  0.00  0.00    -0.000 C 
ATOM     26  C   UNL d   1      15.257  14.833  -0.086  0.00  0.00    -0.004 A 
ENDBRANCH   1  20
TORSDOF 4
ENDMDL
