MODEL 1
REMARK VINA RESULT:      -5.6      0.000      0.000
REMARK  2 active torsions:
REMARK  status: ('A' for Active; 'I' for Inactive)
REMARK    1  A    between atoms: C_8  and  C_6 
REMARK    2  A    between atoms: C_9  and  C_8 
ROOT
ATOM      1  N   UNL d   1     -41.453-123.576 -52.746  0.00  0.00    -0.207 NA
ATOM      2  N   UNL d   1     -41.406-121.969 -53.206  0.00  0.00    -0.240 NA
ATOM      3  C   UNL d   1     -41.504-123.206 -53.478  0.00  0.00     0.297 A 
ATOM      4  C   UNL d   1     -41.360-123.239 -52.000  0.00  0.00     0.086 A 
ATOM      5  C   UNL d   1     -41.320-121.863 -52.395  0.00  0.00     0.083 A 
ATOM      6  C   UNL d   1     -41.488-122.671 -53.621  0.00  0.00     0.144 A 
ATOM      7  C   UNL d   1     -41.294-122.438 -51.801  0.00  0.00     0.035 A 
ATOM      8  O   UNL d   1     -41.591-123.708 -54.065  0.00  0.00    -0.264 OA
ATOM      9  C   UNL d   1     -41.203-122.215 -51.016  0.00  0.00     0.003 A 
ATOM     10  C   UNL d   1     -41.255-121.068 -52.201  0.00  0.00     0.019 A 
ATOM     11  C   UNL d   1     -41.334-123.817 -51.404  0.00  0.00     0.019 A 
ATOM     12  C   UNL d   1     -41.242-123.588 -50.612  0.00  0.00     0.002 A 
ATOM     13  C   UNL d   1     -41.164-120.844 -51.416  0.00  0.00     0.002 A 
ATOM     14  C   UNL d   1     -41.138-121.419 -50.822  0.00  0.00     0.000 A 
ATOM     15  C   UNL d   1     -41.177-122.787 -50.424  0.00  0.00     0.000 A 
ENDROOT
BRANCH   6  16
ATOM     16  C   UNL d   1     -41.579-122.897 -54.409  0.00  0.00     0.088 C 
BRANCH  16  17
ATOM     17  C   UNL d   1     -41.753-122.332 -55.000  0.00  0.00     0.299 C 
ATOM     18  O   UNL d   1     -41.135-121.935 -55.368  0.00  0.00    -0.264 OA
ATOM     19  N   UNL d   1     -42.537-122.171 -55.214  0.00  0.00    -0.102 N 
ENDBRANCH  16  17
ENDBRANCH   6  16
TORSDOF 2
ENDMDL
MODEL 2
REMARK VINA RESULT:      -4.4      1.477      3.233
REMARK  2 active torsions:
REMARK  status: ('A' for Active; 'I' for Inactive)
REMARK    1  A    between atoms: C_8  and  C_6 
REMARK    2  A    between atoms: C_9  and  C_8 
ROOT
ATOM      1  N   UNL d   1     -41.215-123.400 -52.893  0.00  0.00    -0.207 NA
ATOM      2  N   UNL d   1     -41.939-121.912 -52.654  0.00  0.00    -0.240 NA
ATOM      3  C   UNL d   1     -41.374-122.962 -52.216  0.00  0.00     0.297 A 
ATOM      4  C   UNL d   1     -41.377-123.217 -53.679  0.00  0.00     0.086 A 
ATOM      5  C   UNL d   1     -41.998-121.942 -53.474  0.00  0.00     0.083 A 
ATOM      6  C   UNL d   1     -41.615-122.468 -52.147  0.00  0.00     0.144 A 
ATOM      7  C   UNL d   1     -41.744-122.540 -53.986  0.00  0.00     0.035 A 
ATOM      8  O   UNL d   1     -41.139-123.316 -51.566  0.00  0.00    -0.264 OA
ATOM      9  C   UNL d   1     -41.855-122.462 -54.796  0.00  0.00     0.003 A 
ATOM     10  C   UNL d   1     -42.361-121.270 -53.775  0.00  0.00     0.019 A 
ATOM     11  C   UNL d   1     -41.123-123.817 -54.194  0.00  0.00     0.019 A 
ATOM     12  C   UNL d   1     -41.236-123.736 -55.011  0.00  0.00     0.002 A 
ATOM     13  C   UNL d   1     -42.472-121.192 -54.585  0.00  0.00     0.002 A 
ATOM     14  C   UNL d   1     -42.219-121.790 -55.097  0.00  0.00     0.000 A 
ATOM     15  C   UNL d   1     -41.603-123.057 -55.306  0.00  0.00     0.000 A 
ENDROOT
BRANCH   6  16
ATOM     16  C   UNL d   1     -41.503-122.547 -51.333  0.00  0.00     0.088 C 
BRANCH  16  17
ATOM     17  C   UNL d   1     -41.760-121.954 -50.805  0.00  0.00     0.299 C 
ATOM     18  O   UNL d   1     -42.534-121.972 -50.528  0.00  0.00    -0.264 OA
ATOM     19  N   UNL d   1     -41.245-121.352 -50.562  0.00  0.00    -0.102 N 
ENDBRANCH  16  17
ENDBRANCH   6  16
TORSDOF 2
ENDMDL
MODEL 3
REMARK VINA RESULT:      -3.9      0.736      1.801
REMARK  2 active torsions:
REMARK  status: ('A' for Active; 'I' for Inactive)
REMARK    1  A    between atoms: C_8  and  C_6 
REMARK    2  A    between atoms: C_9  and  C_8 
ROOT
ATOM      1  N   UNL d   1     -41.350-121.530 -52.917  0.00  0.00    -0.207 NA
ATOM      2  N   UNL d   1     -41.537-123.192 -52.929  0.00  0.00    -0.240 NA
ATOM      3  C   UNL d   1     -41.460-122.073 -53.526  0.00  0.00     0.297 A 
ATOM      4  C   UNL d   1     -41.300-121.664 -52.107  0.00  0.00     0.086 A 
ATOM      5  C   UNL d   1     -41.460-123.088 -52.118  0.00  0.00     0.083 A 
ATOM      6  C   UNL d   1     -41.521-122.624 -53.520  0.00  0.00     0.144 A 
ATOM      7  C   UNL d   1     -41.348-122.384 -51.698  0.00  0.00     0.035 A 
ATOM      8  O   UNL d   1     -41.479-121.740 -54.227  0.00  0.00    -0.264 OA
ATOM      9  C   UNL d   1     -41.284-122.398 -50.879  0.00  0.00     0.003 A 
ATOM     10  C   UNL d   1     -41.508-123.802 -51.716  0.00  0.00     0.019 A 
ATOM     11  C   UNL d   1     -41.187-120.957 -51.685  0.00  0.00     0.019 A 
ATOM     12  C   UNL d   1     -41.123-120.975 -50.859  0.00  0.00     0.002 A 
ATOM     13  C   UNL d   1     -41.444-123.817 -50.897  0.00  0.00     0.002 A 
ATOM     14  C   UNL d   1     -41.332-123.113 -50.478  0.00  0.00     0.000 A 
ATOM     15  C   UNL d   1     -41.172-121.697 -50.462  0.00  0.00     0.000 A 
ENDROOT
BRANCH   6  16
ATOM     16  C   UNL d   1     -41.585-122.607 -54.342  0.00  0.00     0.088 C 
BRANCH  16  17
ATOM     17  C   UNL d   1     -41.836-123.282 -54.765  0.00  0.00     0.299 C 
ATOM     18  O   UNL d   1     -42.640-123.412 -54.874  0.00  0.00    -0.264 OA
ATOM     19  N   UNL d   1     -41.283-123.817 -55.074  0.00  0.00    -0.102 N 
ENDBRANCH  16  17
ENDBRANCH   6  16
TORSDOF 2
ENDMDL
