MODEL 1
REMARK VINA RESULT:      -9.5      0.000      0.000
REMARK  3 active torsions:
REMARK  status: ('A' for Active; 'I' for Inactive)
REMARK    1  A    between atoms: N_6  and  C_1 
REMARK    2  A    between atoms: C_14  and  N_4 
REMARK    3  A    between atoms: C_9  and  N_6 
ROOT
ATOM      1  C   UNL d   1      53.388  32.468  53.469  0.00  0.00     0.157 A 
ATOM      2  C   UNL d   1      52.729  32.632  53.005  0.00  0.00     0.298 A 
ATOM      3  N   UNL d   1      52.839  33.577  53.945  0.00  0.00    -0.238 N 
ATOM      4  N   UNL d   1      52.386  33.328  53.304  0.00  0.00    -0.209 N 
ATOM      5  C   UNL d   1      53.466  33.041  54.049  0.00  0.00     0.104 A 
ATOM      6  O   UNL d   1      52.451  32.197  52.361  0.00  0.00    -0.263 OA
ATOM      7  C   UNL d   1      52.691  34.251  54.405  0.00  0.00     0.120 C 
ATOM      8  C   UNL d   1      54.050  33.081  54.623  0.00  0.00     0.022 C 
ENDROOT
BRANCH   1   9
ATOM      9  N   UNL d   1      53.898  31.817  53.362  0.00  0.00    -0.239 NA
BRANCH   9  10
ATOM     10  C   UNL d   1      53.639  31.053  53.549  0.00  0.00     0.082 A 
ATOM     11  C   UNL d   1      53.367  30.545  52.948  0.00  0.00     0.022 A 
ATOM     12  C   UNL d   1      53.113  29.794  53.136  0.00  0.00     0.041 A 
ATOM     13  C   UNL d   1      52.842  29.287  52.538  0.00  0.00     0.003 C 
ATOM     14  C   UNL d   1      53.121  29.525  53.924  0.00  0.00     0.196 A 
ATOM     15  C   UNL d   1      53.391  30.032  54.518  0.00  0.00     0.041 A 
ATOM     16  O   UNL d   1      52.862  28.762  54.111  0.00  0.00    -0.287 OA
ATOM     17  C   UNL d   1      53.648  30.791  54.328  0.00  0.00     0.022 A 
ATOM     18  C   UNL d   1      53.396  29.762  55.294  0.00  0.00     0.003 C 
ENDBRANCH   9  10
ENDBRANCH   1   9
BRANCH   4  19
ATOM     19  C   UNL d   1      51.711  33.700  53.010  0.00  0.00     0.085 A 
ATOM     20  C   UNL d   1      51.756  34.167  52.339  0.00  0.00     0.019 A 
ATOM     21  C   UNL d   1      51.080  34.543  52.041  0.00  0.00     0.002 A 
ATOM     22  C   UNL d   1      50.356  34.445  52.424  0.00  0.00     0.000 A 
ATOM     23  C   UNL d   1      50.308  33.978  53.098  0.00  0.00     0.002 A 
ATOM     24  C   UNL d   1      50.986  33.599  53.398  0.00  0.00     0.019 A 
ENDBRANCH   4  19
TORSDOF 3
ENDMDL
MODEL 2
REMARK VINA RESULT:      -8.7      1.549      4.272
REMARK  3 active torsions:
REMARK  status: ('A' for Active; 'I' for Inactive)
REMARK    1  A    between atoms: N_6  and  C_1 
REMARK    2  A    between atoms: C_14  and  N_4 
REMARK    3  A    between atoms: C_9  and  N_6 
ROOT
ATOM      1  C   UNL d   1      53.293  31.913  53.213  0.00  0.00     0.157 A 
ATOM      2  C   UNL d   1      53.660  31.289  53.604  0.00  0.00     0.298 A 
ATOM      3  N   UNL d   1      52.400  30.939  53.322  0.00  0.00    -0.238 N 
ATOM      4  N   UNL d   1      53.099  30.679  53.672  0.00  0.00    -0.209 N 
ATOM      5  C   UNL d   1      52.519  31.711  53.034  0.00  0.00     0.104 A 
ATOM      6  O   UNL d   1      54.436  31.261  53.881  0.00  0.00    -0.263 OA
ATOM      7  C   UNL d   1      51.697  30.502  53.268  0.00  0.00     0.120 C 
ATOM      8  C   UNL d   1      51.967  32.176  52.647  0.00  0.00     0.022 C 
ENDROOT
BRANCH   1   9
ATOM      9  N   UNL d   1      53.656  32.640  53.027  0.00  0.00    -0.239 NA
BRANCH   9  10
ATOM     10  C   UNL d   1      53.658  33.256  53.581  0.00  0.00     0.082 A 
ATOM     11  C   UNL d   1      53.115  33.883  53.511  0.00  0.00     0.022 A 
ATOM     12  C   UNL d   1      53.121  34.487  54.058  0.00  0.00     0.041 A 
ATOM     13  C   UNL d   1      52.580  35.113  53.989  0.00  0.00     0.003 C 
ATOM     14  C   UNL d   1      53.664  34.486  54.689  0.00  0.00     0.196 A 
ATOM     15  C   UNL d   1      54.201  33.862  54.756  0.00  0.00     0.041 A 
ATOM     16  O   UNL d   1      53.667  35.101  55.243  0.00  0.00    -0.287 OA
ATOM     17  C   UNL d   1      54.195  33.252  54.202  0.00  0.00     0.022 A 
ATOM     18  C   UNL d   1      54.735  33.866  55.380  0.00  0.00     0.003 C 
ENDBRANCH   9  10
ENDBRANCH   1   9
BRANCH   4  19
ATOM     19  C   UNL d   1      53.222  29.945  54.027  0.00  0.00     0.085 A 
ATOM     20  C   UNL d   1      53.473  29.307  53.579  0.00  0.00     0.019 A 
ATOM     21  C   UNL d   1      53.598  28.567  53.931  0.00  0.00     0.002 A 
ATOM     22  C   UNL d   1      53.469  28.474  54.741  0.00  0.00     0.000 A 
ATOM     23  C   UNL d   1      53.217  29.113  55.192  0.00  0.00     0.002 A 
ATOM     24  C   UNL d   1      53.091  29.856  54.839  0.00  0.00     0.019 A 
ENDBRANCH   4  19
TORSDOF 3
ENDMDL
MODEL 3
REMARK VINA RESULT:      -8.4      1.155      4.090
REMARK  3 active torsions:
REMARK  status: ('A' for Active; 'I' for Inactive)
REMARK    1  A    between atoms: N_6  and  C_1 
REMARK    2  A    between atoms: C_14  and  N_4 
REMARK    3  A    between atoms: C_9  and  N_6 
ROOT
ATOM      1  C   UNL d   1      52.899  33.423  53.226  0.00  0.00     0.157 A 
ATOM      2  C   UNL d   1      52.861  32.648  52.953  0.00  0.00     0.298 A 
ATOM      3  N   UNL d   1      53.390  32.646  54.181  0.00  0.00    -0.238 N 
ATOM      4  N   UNL d   1      53.169  32.162  53.552  0.00  0.00    -0.209 N 
ATOM      5  C   UNL d   1      53.221  33.435  53.978  0.00  0.00     0.104 A 
ATOM      6  O   UNL d   1      52.574  32.389  52.224  0.00  0.00    -0.263 OA
ATOM      7  C   UNL d   1      53.724  32.386  54.894  0.00  0.00     0.120 C 
ATOM      8  C   UNL d   1      53.354  34.096  54.445  0.00  0.00     0.022 C 
ENDROOT
BRANCH   1   9
ATOM      9  N   UNL d   1      52.646  34.093  52.799  0.00  0.00    -0.239 NA
BRANCH   9  10
ATOM     10  C   UNL d   1      51.838  34.228  52.681  0.00  0.00     0.082 A 
ATOM     11  C   UNL d   1      51.510  34.161  51.917  0.00  0.00     0.022 A 
ATOM     12  C   UNL d   1      50.714  34.295  51.805  0.00  0.00     0.041 A 
ATOM     13  C   UNL d   1      50.387  34.228  51.045  0.00  0.00     0.003 C 
ATOM     14  C   UNL d   1      50.221  34.499  52.444  0.00  0.00     0.196 A 
ATOM     15  C   UNL d   1      50.549  34.565  53.199  0.00  0.00     0.041 A 
ATOM     16  O   UNL d   1      49.413  34.634  52.325  0.00  0.00    -0.287 OA
ATOM     17  C   UNL d   1      51.354  34.430  53.313  0.00  0.00     0.022 A 
ATOM     18  C   UNL d   1      50.058  34.767  53.826  0.00  0.00     0.003 C 
ENDBRANCH   9  10
ENDBRANCH   1   9
BRANCH   4  19
ATOM     19  C   UNL d   1      53.240  31.340  53.522  0.00  0.00     0.085 A 
ATOM     20  C   UNL d   1      53.975  30.993  53.417  0.00  0.00     0.019 A 
ATOM     21  C   UNL d   1      54.051  30.169  53.386  0.00  0.00     0.002 A 
ATOM     22  C   UNL d   1      53.380  29.694  53.461  0.00  0.00     0.000 A 
ATOM     23  C   UNL d   1      52.643  30.040  53.566  0.00  0.00     0.002 A 
ATOM     24  C   UNL d   1      52.565  30.868  53.598  0.00  0.00     0.019 A 
ENDBRANCH   4  19
TORSDOF 3
ENDMDL
MODEL 4
REMARK VINA RESULT:      -7.9      1.678      2.791
REMARK  3 active torsions:
REMARK  status: ('A' for Active; 'I' for Inactive)
REMARK    1  A    between atoms: N_6  and  C_1 
REMARK    2  A    between atoms: C_14  and  N_4 
REMARK    3  A    between atoms: C_9  and  N_6 
ROOT
ATOM      1  C   UNL d   1      53.149  32.646  53.058  0.00  0.00     0.157 A 
ATOM      2  C   UNL d   1      52.715  33.333  52.932  0.00  0.00     0.298 A 
ATOM      3  N   UNL d   1      51.875  32.292  52.957  0.00  0.00    -0.238 N 
ATOM      4  N   UNL d   1      51.917  33.110  52.868  0.00  0.00    -0.209 N 
ATOM      5  C   UNL d   1      52.645  32.000  53.076  0.00  0.00     0.104 A 
ATOM      6  O   UNL d   1      53.005  34.103  52.876  0.00  0.00    -0.263 OA
ATOM      7  C   UNL d   1      51.180  31.840  52.932  0.00  0.00     0.120 C 
ATOM      8  C   UNL d   1      52.856  31.216  53.189  0.00  0.00     0.022 C 
ENDROOT
BRANCH   1   9
ATOM      9  N   UNL d   1      53.977  32.613  53.154  0.00  0.00    -0.239 NA
BRANCH   9  10
ATOM     10  C   UNL d   1      54.326  32.907  53.845  0.00  0.00     0.082 A 
ATOM     11  C   UNL d   1      54.963  33.441  53.796  0.00  0.00     0.022 A 
ATOM     12  C   UNL d   1      55.304  33.728  54.478  0.00  0.00     0.041 A 
ATOM     13  C   UNL d   1      55.939  34.261  54.432  0.00  0.00     0.003 C 
ATOM     14  C   UNL d   1      55.024  33.494  55.227  0.00  0.00     0.196 A 
ATOM     15  C   UNL d   1      54.393  32.963  55.271  0.00  0.00     0.041 A 
ATOM     16  O   UNL d   1      55.374  33.787  55.918  0.00  0.00    -0.287 OA
ATOM     17  C   UNL d   1      54.048  32.674  54.581  0.00  0.00     0.022 A 
ATOM     18  C   UNL d   1      54.121  32.736  56.012  0.00  0.00     0.003 C 
ENDBRANCH   9  10
ENDBRANCH   1   9
BRANCH   4  19
ATOM     19  C   UNL d   1      51.280  33.619  52.740  0.00  0.00     0.085 A 
ATOM     20  C   UNL d   1      51.078  33.842  51.978  0.00  0.00     0.019 A 
ATOM     21  C   UNL d   1      50.439  34.353  51.844  0.00  0.00     0.002 A 
ATOM     22  C   UNL d   1      50.004  34.640  52.485  0.00  0.00     0.000 A 
ATOM     23  C   UNL d   1      50.206  34.417  53.250  0.00  0.00     0.002 A 
ATOM     24  C   UNL d   1      50.847  33.904  53.385  0.00  0.00     0.019 A 
ENDBRANCH   4  19
TORSDOF 3
ENDMDL
MODEL 5
REMARK VINA RESULT:      -7.6      1.055      2.070
REMARK  3 active torsions:
REMARK  status: ('A' for Active; 'I' for Inactive)
REMARK    1  A    between atoms: N_6  and  C_1 
REMARK    2  A    between atoms: C_14  and  N_4 
REMARK    3  A    between atoms: C_9  and  N_6 
ROOT
ATOM      1  C   UNL d   1      52.462  32.537  52.898  0.00  0.00     0.157 A 
ATOM      2  C   UNL d   1      52.996  33.040  53.270  0.00  0.00     0.298 A 
ATOM      3  N   UNL d   1      51.759  33.518  53.446  0.00  0.00    -0.238 N 
ATOM      4  N   UNL d   1      52.554  33.655  53.613  0.00  0.00    -0.209 N 
ATOM      5  C   UNL d   1      51.700  32.819  52.998  0.00  0.00     0.104 A 
ATOM      6  O   UNL d   1      53.816  32.961  53.303  0.00  0.00    -0.263 OA
ATOM      7  C   UNL d   1      51.127  33.999  53.685  0.00  0.00     0.120 C 
ATOM      8  C   UNL d   1      51.009  32.480  52.715  0.00  0.00     0.022 C 
ENDROOT
BRANCH   1   9
ATOM      9  N   UNL d   1      52.668  31.844  52.482  0.00  0.00    -0.239 NA
BRANCH   9  10
ATOM     10  C   UNL d   1      52.790  31.135  52.891  0.00  0.00     0.082 A 
ATOM     11  C   UNL d   1      53.564  30.878  53.060  0.00  0.00     0.022 A 
ATOM     12  C   UNL d   1      53.680  30.179  53.463  0.00  0.00     0.041 A 
ATOM     13  C   UNL d   1      54.451  29.921  53.632  0.00  0.00     0.003 C 
ATOM     14  C   UNL d   1      53.033  29.717  53.711  0.00  0.00     0.196 A 
ATOM     15  C   UNL d   1      52.267  29.975  53.542  0.00  0.00     0.041 A 
ATOM     16  O   UNL d   1      53.155  29.008  54.121  0.00  0.00    -0.287 OA
ATOM     17  C   UNL d   1      52.150  30.681  53.134  0.00  0.00     0.022 A 
ATOM     18  C   UNL d   1      51.633  29.515  53.788  0.00  0.00     0.003 C 
ENDBRANCH   9  10
ENDBRANCH   1   9
BRANCH   4  19
ATOM     19  C   UNL d   1      52.859  34.289  54.044  0.00  0.00     0.085 A 
ATOM     20  C   UNL d   1      52.916  35.031  53.702  0.00  0.00     0.019 A 
ATOM     21  C   UNL d   1      53.222  35.670  54.132  0.00  0.00     0.002 A 
ATOM     22  C   UNL d   1      53.471  35.557  54.911  0.00  0.00     0.000 A 
ATOM     23  C   UNL d   1      53.414  34.813  55.255  0.00  0.00     0.002 A 
ATOM     24  C   UNL d   1      53.107  34.170  54.825  0.00  0.00     0.019 A 
ENDBRANCH   4  19
TORSDOF 3
ENDMDL
MODEL 6
REMARK VINA RESULT:      -7.2      1.844      4.308
REMARK  3 active torsions:
REMARK  status: ('A' for Active; 'I' for Inactive)
REMARK    1  A    between atoms: N_6  and  C_1 
REMARK    2  A    between atoms: C_14  and  N_4 
REMARK    3  A    between atoms: C_9  and  N_6 
ROOT
ATOM      1  C   UNL d   1      52.601  33.358  52.718  0.00  0.00     0.157 A 
ATOM      2  C   UNL d   1      53.132  33.757  53.203  0.00  0.00     0.298 A 
ATOM      3  N   UNL d   1      53.111  32.468  53.558  0.00  0.00    -0.238 N 
ATOM      4  N   UNL d   1      53.451  33.198  53.728  0.00  0.00    -0.209 N 
ATOM      5  C   UNL d   1      52.579  32.566  52.926  0.00  0.00     0.104 A 
ATOM      6  O   UNL d   1      53.321  34.560  53.181  0.00  0.00    -0.263 OA
ATOM      7  C   UNL d   1      53.275  31.757  53.951  0.00  0.00     0.120 C 
ATOM      8  C   UNL d   1      52.122  31.980  52.580  0.00  0.00     0.022 C 
ENDROOT
BRANCH   1   9
ATOM      9  N   UNL d   1      52.153  33.709  52.108  0.00  0.00    -0.239 NA
BRANCH   9  10
ATOM     10  C   UNL d   1      51.397  34.005  52.267  0.00  0.00     0.082 A 
ATOM     11  C   UNL d   1      50.805  33.974  51.682  0.00  0.00     0.022 A 
ATOM     12  C   UNL d   1      50.061  34.267  51.842  0.00  0.00     0.041 A 
ATOM     13  C   UNL d   1      49.470  34.237  51.260  0.00  0.00     0.003 C 
ATOM     14  C   UNL d   1      49.883  34.598  52.585  0.00  0.00     0.196 A 
ATOM     15  C   UNL d   1      50.473  34.627  53.163  0.00  0.00     0.041 A 
ATOM     16  O   UNL d   1      49.127  34.894  52.744  0.00  0.00    -0.287 OA
ATOM     17  C   UNL d   1      51.225  34.331  53.001  0.00  0.00     0.022 A 
ATOM     18  C   UNL d   1      50.292  34.954  53.894  0.00  0.00     0.003 C 
ENDBRANCH   9  10
ENDBRANCH   1   9
BRANCH   4  19
ATOM     19  C   UNL d   1      54.010  33.350  54.317  0.00  0.00     0.085 A 
ATOM     20  C   UNL d   1      53.773  33.451  55.094  0.00  0.00     0.019 A 
ATOM     21  C   UNL d   1      54.331  33.604  55.688  0.00  0.00     0.002 A 
ATOM     22  C   UNL d   1      55.132  33.654  55.493  0.00  0.00     0.000 A 
ATOM     23  C   UNL d   1      55.371  33.552  54.714  0.00  0.00     0.002 A 
ATOM     24  C   UNL d   1      54.812  33.399  54.116  0.00  0.00     0.019 A 
ENDBRANCH   4  19
TORSDOF 3
ENDMDL
