MODEL 1
REMARK VINA RESULT:      -0.8      0.000      0.000
REMARK  5 active torsions:
REMARK  status: ('A' for Active; 'I' for Inactive)
REMARK    1  A    between atoms: C_10  and  N_1 
REMARK    2  A    between atoms: C_7  and  C_4 
REMARK    3  A    between atoms: O_16  and  C_9 
REMARK    4  A    between atoms: C_15  and  C_10 
REMARK    5  A    between atoms: O_17  and  C_11 
ROOT
ATOM      1  N   UNL d   1     -41.313-122.079 -52.603  0.00  0.00    -0.193 N 
ATOM      2  N   UNL d   1     -41.447-122.507 -51.909  0.00  0.00    -0.163 NA
ATOM      3  C   UNL d   1     -41.373-121.264 -52.585  0.00  0.00     0.281 A 
ATOM      4  C   UNL d   1     -41.638-122.113 -51.210  0.00  0.00     0.102 A 
ATOM      5  C   UNL d   1     -41.561-120.861 -51.900  0.00  0.00     0.064 A 
ATOM      6  C   UNL d   1     -41.695-121.290 -51.205  0.00  0.00     0.026 A 
ATOM      7  O   UNL d   1     -41.239-120.836 -53.278  0.00  0.00    -0.265 OA
ENDROOT
BRANCH   4   8
ATOM      8  C   UNL d   1     -41.770-122.535 -50.527  0.00  0.00     0.021 A 
ATOM      9  C   UNL d   1     -42.496-122.933 -50.410  0.00  0.00     0.028 A 
ATOM     10  C   UNL d   1     -42.621-123.355 -49.721  0.00  0.00     0.116 A 
ATOM     11  C   UNL d   1     -42.038-123.392 -49.138  0.00  0.00     0.116 A 
ATOM     12  C   UNL d   1     -41.309-122.995 -49.250  0.00  0.00     0.026 A 
ATOM     13  C   UNL d   1     -41.187-122.571 -49.944  0.00  0.00     0.004 A 
BRANCH  10  14
ATOM     14  O   UNL d   1     -43.335-123.746 -49.607  0.00  0.00    -0.326 OA
ATOM     15  C   UNL d   1     -44.038-123.424 -49.887  0.00  0.00     0.181 C 
ENDBRANCH  10  14
BRANCH  11  16
ATOM     16  O   UNL d   1     -42.161-123.817 -48.440  0.00  0.00    -0.326 OA
ATOM     17  C   UNL d   1     -41.796-123.565 -47.744  0.00  0.00     0.181 C 
ENDBRANCH  11  16
ENDBRANCH   4   8
BRANCH   1  18
ATOM     18  C   UNL d   1     -41.123-122.478 -53.295  0.00  0.00     0.104 C 
BRANCH  18  19
ATOM     19  C   UNL d   1     -41.721-122.757 -53.777  0.00  0.00     0.019 A 
ATOM     20  C   UNL d   1     -42.028-122.280 -54.376  0.00  0.00     0.002 A 
ATOM     21  C   UNL d   1     -42.629-122.561 -54.861  0.00  0.00     0.000 A 
ATOM     22  C   UNL d   1     -42.923-123.330 -54.737  0.00  0.00     0.000 A 
ATOM     23  C   UNL d   1     -42.617-123.805 -54.140  0.00  0.00     0.000 A 
ATOM     24  C   UNL d   1     -42.012-123.514 -53.658  0.00  0.00     0.002 A 
ENDBRANCH  18  19
ENDBRANCH   1  18
TORSDOF 5
ENDMDL
MODEL 2
REMARK VINA RESULT:      -0.3      1.222      4.330
REMARK  5 active torsions:
REMARK  status: ('A' for Active; 'I' for Inactive)
REMARK    1  A    between atoms: C_10  and  N_1 
REMARK    2  A    between atoms: C_7  and  C_4 
REMARK    3  A    between atoms: O_16  and  C_9 
REMARK    4  A    between atoms: C_15  and  C_10 
REMARK    5  A    between atoms: O_17  and  C_11 
ROOT
ATOM      1  N   UNL d   1     -41.366-122.752 -50.724  0.00  0.00    -0.193 N 
ATOM      2  N   UNL d   1     -41.445-122.936 -51.527  0.00  0.00    -0.163 NA
ATOM      3  C   UNL d   1     -41.207-121.981 -50.507  0.00  0.00     0.281 A 
ATOM      4  C   UNL d   1     -41.362-122.344 -52.095  0.00  0.00     0.102 A 
ATOM      5  C   UNL d   1     -41.123-121.386 -51.060  0.00  0.00     0.064 A 
ATOM      6  C   UNL d   1     -41.201-121.570 -51.863  0.00  0.00     0.026 A 
ATOM      7  O   UNL d   1     -41.128-121.798 -49.705  0.00  0.00    -0.265 OA
ENDROOT
BRANCH   4   8
ATOM      8  C   UNL d   1     -41.439-122.525 -52.885  0.00  0.00     0.021 A 
ATOM      9  C   UNL d   1     -41.811-121.987 -53.407  0.00  0.00     0.028 A 
ATOM     10  C   UNL d   1     -41.885-122.176 -54.199  0.00  0.00     0.116 A 
ATOM     11  C   UNL d   1     -41.596-122.892 -54.490  0.00  0.00     0.116 A 
ATOM     12  C   UNL d   1     -41.223-123.434 -53.972  0.00  0.00     0.026 A 
ATOM     13  C   UNL d   1     -41.151-123.241 -53.176  0.00  0.00     0.004 A 
BRANCH  10  14
ATOM     14  O   UNL d   1     -42.251-121.647 -54.711  0.00  0.00    -0.326 OA
ATOM     15  C   UNL d   1     -43.066-121.666 -54.821  0.00  0.00     0.181 C 
ENDBRANCH  10  14
BRANCH  11  16
ATOM     16  O   UNL d   1     -41.669-123.086 -55.290  0.00  0.00    -0.326 OA
ATOM     17  C   UNL d   1     -41.207-123.695 -55.602  0.00  0.00     0.181 C 
ENDBRANCH  11  16
ENDBRANCH   4   8
BRANCH   1  18
ATOM     18  C   UNL d   1     -41.449-123.346 -50.163  0.00  0.00     0.104 C 
BRANCH  18  19
ATOM     19  C   UNL d   1     -42.188-123.503 -49.848  0.00  0.00     0.019 A 
ATOM     20  C   UNL d   1     -42.826-123.660 -50.347  0.00  0.00     0.002 A 
ATOM     21  C   UNL d   1     -43.568-123.818 -50.030  0.00  0.00     0.000 A 
ATOM     22  C   UNL d   1     -43.664-123.816 -49.204  0.00  0.00     0.000 A 
ATOM     23  C   UNL d   1     -43.028-123.659 -48.708  0.00  0.00     0.000 A 
ATOM     24  C   UNL d   1     -42.285-123.501 -49.035  0.00  0.00     0.002 A 
ENDBRANCH  18  19
ENDBRANCH   1  18
TORSDOF 5
ENDMDL
