MODEL 1
REMARK VINA RESULT:      -9.3      0.000      0.000
REMARK  5 active torsions:
REMARK  status: ('A' for Active; 'I' for Inactive)
REMARK    1  A    between atoms: C_16  and  N_3 
REMARK    2  A    between atoms: C_11  and  C_6 
REMARK       I    between atoms: N_20  and  C_11 
REMARK    3  A    between atoms: C_21  and  N_20 
REMARK    4  A    between atoms: C_23  and  C_21 
REMARK    5  A    between atoms: C_22  and  C_23 
ROOT
ATOM      1  C   UNL d   1      53.068  32.576  53.616  0.00  0.00     0.155 A 
ATOM      2  C   UNL d   1      52.436  32.340  53.137  0.00  0.00     0.091 A 
ATOM      3  N   UNL d   1      53.162  33.367  53.814  0.00  0.00    -0.275 N 
ATOM      4  N   UNL d   1      53.600  32.013  53.893  0.00  0.00    -0.210 NA
ATOM      5  C   UNL d   1      52.626  33.946  53.539  0.00  0.00     0.175 A 
ATOM      6  C   UNL d   1      51.991  33.710  53.057  0.00  0.00     0.094 A 
ATOM      7  C   UNL d   1      52.336  31.546  52.934  0.00  0.00     0.269 A 
ATOM      8  N   UNL d   1      52.872  30.985  53.214  0.00  0.00    -0.258 N 
ATOM      9  C   UNL d   1      53.510  31.213  53.696  0.00  0.00     0.152 A 
ATOM     10  C   UNL d   1      51.891  32.907  52.852  0.00  0.00     0.016 A 
ATOM     11  N   UNL d   1      52.723  34.739  53.739  0.00  0.00    -0.128 N 
ATOM     12  C   UNL d   1      52.778  30.184  53.013  0.00  0.00     0.084 A 
ATOM     13  O   UNL d   1      51.704  31.311  52.455  0.00  0.00    -0.266 OA
ATOM     14  C   UNL d   1      54.038  30.654  53.970  0.00  0.00     0.038 A 
ATOM     15  C   UNL d   1      53.314  29.636  53.295  0.00  0.00     0.019 A 
ATOM     16  C   UNL d   1      53.948  29.872  53.776  0.00  0.00     0.005 A 
ENDROOT
BRANCH   6  17
ATOM     17  C   UNL d   1      51.455  34.271  52.778  0.00  0.00     0.282 C 
ATOM     18  O   UNL d   1      51.704  34.872  52.273  0.00  0.00    -0.265 OA
ATOM     19  N   UNL d   1      50.656  34.229  53.008  0.00  0.00    -0.206 NA
BRANCH  19  20
ATOM     20  C   UNL d   1      50.119  34.790  52.729  0.00  0.00     0.102 C 
BRANCH  20  21
ATOM     21  C   UNL d   1      49.317  34.606  52.692  0.00  0.00     0.021 C 
BRANCH  21  22
ATOM     22  C   UNL d   1      48.754  35.208  52.662  0.00  0.00     0.002 A 
ATOM     23  C   UNL d   1      48.330  35.334  51.969  0.00  0.00     0.000 A 
ATOM     24  C   UNL d   1      47.767  35.933  51.931  0.00  0.00     0.000 A 
ATOM     25  C   UNL d   1      47.633  36.404  52.599  0.00  0.00     0.000 A 
ATOM     26  C   UNL d   1      48.065  36.269  53.293  0.00  0.00     0.000 A 
ATOM     27  C   UNL d   1      48.621  35.673  53.319  0.00  0.00     0.000 A 
ENDBRANCH  21  22
ENDBRANCH  20  21
ENDBRANCH  19  20
ENDBRANCH   6  17
BRANCH   3  28
ATOM     28  C   UNL d   1      53.796  33.603  54.296  0.00  0.00     0.067 C 
ATOM     29  C   UNL d   1      53.682  33.685  55.116  0.00  0.00     0.019 C 
ATOM     30  C   UNL d   1      54.535  33.756  53.965  0.00  0.00     0.019 C 
ENDBRANCH   3  28
TORSDOF 5
ENDMDL
MODEL 2
REMARK VINA RESULT:      -9.1      1.229      2.504
REMARK  5 active torsions:
REMARK  status: ('A' for Active; 'I' for Inactive)
REMARK    1  A    between atoms: C_16  and  N_3 
REMARK    2  A    between atoms: C_11  and  C_6 
REMARK       I    between atoms: N_20  and  C_11 
REMARK    3  A    between atoms: C_21  and  N_20 
REMARK    4  A    between atoms: C_23  and  C_21 
REMARK    5  A    between atoms: C_22  and  C_23 
ROOT
ATOM      1  C   UNL d   1      52.744  33.269  53.660  0.00  0.00     0.155 A 
ATOM      2  C   UNL d   1      52.611  34.080  53.756  0.00  0.00     0.091 A 
ATOM      3  N   UNL d   1      52.235  32.820  53.198  0.00  0.00    -0.275 N 
ATOM      4  N   UNL d   1      53.389  32.916  54.029  0.00  0.00    -0.210 NA
ATOM      5  C   UNL d   1      51.577  33.170  52.818  0.00  0.00     0.175 A 
ATOM      6  C   UNL d   1      51.444  33.984  52.915  0.00  0.00     0.094 A 
ATOM      7  C   UNL d   1      53.120  34.536  54.220  0.00  0.00     0.269 A 
ATOM      8  N   UNL d   1      53.765  34.178  54.588  0.00  0.00    -0.258 N 
ATOM      9  C   UNL d   1      53.906  33.364  54.497  0.00  0.00     0.152 A 
ATOM     10  C   UNL d   1      51.958  34.445  53.384  0.00  0.00     0.016 A 
ATOM     11  N   UNL d   1      51.068  32.717  52.356  0.00  0.00    -0.128 N 
ATOM     12  C   UNL d   1      54.281  34.632  55.056  0.00  0.00     0.084 A 
ATOM     13  O   UNL d   1      52.987  35.347  54.316  0.00  0.00    -0.266 OA
ATOM     14  C   UNL d   1      54.546  33.014  54.864  0.00  0.00     0.038 A 
ATOM     15  C   UNL d   1      54.917  34.268  55.417  0.00  0.00     0.019 A 
ATOM     16  C   UNL d   1      55.051  33.454  55.320  0.00  0.00     0.005 A 
ENDROOT
BRANCH   6  17
ATOM     17  C   UNL d   1      50.798  34.342  52.546  0.00  0.00     0.282 C 
ATOM     18  O   UNL d   1      50.802  34.475  51.734  0.00  0.00    -0.265 OA
ATOM     19  N   UNL d   1      50.138  34.572  53.000  0.00  0.00    -0.206 NA
BRANCH  19  20
ATOM     20  C   UNL d   1      49.493  34.930  52.632  0.00  0.00     0.102 C 
BRANCH  20  21
ATOM     21  C   UNL d   1      48.876  35.229  53.087  0.00  0.00     0.021 C 
BRANCH  21  22
ATOM     22  C   UNL d   1      48.245  35.619  52.728  0.00  0.00     0.002 A 
ATOM     23  C   UNL d   1      47.955  36.314  53.059  0.00  0.00     0.000 A 
ATOM     24  C   UNL d   1      47.325  36.709  52.706  0.00  0.00     0.000 A 
ATOM     25  C   UNL d   1      46.990  36.399  52.015  0.00  0.00     0.000 A 
ATOM     26  C   UNL d   1      47.290  35.699  51.689  0.00  0.00     0.000 A 
ATOM     27  C   UNL d   1      47.914  35.316  52.047  0.00  0.00     0.000 A 
ENDBRANCH  21  22
ENDBRANCH  20  21
ENDBRANCH  19  20
ENDBRANCH   6  17
BRANCH   3  28
ATOM     28  C   UNL d   1      52.369  32.006  53.101  0.00  0.00     0.067 C 
ATOM     29  C   UNL d   1      51.950  31.462  53.571  0.00  0.00     0.019 C 
ATOM     30  C   UNL d   1      52.912  31.737  52.544  0.00  0.00     0.019 C 
ENDBRANCH   3  28
TORSDOF 5
ENDMDL
MODEL 3
REMARK VINA RESULT:      -7.2      8.833     10.489
REMARK  5 active torsions:
REMARK  status: ('A' for Active; 'I' for Inactive)
REMARK    1  A    between atoms: C_16  and  N_3 
REMARK    2  A    between atoms: C_11  and  C_6 
REMARK       I    between atoms: N_20  and  C_11 
REMARK    3  A    between atoms: C_21  and  N_20 
REMARK    4  A    between atoms: C_23  and  C_21 
REMARK    5  A    between atoms: C_22  and  C_23 
ROOT
ATOM      1  C   UNL d   1      44.870  29.894  57.668  0.00  0.00     0.155 A 
ATOM      2  C   UNL d   1      44.867  29.662  56.875  0.00  0.00     0.091 A 
ATOM      3  N   UNL d   1      45.009  29.341  58.259  0.00  0.00    -0.275 N 
ATOM      4  N   UNL d   1      44.732  30.681  57.863  0.00  0.00    -0.210 NA
ATOM      5  C   UNL d   1      45.150  28.538  58.072  0.00  0.00     0.175 A 
ATOM      6  C   UNL d   1      45.147  28.305  57.274  0.00  0.00     0.094 A 
ATOM      7  C   UNL d   1      44.728  30.214  56.276  0.00  0.00     0.269 A 
ATOM      8  N   UNL d   1      44.591  31.003  56.476  0.00  0.00    -0.258 N 
ATOM      9  C   UNL d   1      44.591  31.244  57.271  0.00  0.00     0.152 A 
ATOM     10  C   UNL d   1      45.006  28.864  56.670  0.00  0.00     0.016 A 
ATOM     11  N   UNL d   1      45.289  27.985  58.666  0.00  0.00    -0.128 N 
ATOM     12  C   UNL d   1      44.450  31.564  55.879  0.00  0.00     0.084 A 
ATOM     13  O   UNL d   1      44.726  29.983  55.482  0.00  0.00    -0.266 OA
ATOM     14  C   UNL d   1      44.455  32.026  57.463  0.00  0.00     0.038 A 
ATOM     15  C   UNL d   1      44.315  32.342  56.086  0.00  0.00     0.019 A 
ATOM     16  C   UNL d   1      44.317  32.575  56.883  0.00  0.00     0.005 A 
ENDROOT
BRANCH   6  17
ATOM     17  C   UNL d   1      45.284  27.516  57.075  0.00  0.00     0.282 C 
ATOM     18  O   UNL d   1      45.999  27.156  57.265  0.00  0.00    -0.265 OA
ATOM     19  N   UNL d   1      44.696  27.082  56.677  0.00  0.00    -0.206 NA
BRANCH  19  20
ATOM     20  C   UNL d   1      44.832  26.293  56.478  0.00  0.00     0.102 C 
BRANCH  20  21
ATOM     21  C   UNL d   1      44.315  25.904  55.969  0.00  0.00     0.021 C 
BRANCH  21  22
ATOM     22  C   UNL d   1      44.450  25.118  55.761  0.00  0.00     0.002 A 
ATOM     23  C   UNL d   1      44.520  24.913  54.968  0.00  0.00     0.000 A 
ATOM     24  C   UNL d   1      44.654  24.130  54.753  0.00  0.00     0.000 A 
ATOM     25  C   UNL d   1      44.718  23.554  55.344  0.00  0.00     0.000 A 
ATOM     26  C   UNL d   1      44.646  23.770  56.141  0.00  0.00     0.000 A 
ATOM     27  C   UNL d   1      44.513  24.549  56.342  0.00  0.00     0.000 A 
ENDBRANCH  21  22
ENDBRANCH  20  21
ENDBRANCH  19  20
ENDBRANCH   6  17
BRANCH   3  28
ATOM     28  C   UNL d   1      45.011  29.574  59.056  0.00  0.00     0.067 C 
ATOM     29  C   UNL d   1      45.674  29.967  59.368  0.00  0.00     0.019 C 
ATOM     30  C   UNL d   1      44.362  29.416  59.538  0.00  0.00     0.019 C 
ENDBRANCH   3  28
TORSDOF 5
ENDMDL
MODEL 4
REMARK VINA RESULT:      -6.4      2.528      6.835
REMARK  5 active torsions:
REMARK  status: ('A' for Active; 'I' for Inactive)
REMARK    1  A    between atoms: C_16  and  N_3 
REMARK    2  A    between atoms: C_11  and  C_6 
REMARK       I    between atoms: N_20  and  C_11 
REMARK    3  A    between atoms: C_21  and  N_20 
REMARK    4  A    between atoms: C_23  and  C_21 
REMARK    5  A    between atoms: C_22  and  C_23 
ROOT
ATOM      1  C   UNL d   1      46.565  35.935  53.089  0.00  0.00     0.155 A 
ATOM      2  C   UNL d   1      47.062  35.858  52.433  0.00  0.00     0.091 A 
ATOM      3  N   UNL d   1      46.875  35.899  53.848  0.00  0.00    -0.275 N 
ATOM      4  N   UNL d   1      45.758  36.049  52.977  0.00  0.00    -0.210 NA
ATOM      5  C   UNL d   1      47.694  35.784  53.973  0.00  0.00     0.175 A 
ATOM      6  C   UNL d   1      48.194  35.706  53.314  0.00  0.00     0.094 A 
ATOM      7  C   UNL d   1      46.756  35.893  51.667  0.00  0.00     0.269 A 
ATOM      8  N   UNL d   1      45.946  36.007  51.558  0.00  0.00    -0.258 N 
ATOM      9  C   UNL d   1      45.439  36.086  52.212  0.00  0.00     0.152 A 
ATOM     10  C   UNL d   1      47.883  35.742  52.540  0.00  0.00     0.016 A 
ATOM     11  N   UNL d   1      48.003  35.748  54.736  0.00  0.00    -0.128 N 
ATOM     12  C   UNL d   1      45.630  36.044  50.791  0.00  0.00     0.084 A 
ATOM     13  O   UNL d   1      47.253  35.815  51.011  0.00  0.00    -0.266 OA
ATOM     14  C   UNL d   1      44.638  36.199  52.100  0.00  0.00     0.038 A 
ATOM     15  C   UNL d   1      44.827  36.157  50.693  0.00  0.00     0.019 A 
ATOM     16  C   UNL d   1      44.328  36.235  51.352  0.00  0.00     0.005 A 
ENDROOT
BRANCH   6  17
ATOM     17  C   UNL d   1      49.004  35.592  53.422  0.00  0.00     0.282 C 
ATOM     18  O   UNL d   1      49.446  36.127  53.865  0.00  0.00    -0.265 OA
ATOM     19  N   UNL d   1      49.377  34.930  53.081  0.00  0.00    -0.206 NA
BRANCH  19  20
ATOM     20  C   UNL d   1      50.187  34.815  53.189  0.00  0.00     0.102 C 
BRANCH  20  21
ATOM     21  C   UNL d   1      50.559  34.169  52.841  0.00  0.00     0.021 C 
BRANCH  21  22
ATOM     22  C   UNL d   1      51.346  33.998  53.016  0.00  0.00     0.002 A 
ATOM     23  C   UNL d   1      51.916  34.586  52.940  0.00  0.00     0.000 A 
ATOM     24  C   UNL d   1      52.704  34.424  53.113  0.00  0.00     0.000 A 
ATOM     25  C   UNL d   1      52.914  33.663  53.364  0.00  0.00     0.000 A 
ATOM     26  C   UNL d   1      52.332  33.077  53.436  0.00  0.00     0.000 A 
ATOM     27  C   UNL d   1      51.555  33.249  53.262  0.00  0.00     0.000 A 
ENDBRANCH  21  22
ENDBRANCH  20  21
ENDBRANCH  19  20
ENDBRANCH   6  17
BRANCH   3  28
ATOM     28  C   UNL d   1      46.375  35.977  54.507  0.00  0.00     0.067 C 
ATOM     29  C   UNL d   1      46.338  36.703  54.911  0.00  0.00     0.019 C 
ATOM     30  C   UNL d   1      45.919  35.340  54.761  0.00  0.00     0.019 C 
ENDBRANCH   3  28
TORSDOF 5
ENDMDL
