MODEL 1
REMARK VINA RESULT:     -10.3      0.000      0.000
REMARK  3 active torsions:
REMARK  status: ('A' for Active; 'I' for Inactive)
REMARK    1  A    between atoms: N_3  and  C_1 
REMARK       I    between atoms: C_2  and  N_3 
REMARK       I    between atoms: N_14  and  C_2 
REMARK    2  A    between atoms: C_16  and  N_14 
REMARK    3  A    between atoms: C_17  and  C_16 
ROOT
ATOM      1  C   UNL d   1      53.867  32.735  53.737  0.00  0.00     0.127 A 
ATOM      2  C   UNL d   1      54.568  33.156  54.512  0.00  0.00    -0.006 A 
ATOM      3  C   UNL d   1      53.092  33.825  54.013  0.00  0.00     0.046 A 
ATOM      4  C   UNL d   1      54.256  33.635  54.652  0.00  0.00    -0.006 A 
ATOM      5  C   UNL d   1      54.403  32.988  54.280  0.00  0.00    -0.001 A 
ATOM      6  C   UNL d   1      54.390  32.261  53.742  0.00  0.00    -0.001 A 
ATOM      7  C   UNL d   1      53.305  33.120  53.642  0.00  0.00     0.040 A 
ATOM      8  C   UNL d   1      53.725  33.664  54.319  0.00  0.00    -0.022 A 
ATOM      9  C   UNL d   1      53.612  34.046  54.522  0.00  0.00    -0.022 A 
ATOM     10  C   UNL d   1      55.261  33.929  55.539  0.00  0.00    -0.001 A 
ENDROOT
BRANCH   1  11
ATOM     11  N   UNL d   1      53.183  32.539  53.137  0.00  0.00    -0.213 NA
ATOM     12  C   UNL d   1      52.922  31.679  53.031  0.00  0.00     0.365 C 
ATOM     13  O   UNL d   1      52.258  31.486  52.448  0.00  0.00    -0.243 OA
ATOM     14  N   UNL d   1      53.340  30.964  53.528  0.00  0.00    -0.186 NA
BRANCH  14  15
ATOM     15  C   UNL d   1      53.057  30.102  53.402  0.00  0.00     0.149 C 
BRANCH  15  16
ATOM     16  C   UNL d   1      53.415  29.423  53.898  0.00  0.00     0.255 C 
ATOM     17  O   UNL d   1      52.886  28.897  54.473  0.00  0.00    -0.281 OA
ENDBRANCH  15  16
ENDBRANCH  14  15
ENDBRANCH   1  11
TORSDOF 3
ENDMDL
MODEL 2
REMARK VINA RESULT:      -9.9      1.534      2.398
REMARK  3 active torsions:
REMARK  status: ('A' for Active; 'I' for Inactive)
REMARK    1  A    between atoms: N_3  and  C_1 
REMARK       I    between atoms: C_2  and  N_3 
REMARK       I    between atoms: N_14  and  C_2 
REMARK    2  A    between atoms: C_16  and  N_14 
REMARK    3  A    between atoms: C_17  and  C_16 
ROOT
ATOM      1  C   UNL d   1      52.478  33.332  53.135  0.00  0.00     0.127 A 
ATOM      2  C   UNL d   1      51.441  33.703  52.898  0.00  0.00    -0.006 A 
ATOM      3  C   UNL d   1      52.761  34.641  53.402  0.00  0.00     0.046 A 
ATOM      4  C   UNL d   1      51.533  34.275  53.006  0.00  0.00    -0.006 A 
ATOM      5  C   UNL d   1      51.723  33.540  52.954  0.00  0.00    -0.001 A 
ATOM      6  C   UNL d   1      52.141  32.738  52.956  0.00  0.00    -0.001 A 
ATOM      7  C   UNL d   1      52.908  33.833  53.327  0.00  0.00     0.040 A 
ATOM      8  C   UNL d   1      52.125  34.379  53.187  0.00  0.00    -0.022 A 
ATOM      9  C   UNL d   1      52.043  34.816  53.226  0.00  0.00    -0.022 A 
ATOM     10  C   UNL d   1      50.217  34.466  52.665  0.00  0.00    -0.001 A 
ENDROOT
BRANCH   1  11
ATOM     11  N   UNL d   1      53.370  33.207  53.367  0.00  0.00    -0.213 NA
ATOM     12  C   UNL d   1      53.684  32.364  53.474  0.00  0.00     0.365 C 
ATOM     13  O   UNL d   1      54.552  32.240  53.699  0.00  0.00    -0.243 OA
ATOM     14  N   UNL d   1      53.110  31.597  53.352  0.00  0.00    -0.186 NA
BRANCH  14  15
ATOM     15  C   UNL d   1      53.453  30.755  53.467  0.00  0.00     0.149 C 
BRANCH  15  16
ATOM     16  C   UNL d   1      52.939  30.021  53.289  0.00  0.00     0.255 C 
ATOM     17  O   UNL d   1      52.959  29.257  53.840  0.00  0.00    -0.281 OA
ENDBRANCH  15  16
ENDBRANCH  14  15
ENDBRANCH   1  11
TORSDOF 3
ENDMDL
MODEL 3
REMARK VINA RESULT:      -9.7      2.076      3.386
REMARK  3 active torsions:
REMARK  status: ('A' for Active; 'I' for Inactive)
REMARK    1  A    between atoms: N_3  and  C_1 
REMARK       I    between atoms: C_2  and  N_3 
REMARK       I    between atoms: N_14  and  C_2 
REMARK    2  A    between atoms: C_16  and  N_14 
REMARK    3  A    between atoms: C_17  and  C_16 
ROOT
ATOM      1  C   UNL d   1      53.127  32.634  53.231  0.00  0.00     0.127 A 
ATOM      2  C   UNL d   1      53.096  31.508  53.229  0.00  0.00    -0.006 A 
ATOM      3  C   UNL d   1      54.110  32.491  54.167  0.00  0.00     0.046 A 
ATOM      4  C   UNL d   1      53.517  31.415  53.630  0.00  0.00    -0.006 A 
ATOM      5  C   UNL d   1      53.061  31.834  53.188  0.00  0.00    -0.001 A 
ATOM      6  C   UNL d   1      52.623  32.496  52.756  0.00  0.00    -0.001 A 
ATOM      7  C   UNL d   1      53.592  32.892  53.667  0.00  0.00     0.040 A 
ATOM      8  C   UNL d   1      53.753  31.957  53.841  0.00  0.00    -0.022 A 
ATOM      9  C   UNL d   1      54.032  31.737  54.111  0.00  0.00    -0.022 A 
ATOM     10  C   UNL d   1      53.285  30.075  53.441  0.00  0.00    -0.001 A 
ENDROOT
BRANCH   1  11
ATOM     11  N   UNL d   1      53.287  33.541  53.362  0.00  0.00    -0.213 NA
ATOM     12  C   UNL d   1      52.616  34.132  53.221  0.00  0.00     0.365 C 
ATOM     13  O   UNL d   1      52.770  35.015  53.348  0.00  0.00    -0.243 OA
ATOM     14  N   UNL d   1      51.740  33.838  52.938  0.00  0.00    -0.186 NA
BRANCH  14  15
ATOM     15  C   UNL d   1      51.080  34.458  52.802  0.00  0.00     0.149 C 
BRANCH  15  16
ATOM     16  C   UNL d   1      50.203  34.201  52.798  0.00  0.00     0.255 C 
ATOM     17  O   UNL d   1      49.589  34.543  52.171  0.00  0.00    -0.281 OA
ENDBRANCH  15  16
ENDBRANCH  14  15
ENDBRANCH   1  11
TORSDOF 3
ENDMDL
MODEL 4
REMARK VINA RESULT:      -9.6      1.548      3.486
REMARK  3 active torsions:
REMARK  status: ('A' for Active; 'I' for Inactive)
REMARK    1  A    between atoms: N_3  and  C_1 
REMARK       I    between atoms: C_2  and  N_3 
REMARK       I    between atoms: N_14  and  C_2 
REMARK    2  A    between atoms: C_16  and  N_14 
REMARK    3  A    between atoms: C_17  and  C_16 
ROOT
ATOM      1  C   UNL d   1      53.256  31.091  53.388  0.00  0.00     0.127 A 
ATOM      2  C   UNL d   1      53.523  30.193  54.014  0.00  0.00    -0.006 A 
ATOM      3  C   UNL d   1      52.433  30.234  52.716  0.00  0.00     0.046 A 
ATOM      4  C   UNL d   1      53.177  29.800  53.743  0.00  0.00    -0.006 A 
ATOM      5  C   UNL d   1      53.483  30.486  53.866  0.00  0.00    -0.001 A 
ATOM      6  C   UNL d   1      53.723  31.357  53.845  0.00  0.00    -0.001 A 
ATOM      7  C   UNL d   1      52.797  30.952  52.895  0.00  0.00     0.040 A 
ATOM      8  C   UNL d   1      52.857  30.066  53.274  0.00  0.00    -0.022 A 
ATOM      9  C   UNL d   1      52.661  29.676  53.179  0.00  0.00    -0.022 A 
ATOM     10  C   UNL d   1      53.664  28.880  54.638  0.00  0.00    -0.001 A 
ENDROOT
BRANCH   1  11
ATOM     11  N   UNL d   1      52.924  31.711  52.780  0.00  0.00    -0.213 NA
ATOM     12  C   UNL d   1      52.897  32.586  53.013  0.00  0.00     0.365 C 
ATOM     13  O   UNL d   1      52.573  33.191  52.423  0.00  0.00    -0.243 OA
ATOM     14  N   UNL d   1      53.206  32.884  53.878  0.00  0.00    -0.186 NA
BRANCH  14  15
ATOM     15  C   UNL d   1      53.167  33.774  54.088  0.00  0.00     0.149 C 
BRANCH  15  16
ATOM     16  C   UNL d   1      53.566  34.085  54.849  0.00  0.00     0.255 C 
ATOM     17  O   UNL d   1      53.319  34.906  55.238  0.00  0.00    -0.281 OA
ENDBRANCH  15  16
ENDBRANCH  14  15
ENDBRANCH   1  11
TORSDOF 3
ENDMDL
MODEL 5
REMARK VINA RESULT:      -8.4      2.095      3.317
REMARK  3 active torsions:
REMARK  status: ('A' for Active; 'I' for Inactive)
REMARK    1  A    between atoms: N_3  and  C_1 
REMARK       I    between atoms: C_2  and  N_3 
REMARK       I    between atoms: N_14  and  C_2 
REMARK    2  A    between atoms: C_16  and  N_14 
REMARK    3  A    between atoms: C_17  and  C_16 
ROOT
ATOM      1  C   UNL d   1      52.279  33.329  53.035  0.00  0.00     0.127 A 
ATOM      2  C   UNL d   1      51.481  34.122  53.070  0.00  0.00    -0.006 A 
ATOM      3  C   UNL d   1      51.241  32.445  53.104  0.00  0.00     0.046 A 
ATOM      4  C   UNL d   1      51.013  33.766  53.101  0.00  0.00    -0.006 A 
ATOM      5  C   UNL d   1      51.754  33.936  53.057  0.00  0.00    -0.001 A 
ATOM      6  C   UNL d   1      52.656  33.925  53.006  0.00  0.00    -0.001 A 
ATOM      7  C   UNL d   1      52.027  32.689  53.057  0.00  0.00     0.040 A 
ATOM      8  C   UNL d   1      51.188  33.163  53.099  0.00  0.00    -0.022 A 
ATOM      9  C   UNL d   1      50.761  33.033  53.124  0.00  0.00    -0.022 A 
ATOM     10  C   UNL d   1      50.249  34.906  53.131  0.00  0.00    -0.001 A 
ENDROOT
BRANCH   1  11
ATOM     11  N   UNL d   1      52.793  32.554  53.015  0.00  0.00    -0.213 NA
ATOM     12  C   UNL d   1      53.561  32.521  53.493  0.00  0.00     0.365 C 
ATOM     13  O   UNL d   1      54.062  31.768  53.475  0.00  0.00    -0.243 OA
ATOM     14  N   UNL d   1      53.855  33.275  54.021  0.00  0.00    -0.186 NA
BRANCH  14  15
ATOM     15  C   UNL d   1      54.636  33.216  54.495  0.00  0.00     0.149 C 
BRANCH  15  16
ATOM     16  C   UNL d   1      54.760  33.726  55.243  0.00  0.00     0.255 C 
ATOM     17  O   UNL d   1      55.582  34.147  55.425  0.00  0.00    -0.281 OA
ENDBRANCH  15  16
ENDBRANCH  14  15
ENDBRANCH   1  11
TORSDOF 3
ENDMDL
