MODEL 1
REMARK VINA RESULT:      62.4      0.000      0.000
REMARK  4 active torsions:
REMARK  status: ('A' for Active; 'I' for Inactive)
REMARK    1  A    between atoms: S_3  and  N_1 
REMARK    2  A    between atoms: C_9  and  S_3 
REMARK    3  A    between atoms: C_10  and  N_5 
REMARK    4  A    between atoms: C_15  and  C_10 
ROOT
ATOM      1  N   UNL d   1      45.011 -15.318  44.617  0.00  0.00    -0.195 N 
ATOM      2  C   UNL d   1      45.164 -14.615  44.217  0.00  0.00     0.193 A 
ATOM      3  C   UNL d   1      44.512 -14.124  44.291  0.00  0.00     0.185 A 
ATOM      4  N   UNL d   1      43.941 -14.516  44.741  0.00  0.00    -0.269 N 
ATOM      5  C   UNL d   1      44.256 -15.257  44.940  0.00  0.00     0.179 A 
ATOM      6  N   UNL d   1      45.819 -14.357  43.792  0.00  0.00    -0.223 NA
ATOM      7  N   UNL d   1      44.508 -13.374  43.943  0.00  0.00    -0.224 NA
ATOM      8  C   UNL d   1      45.822 -13.619  43.445  0.00  0.00     0.101 A 
ATOM      9  C   UNL d   1      45.166 -13.120  43.518  0.00  0.00     0.101 A 
ATOM     10  C   UNL d   1      45.173 -12.378  43.168  0.00  0.00     0.021 A 
ATOM     11  C   UNL d   1      46.477 -13.364  43.021  0.00  0.00     0.021 A 
ATOM     12  C   UNL d   1      45.836 -12.132  42.744  0.00  0.00     0.002 A 
ATOM     13  C   UNL d   1      46.484 -12.623  42.671  0.00  0.00     0.002 A 
ENDROOT
BRANCH   1  14
ATOM     14  S   UNL d   1      45.742 -15.827  44.514  0.00  0.00     0.274 S 
ATOM     15  O   UNL d   1      46.520 -15.455  44.712  0.00  0.00    -0.200 OA
ATOM     16  O   UNL d   1      46.016 -15.087  44.788  0.00  0.00    -0.200 OA
BRANCH  14  17
ATOM     17  C   UNL d   1      45.858 -16.604  44.264  0.00  0.00     0.104 A 
ATOM     18  C   UNL d   1      45.764 -16.799  43.469  0.00  0.00     0.015 A 
ATOM     19  C   UNL d   1      45.881 -17.584  43.214  0.00  0.00     0.030 A 
ATOM     20  C   UNL d   1      46.092 -18.161  43.762  0.00  0.00     0.140 A 
ATOM     21  C   UNL d   1      46.187 -17.962  44.569  0.00  0.00     0.030 A 
ATOM     22  F   UNL d   1      46.195 -18.923  43.449  0.00  0.00    -0.204 F 
ATOM     23  C   UNL d   1      46.070 -17.187  44.813  0.00  0.00     0.015 A 
ENDBRANCH  14  17
ENDBRANCH   1  14
BRANCH   4  24
ATOM     24  C   UNL d   1      43.197 -14.226  44.952  0.00  0.00     0.108 C 
BRANCH  24  25
ATOM     25  C   UNL d   1      42.520 -14.691  44.835  0.00  0.00     0.118 A 
ATOM     26  O   UNL d   1      42.470 -15.510  44.944  0.00  0.00    -0.304 OA
ATOM     27  C   UNL d   1      41.686 -15.753  44.765  0.00  0.00     0.123 A 
ATOM     28  C   UNL d   1      41.259 -15.075  44.546  0.00  0.00     0.029 A 
ATOM     29  C   UNL d   1      41.777 -14.423  44.590  0.00  0.00     0.028 A 
ENDBRANCH  24  25
ENDBRANCH   4  24
TORSDOF 4
ENDMDL
