MODEL 1
REMARK VINA RESULT:      30.5      0.000      0.000
REMARK  5 active torsions:
REMARK  status: ('A' for Active; 'I' for Inactive)
REMARK    1  A    between atoms: C_2  and  S_1 
REMARK    2  A    between atoms: N_3  and  S_1 
REMARK    3  A    between atoms: C_14  and  N_3 
REMARK    4  A    between atoms: C_15  and  C_14 
REMARK    5  A    between atoms: O_18  and  C_16 
ROOT
ATOM      1  S   UNL d   1     -55.165 -99.925 -45.049  0.00  0.00     0.285 S 
ATOM      2  O   UNL d   1     -55.222 -99.207 -45.451  0.00  0.00    -0.198 OA
ATOM      3  O   UNL d   1     -54.813-100.263 -45.704  0.00  0.00    -0.198 OA
ENDROOT
BRANCH   1   4
ATOM      4  C   UNL d   1     -55.110-100.640 -44.640  0.00  0.00     0.107 A 
ATOM      5  C   UNL d   1     -54.937-100.648 -43.832  0.00  0.00     0.037 A 
ATOM      6  C   UNL d   1     -54.884-101.366 -43.430  0.00  0.00     0.095 A 
ATOM      7  C   UNL d   1     -55.005-102.077 -43.837  0.00  0.00     0.024 A 
ATOM      8  C   UNL d   1     -55.178-102.066 -44.642  0.00  0.00     0.003 A 
ATOM      9  C   UNL d   1     -55.230-101.347 -45.044  0.00  0.00     0.013 A 
BRANCH   6  10
ATOM     10  O   UNL d   1     -54.712-101.378 -42.625  0.00  0.00    -0.328 OA
ATOM     11  C   UNL d   1     -55.032-101.965 -42.142  0.00  0.00     0.181 C 
ENDBRANCH   6  10
ENDBRANCH   1   4
BRANCH   1  12
ATOM     12  N   UNL d   1     -55.520 -99.579 -44.389  0.00  0.00    -0.157 NA
BRANCH  12  13
ATOM     13  C   UNL d   1     -55.915 -98.851 -44.468  0.00  0.00     0.112 C 
BRANCH  13  14
ATOM     14  C   UNL d   1     -56.739 -98.826 -44.450  0.00  0.00     0.022 A 
ATOM     15  C   UNL d   1     -57.130 -98.838 -43.725  0.00  0.00     0.028 A 
ATOM     16  C   UNL d   1     -57.954 -98.812 -43.707  0.00  0.00     0.119 A 
ATOM     17  O   UNL d   1     -58.487 -98.816 -43.081  0.00  0.00    -0.300 OA
ATOM     18  C   UNL d   1     -58.390 -98.775 -44.407  0.00  0.00     0.119 A 
ATOM     19  C   UNL d   1     -59.253 -98.781 -43.388  0.00  0.00     0.304 A 
ATOM     20  O   UNL d   1     -59.179 -98.756 -44.215  0.00  0.00    -0.300 OA
ATOM     21  C   UNL d   1     -57.988 -98.763 -45.133  0.00  0.00     0.026 A 
ATOM     22  C   UNL d   1     -57.163 -98.789 -45.157  0.00  0.00     0.004 A 
ENDBRANCH  13  14
ENDBRANCH  12  13
ENDBRANCH   1  12
TORSDOF 5
ENDMDL
