MODEL 1
REMARK VINA RESULT:      -4.5      0.000      0.000
REMARK  3 active torsions:
REMARK  status: ('A' for Active; 'I' for Inactive)
REMARK    1  A    between atoms: C_6  and  C_1 
REMARK    2  A    between atoms: O_18  and  C_11 
REMARK    3  A    between atoms: O_19  and  C_13 
ROOT
ATOM      1  C   UNL d   1      57.315   0.028  31.568  0.00  0.00     0.064 A 
ATOM      2  C   UNL d   1      57.404  -0.721  31.222  0.00  0.00     0.199 A 
ATOM      3  C   UNL d   1      57.861  -0.813  30.544  0.00  0.00     0.062 A 
ATOM      4  C   UNL d   1      57.687   0.682  31.230  0.00  0.00     0.126 A 
ATOM      5  C   UNL d   1      58.234  -0.159  30.206  0.00  0.00     0.106 A 
ATOM      6  O   UNL d   1      58.149   0.586  30.546  0.00  0.00    -0.305 OA
ATOM      7  C   UNL d   1      57.947  -1.557  30.204  0.00  0.00     0.009 A 
ATOM      8  C   UNL d   1      58.692  -0.250  29.528  0.00  0.00     0.067 A 
ATOM      9  O   UNL d   1      57.031  -1.375  31.560  0.00  0.00    -0.286 OA
ATOM     10  C   UNL d   1      58.777  -0.995  29.188  0.00  0.00     0.198 A 
ATOM     11  C   UNL d   1      58.404  -1.649  29.526  0.00  0.00     0.042 A 
ATOM     12  O   UNL d   1      59.240  -1.093  28.501  0.00  0.00    -0.286 OA
ENDROOT
BRANCH   1  13
ATOM     13  C   UNL d   1      56.857   0.119  32.246  0.00  0.00     0.007 A 
ATOM     14  C   UNL d   1      57.212   0.343  32.958  0.00  0.00     0.026 A 
ATOM     15  C   UNL d   1      56.755   0.435  33.637  0.00  0.00     0.116 A 
ATOM     16  C   UNL d   1      55.941   0.303  33.607  0.00  0.00     0.116 A 
ATOM     17  C   UNL d   1      55.585   0.079  32.894  0.00  0.00     0.026 A 
ATOM     18  C   UNL d   1      56.044  -0.013  32.216  0.00  0.00     0.002 A 
BRANCH  15  19
ATOM     19  O   UNL d   1      57.110   0.658  34.344  0.00  0.00    -0.326 OA
ATOM     20  C   UNL d   1      57.933   0.682  34.404  0.00  0.00     0.181 C 
ENDBRANCH  15  19
BRANCH  16  21
ATOM     21  O   UNL d   1      55.475   0.393  34.284  0.00  0.00    -0.326 OA
ATOM     22  C   UNL d   1      54.656   0.512  34.207  0.00  0.00     0.181 C 
ENDBRANCH  16  21
ENDBRANCH   1  13
TORSDOF 3
ENDMDL
MODEL 2
REMARK VINA RESULT:      -3.7      0.857      4.473
REMARK  3 active torsions:
REMARK  status: ('A' for Active; 'I' for Inactive)
REMARK    1  A    between atoms: C_6  and  C_1 
REMARK    2  A    between atoms: O_18  and  C_11 
REMARK    3  A    between atoms: O_19  and  C_13 
ROOT
ATOM      1  C   UNL d   1      57.284  -0.266  31.343  0.00  0.00     0.064 A 
ATOM      2  C   UNL d   1      57.458   0.194  32.012  0.00  0.00     0.199 A 
ATOM      3  C   UNL d   1      56.969   0.165  32.673  0.00  0.00     0.062 A 
ATOM      4  C   UNL d   1      56.619  -0.753  31.343  0.00  0.00     0.126 A 
ATOM      5  C   UNL d   1      56.303  -0.323  32.673  0.00  0.00     0.106 A 
ATOM      6  O   UNL d   1      56.127  -0.781  32.013  0.00  0.00    -0.305 OA
ATOM      7  C   UNL d   1      57.144   0.622  33.335  0.00  0.00     0.009 A 
ATOM      8  C   UNL d   1      55.813  -0.353  33.335  0.00  0.00     0.067 A 
ATOM      9  O   UNL d   1      58.123   0.682  32.012  0.00  0.00    -0.286 OA
ATOM     10  C   UNL d   1      55.990   0.105  33.996  0.00  0.00     0.198 A 
ATOM     11  C   UNL d   1      56.655   0.592  33.996  0.00  0.00     0.042 A 
ATOM     12  O   UNL d   1      55.497   0.078  34.669  0.00  0.00    -0.286 OA
ENDROOT
BRANCH   1  13
ATOM     13  C   UNL d   1      57.773  -0.236  30.682  0.00  0.00     0.007 A 
ATOM     14  C   UNL d   1      58.113  -0.929  30.387  0.00  0.00     0.026 A 
ATOM     15  C   UNL d   1      58.603  -0.900  29.726  0.00  0.00     0.116 A 
ATOM     16  C   UNL d   1      58.754  -0.178  29.356  0.00  0.00     0.116 A 
ATOM     17  C   UNL d   1      58.414   0.516  29.651  0.00  0.00     0.026 A 
ATOM     18  C   UNL d   1      57.925   0.486  30.313  0.00  0.00     0.002 A 
BRANCH  15  19
ATOM     19  O   UNL d   1      58.940  -1.591  29.434  0.00  0.00    -0.326 OA
ATOM     20  C   UNL d   1      58.556  -2.314  29.537  0.00  0.00     0.181 C 
ENDBRANCH  15  19
BRANCH  16  21
ATOM     21  O   UNL d   1      59.245  -0.141  28.691  0.00  0.00    -0.326 OA
ATOM     22  C   UNL d   1      59.629   0.571  28.504  0.00  0.00     0.181 C 
ENDBRANCH  16  21
ENDBRANCH   1  13
TORSDOF 3
ENDMDL
MODEL 3
REMARK VINA RESULT:      -2.4      0.757      1.424
REMARK  3 active torsions:
REMARK  status: ('A' for Active; 'I' for Inactive)
REMARK    1  A    between atoms: C_6  and  C_1 
REMARK    2  A    between atoms: O_18  and  C_11 
REMARK    3  A    between atoms: O_19  and  C_13 
ROOT
ATOM      1  C   UNL d   1      56.998   0.039  32.171  0.00  0.00     0.064 A 
ATOM      2  C   UNL d   1      57.022  -0.706  31.805  0.00  0.00     0.199 A 
ATOM      3  C   UNL d   1      57.420  -0.805  31.092  0.00  0.00     0.062 A 
ATOM      4  C   UNL d   1      57.375   0.681  31.816  0.00  0.00     0.126 A 
ATOM      5  C   UNL d   1      57.797  -0.163  30.737  0.00  0.00     0.106 A 
ATOM      6  O   UNL d   1      57.775   0.578  31.095  0.00  0.00    -0.305 OA
ATOM      7  C   UNL d   1      57.441  -1.545  30.733  0.00  0.00     0.009 A 
ATOM      8  C   UNL d   1      58.195  -0.261  30.023  0.00  0.00     0.067 A 
ATOM      9  O   UNL d   1      56.645  -1.349  32.160  0.00  0.00    -0.286 OA
ATOM     10  C   UNL d   1      58.216  -1.002  29.664  0.00  0.00     0.198 A 
ATOM     11  C   UNL d   1      57.839  -1.644  30.019  0.00  0.00     0.042 A 
ATOM     12  O   UNL d   1      58.618  -1.107  28.941  0.00  0.00    -0.286 OA
ENDROOT
BRANCH   1  13
ATOM     13  C   UNL d   1      56.600   0.137  32.884  0.00  0.00     0.007 A 
ATOM     14  C   UNL d   1      55.778   0.048  32.916  0.00  0.00     0.026 A 
ATOM     15  C   UNL d   1      55.380   0.146  33.630  0.00  0.00     0.116 A 
ATOM     16  C   UNL d   1      55.800   0.335  34.314  0.00  0.00     0.116 A 
ATOM     17  C   UNL d   1      56.621   0.424  34.283  0.00  0.00     0.026 A 
ATOM     18  C   UNL d   1      57.020   0.326  33.569  0.00  0.00     0.002 A 
BRANCH  15  19
ATOM     19  O   UNL d   1      54.563   0.057  33.659  0.00  0.00    -0.326 OA
ATOM     20  C   UNL d   1      54.070   0.682  33.442  0.00  0.00     0.181 C 
ENDBRANCH  15  19
BRANCH  16  21
ATOM     21  O   UNL d   1      55.406   0.435  35.035  0.00  0.00    -0.326 OA
ATOM     22  C   UNL d   1      55.843   0.601  35.722  0.00  0.00     0.181 C 
ENDBRANCH  16  21
ENDBRANCH   1  13
TORSDOF 3
ENDMDL
