MODEL 1
REMARK VINA RESULT:     227.3      0.000      0.000
REMARK  7 active torsions:
REMARK  status: ('A' for Active; 'I' for Inactive)
REMARK    1  A    between atoms: C_4  and  S_1 
REMARK    2  A    between atoms: N_6  and  S_1 
REMARK    3  A    between atoms: S_2  and  N_3 
REMARK    4  A    between atoms: C_8  and  S_2 
REMARK    5  A    between atoms: N_3  and  C_7 
REMARK    6  A    between atoms: C_20  and  N_13 
REMARK    7  A    between atoms: C_18  and  C_20 
ROOT
ATOM      1  C   UNL d   1     -56.366-102.056 -41.233  0.00  0.00     0.105 A 
ATOM      2  C   UNL d   1     -56.520-102.001 -42.040  0.00  0.00     0.029 A 
ATOM      3  C   UNL d   1     -55.967-102.276 -42.587  0.00  0.00     0.076 A 
ATOM      4  C   UNL d   1     -55.647-102.393 -40.971  0.00  0.00     0.013 A 
ATOM      5  C   UNL d   1     -55.263-102.606 -42.330  0.00  0.00     0.017 A 
ATOM      6  C   UNL d   1     -55.100-102.666 -41.525  0.00  0.00     0.002 A 
ATOM      7  C   UNL d   1     -57.229-101.668 -42.296  0.00  0.00     0.002 C 
ATOM      8  C   UNL d   1     -54.712-102.880 -42.880  0.00  0.00     0.002 C 
ENDROOT
BRANCH   1   9
ATOM      9  S   UNL d   1     -56.918-101.781 -40.685  0.00  0.00     0.272 S 
ATOM     10  O   UNL d   1     -57.512-101.265 -40.924  0.00  0.00    -0.200 OA
ATOM     11  O   UNL d   1     -56.872-102.026 -39.898  0.00  0.00    -0.200 OA
BRANCH   9  12
ATOM     12  N   UNL d   1     -57.467-101.510 -40.132  0.00  0.00    -0.226 N 
ATOM     13  C   UNL d   1     -58.109-101.068 -40.383  0.00  0.00     0.111 A 
ATOM     14  C   UNL d   1     -58.658-100.797 -39.830  0.00  0.00     0.100 A 
ATOM     15  N   UNL d   1     -58.560-100.971 -39.031  0.00  0.00    -0.300 N 
ATOM     16  C   UNL d   1     -57.912-101.417 -38.786  0.00  0.00     0.100 A 
ATOM     17  C   UNL d   1     -57.363-101.688 -39.340  0.00  0.00     0.111 A 
BRANCH  15  18
ATOM     18  C   UNL d   1     -59.113-100.697 -38.484  0.00  0.00     0.080 C 
BRANCH  18  19
ATOM     19  C   UNL d   1     -59.253 -99.886 -38.400  0.00  0.00     0.018 C 
ATOM     20  C   UNL d   1     -59.860 -99.623 -37.907  0.00  0.00     0.002 C 
ATOM     21  C   UNL d   1     -58.787 -99.343 -38.807  0.00  0.00     0.002 C 
ENDBRANCH  18  19
ENDBRANCH  15  18
ENDBRANCH   9  12
ENDBRANCH   1   9
BRANCH   3  22
ATOM     22  N   UNL d   1     -56.129-102.216 -43.392  0.00  0.00    -0.229 N 
ATOM     23  C   UNL d   1     -56.486-102.849 -43.794  0.00  0.00     0.111 C 
BRANCH  22  24
ATOM     24  S   UNL d   1     -55.938-101.526 -43.801  0.00  0.00     0.271 S 
ATOM     25  O   UNL d   1     -56.103-102.220 -44.219  0.00  0.00    -0.200 OA
ATOM     26  O   UNL d   1     -55.967-101.530 -42.974  0.00  0.00    -0.200 OA
BRANCH  24  27
ATOM     27  C   UNL d   1     -55.747-100.836 -44.211  0.00  0.00     0.104 A 
ATOM     28  C   UNL d   1     -55.026-100.776 -44.606  0.00  0.00     0.013 A 
ATOM     29  C   UNL d   1     -54.838-100.097 -45.009  0.00  0.00     0.001 A 
ATOM     30  C   UNL d   1     -55.360 -99.469 -45.027  0.00  0.00     0.000 A 
ATOM     31  C   UNL d   1     -56.084 -99.515 -44.637  0.00  0.00     0.001 A 
ATOM     32  C   UNL d   1     -55.169 -98.779 -45.437  0.00  0.00     0.000 C 
ATOM     33  C   UNL d   1     -56.280-100.203 -44.226  0.00  0.00     0.013 A 
ENDBRANCH  24  27
ENDBRANCH  22  24
ENDBRANCH   3  22
TORSDOF 7
ENDMDL
MODEL 2
REMARK VINA RESULT:     228.9      2.057      3.170
REMARK  7 active torsions:
REMARK  status: ('A' for Active; 'I' for Inactive)
REMARK    1  A    between atoms: C_4  and  S_1 
REMARK    2  A    between atoms: N_6  and  S_1 
REMARK    3  A    between atoms: S_2  and  N_3 
REMARK    4  A    between atoms: C_8  and  S_2 
REMARK    5  A    between atoms: N_3  and  C_7 
REMARK    6  A    between atoms: C_20  and  N_13 
REMARK    7  A    between atoms: C_18  and  C_20 
ROOT
ATOM      1  C   UNL d   1     -59.165 -99.969 -42.437  0.00  0.00     0.105 A 
ATOM      2  C   UNL d   1     -58.532 -99.980 -42.964  0.00  0.00     0.029 A 
ATOM      3  C   UNL d   1     -58.583 -99.575 -43.681  0.00  0.00     0.076 A 
ATOM      4  C   UNL d   1     -59.858 -99.546 -42.632  0.00  0.00     0.013 A 
ATOM      5  C   UNL d   1     -59.264 -99.160 -43.871  0.00  0.00     0.017 A 
ATOM      6  C   UNL d   1     -59.901 -99.143 -43.351  0.00  0.00     0.002 A 
ATOM      7  C   UNL d   1     -57.848-100.398 -42.771  0.00  0.00     0.002 C 
ATOM      8  C   UNL d   1     -59.311 -98.756 -44.589  0.00  0.00     0.002 C 
ENDROOT
BRANCH   1   9
ATOM      9  S   UNL d   1     -59.114-100.374 -41.720  0.00  0.00     0.272 S 
ATOM     10  O   UNL d   1     -58.961 -99.962 -41.025  0.00  0.00    -0.200 OA
ATOM     11  O   UNL d   1     -59.216-101.193 -41.704  0.00  0.00    -0.200 OA
BRANCH   9  12
ATOM     12  N   UNL d   1     -59.064-100.786 -41.007  0.00  0.00    -0.226 N 
ATOM     13  C   UNL d   1     -58.486-101.358 -40.910  0.00  0.00     0.111 A 
ATOM     14  C   UNL d   1     -58.436-101.770 -40.197  0.00  0.00     0.100 A 
ATOM     15  N   UNL d   1     -58.966-101.606 -39.587  0.00  0.00    -0.300 N 
ATOM     16  C   UNL d   1     -59.544-101.029 -39.692  0.00  0.00     0.100 A 
ATOM     17  C   UNL d   1     -59.593-100.617 -40.405  0.00  0.00     0.111 A 
BRANCH  15  18
ATOM     18  C   UNL d   1     -58.910-102.022 -38.877  0.00  0.00     0.080 C 
BRANCH  18  19
ATOM     19  C   UNL d   1     -59.582-102.147 -38.411  0.00  0.00     0.018 C 
ATOM     20  C   UNL d   1     -59.871-101.538 -37.936  0.00  0.00     0.002 C 
ATOM     21  C   UNL d   1     -59.961-102.878 -38.421  0.00  0.00     0.002 C 
ENDBRANCH  18  19
ENDBRANCH  15  18
ENDBRANCH   9  12
ENDBRANCH   1   9
BRANCH   3  22
ATOM     22  N   UNL d   1     -57.946 -99.591 -44.202  0.00  0.00    -0.229 N 
ATOM     23  C   UNL d   1     -57.857 -98.994 -44.772  0.00  0.00     0.111 C 
BRANCH  22  24
ATOM     24  S   UNL d   1     -57.393-100.202 -44.159  0.00  0.00     0.271 S 
ATOM     25  O   UNL d   1     -57.177 -99.434 -43.942  0.00  0.00    -0.200 OA
ATOM     26  O   UNL d   1     -58.166-100.351 -44.418  0.00  0.00    -0.200 OA
BRANCH  24  27
ATOM     27  C   UNL d   1     -56.840-100.813 -44.116  0.00  0.00     0.104 A 
ATOM     28  C   UNL d   1     -56.202-100.829 -44.638  0.00  0.00     0.013 A 
ATOM     29  C   UNL d   1     -55.658-101.430 -44.596  0.00  0.00     0.001 A 
ATOM     30  C   UNL d   1     -55.738-102.022 -44.038  0.00  0.00     0.000 A 
ATOM     31  C   UNL d   1     -56.371-102.018 -43.510  0.00  0.00     0.001 A 
ATOM     32  C   UNL d   1     -55.185-102.632 -43.995  0.00  0.00     0.000 C 
ATOM     33  C   UNL d   1     -56.926-101.409 -43.549  0.00  0.00     0.013 A 
ENDBRANCH  24  27
ENDBRANCH  22  24
ENDBRANCH   3  22
TORSDOF 7
ENDMDL
