MODEL 1
REMARK VINA RESULT:      -3.6      0.000      0.000
REMARK  6 active torsions:
REMARK  status: ('A' for Active; 'I' for Inactive)
REMARK    1  A    between atoms: S_6  and  C_1 
REMARK    2  A    between atoms: C_7  and  S_6 
REMARK    3  A    between atoms: C_8  and  C_7 
REMARK    4  A    between atoms: O_14  and  C_9 
REMARK    5  A    between atoms: C_17  and  O_14 
REMARK    6  A    between atoms: C_18  and  C_17 
ROOT
ATOM      1  C   UNL d   1      32.557  20.734 -21.492  0.00  0.00     0.038 C 
ENDROOT
BRANCH   1   2
ATOM      2  S   UNL d   1      33.236  20.383 -21.804  0.00  0.00    -0.048 SA
BRANCH   2   3
ATOM      3  C   UNL d   1      33.169  19.793 -22.377  0.00  0.00     0.194 A 
ATOM      4  N   UNL d   1      33.133  19.899 -23.192  0.00  0.00    -0.220 NA
ATOM      5  C   UNL d   1      33.067  19.137 -23.546  0.00  0.00     0.101 A 
ATOM      6  C   UNL d   1      33.012  18.913 -24.337  0.00  0.00     0.021 A 
ATOM      7  C   UNL d   1      33.062  18.565 -22.957  0.00  0.00     0.101 A 
ATOM      8  C   UNL d   1      32.954  18.134 -24.519  0.00  0.00     0.002 A 
ATOM      9  C   UNL d   1      32.949  17.562 -23.930  0.00  0.00     0.002 A 
ATOM     10  C   UNL d   1      33.002  17.767 -23.157  0.00  0.00     0.021 A 
ATOM     11  N   UNL d   1      33.125  18.963 -22.228  0.00  0.00    -0.220 NA
ENDBRANCH   2   3
ENDBRANCH   1   2
BRANCH   1  12
ATOM     12  C   UNL d   1      32.654  21.342 -20.942  0.00  0.00     0.007 A 
ATOM     13  C   UNL d   1      32.200  22.025 -21.038  0.00  0.00     0.003 A 
ATOM     14  C   UNL d   1      32.277  22.648 -20.503  0.00  0.00     0.025 A 
ATOM     15  C   UNL d   1      32.807  22.589 -19.873  0.00  0.00     0.100 A 
ATOM     16  C   UNL d   1      33.240  21.921 -19.793  0.00  0.00     0.025 A 
ATOM     17  C   UNL d   1      33.164  21.298 -20.328  0.00  0.00     0.003 A 
BRANCH  15  18
ATOM     18  O   UNL d   1      32.884  23.213 -19.338  0.00  0.00    -0.305 OA
BRANCH  18  19
ATOM     19  C   UNL d   1      32.825  23.070 -18.527  0.00  0.00     0.123 C 
BRANCH  19  20
ATOM     20  C   UNL d   1      32.710  23.698 -18.006  0.00  0.00     0.027 C 
ATOM     21  C   UNL d   1      32.853  23.594 -17.195  0.00  0.00     0.002 C 
ENDBRANCH  19  20
ENDBRANCH  18  19
ENDBRANCH  15  18
ENDBRANCH   1  12
TORSDOF 6
ENDMDL
MODEL 2
REMARK VINA RESULT:      -3.1      2.017      5.651
REMARK  6 active torsions:
REMARK  status: ('A' for Active; 'I' for Inactive)
REMARK    1  A    between atoms: S_6  and  C_1 
REMARK    2  A    between atoms: C_7  and  S_6 
REMARK    3  A    between atoms: C_8  and  C_7 
REMARK    4  A    between atoms: O_14  and  C_9 
REMARK    5  A    between atoms: C_17  and  O_14 
REMARK    6  A    between atoms: C_18  and  C_17 
ROOT
ATOM      1  C   UNL d   1      33.195  20.253 -22.264  0.00  0.00     0.038 C 
ENDROOT
BRANCH   1   2
ATOM      2  S   UNL d   1      32.840  20.320 -21.521  0.00  0.00    -0.048 SA
BRANCH   2   3
ATOM      3  C   UNL d   1      32.779  21.058 -21.158  0.00  0.00     0.194 A 
ATOM      4  N   UNL d   1      33.145  21.296 -20.461  0.00  0.00    -0.220 NA
ATOM      5  C   UNL d   1      32.917  22.094 -20.312  0.00  0.00     0.101 A 
ATOM      6  C   UNL d   1      33.116  22.605 -19.697  0.00  0.00     0.021 A 
ATOM      7  C   UNL d   1      32.417  22.348 -20.911  0.00  0.00     0.101 A 
ATOM      8  C   UNL d   1      32.815  23.348 -19.695  0.00  0.00     0.002 A 
ATOM      9  C   UNL d   1      32.314  23.602 -20.294  0.00  0.00     0.002 A 
ATOM     10  C   UNL d   1      32.113  23.114 -20.897  0.00  0.00     0.021 A 
ATOM     11  N   UNL d   1      32.326  21.711 -21.441  0.00  0.00    -0.220 NA
ENDBRANCH   2   3
ENDBRANCH   1   2
BRANCH   1  12
ATOM     12  C   UNL d   1      33.121  19.535 -22.665  0.00  0.00     0.007 A 
ATOM     13  C   UNL d   1      33.240  18.840 -22.236  0.00  0.00     0.003 A 
ATOM     14  C   UNL d   1      33.172  18.108 -22.611  0.00  0.00     0.025 A 
ATOM     15  C   UNL d   1      32.985  18.072 -23.414  0.00  0.00     0.100 A 
ATOM     16  C   UNL d   1      32.872  18.754 -23.817  0.00  0.00     0.025 A 
ATOM     17  C   UNL d   1      32.940  19.486 -23.442  0.00  0.00     0.003 A 
BRANCH  15  18
ATOM     18  O   UNL d   1      32.917  17.340 -23.789  0.00  0.00    -0.305 OA
BRANCH  18  19
ATOM     19  C   UNL d   1      32.269  16.854 -23.631  0.00  0.00     0.123 C 
BRANCH  19  20
ATOM     20  C   UNL d   1      32.182  16.139 -24.032  0.00  0.00     0.027 C 
ATOM     21  C   UNL d   1      31.616  15.589 -23.779  0.00  0.00     0.002 C 
ENDBRANCH  19  20
ENDBRANCH  18  19
ENDBRANCH  15  18
ENDBRANCH   1  12
TORSDOF 6
ENDMDL
