MODEL 1
REMARK VINA RESULT:      -3.2      0.000      0.000
REMARK  2 active torsions:
REMARK  status: ('A' for Active; 'I' for Inactive)
REMARK    1  A    between atoms: C_3  and  C_4 
REMARK       I    between atoms: N_7  and  C_3 
REMARK    2  A    between atoms: C_11  and  N_7 
ROOT
ATOM      1  C   UNL d   1      33.126  21.039 -23.042  0.00  0.00     0.300 A 
ATOM      2  O   UNL d   1      33.087  20.235 -23.251  0.00  0.00    -0.268 OA
ATOM      3  C   UNL d   1      32.970  19.659 -22.659  0.00  0.00     0.161 A 
ATOM      4  C   UNL d   1      33.051  21.271 -22.251  0.00  0.00     0.064 A 
ATOM      5  C   UNL d   1      32.934  20.690 -21.664  0.00  0.00     0.007 A 
ATOM      6  C   UNL d   1      32.894  19.889 -21.865  0.00  0.00     0.030 A 
ATOM      7  O   UNL d   1      33.241  21.607 -23.625  0.00  0.00    -0.259 OA
ATOM      8  C   UNL d   1      32.859  20.923 -20.872  0.00  0.00     0.000 A 
ATOM      9  C   UNL d   1      33.090  22.064 -22.047  0.00  0.00     0.005 A 
ATOM     10  C   UNL d   1      32.900  21.723 -20.678  0.00  0.00     0.000 A 
ATOM     11  C   UNL d   1      33.015  22.291 -21.261  0.00  0.00     0.000 A 
ENDROOT
BRANCH   3  12
ATOM     12  C   UNL d   1      32.931  18.866 -22.869  0.00  0.00     0.302 C 
ATOM     13  N   UNL d   1      32.598  18.641 -23.584  0.00  0.00    -0.206 NA
ATOM     14  O   UNL d   1      33.230  18.297 -22.356  0.00  0.00    -0.263 OA
BRANCH  13  15
ATOM     15  C   UNL d   1      32.564  17.846 -23.786  0.00  0.00     0.085 A 
ATOM     16  C   UNL d   1      33.171  17.495 -24.206  0.00  0.00     0.019 A 
ATOM     17  C   UNL d   1      33.139  16.707 -24.407  0.00  0.00     0.002 A 
ATOM     18  C   UNL d   1      32.484  16.247 -24.185  0.00  0.00     0.000 A 
ATOM     19  C   UNL d   1      31.871  16.597 -23.762  0.00  0.00     0.002 A 
ATOM     20  C   UNL d   1      32.450  15.455 -24.386  0.00  0.00     0.000 C 
ATOM     21  C   UNL d   1      31.904  17.402 -23.557  0.00  0.00     0.019 A 
ENDBRANCH  13  15
ENDBRANCH   3  12
TORSDOF 2
ENDMDL
MODEL 2
REMARK VINA RESULT:      -2.9      1.636      2.697
REMARK  2 active torsions:
REMARK  status: ('A' for Active; 'I' for Inactive)
REMARK    1  A    between atoms: C_3  and  C_4 
REMARK       I    between atoms: N_7  and  C_3 
REMARK    2  A    between atoms: C_11  and  N_7 
ROOT
ATOM      1  C   UNL d   1      31.859  22.925 -20.956  0.00  0.00     0.300 A 
ATOM      2  O   UNL d   1      32.022  22.301 -21.482  0.00  0.00    -0.268 OA
ATOM      3  C   UNL d   1      32.597  21.731 -21.282  0.00  0.00     0.161 A 
ATOM      4  C   UNL d   1      32.263  22.983 -20.236  0.00  0.00     0.064 A 
ATOM      5  C   UNL d   1      32.836  22.410 -20.042  0.00  0.00     0.007 A 
ATOM      6  C   UNL d   1      33.004  21.788 -20.560  0.00  0.00     0.030 A 
ATOM      7  O   UNL d   1      31.292  23.486 -21.154  0.00  0.00    -0.259 OA
ATOM      8  C   UNL d   1      33.241  22.469 -19.321  0.00  0.00     0.000 A 
ATOM      9  C   UNL d   1      32.100  23.599 -19.720  0.00  0.00     0.005 A 
ATOM     10  C   UNL d   1      33.070  23.092 -18.808  0.00  0.00     0.000 A 
ATOM     11  C   UNL d   1      32.503  23.654 -19.006  0.00  0.00     0.000 A 
ENDROOT
BRANCH   3  12
ATOM     12  C   UNL d   1      32.756  21.117 -21.803  0.00  0.00     0.302 C 
ATOM     13  N   UNL d   1      32.442  20.370 -21.672  0.00  0.00    -0.206 NA
ATOM     14  O   UNL d   1      33.234  21.255 -22.457  0.00  0.00    -0.263 OA
BRANCH  13  15
ATOM     15  C   UNL d   1      32.607  19.761 -22.198  0.00  0.00     0.085 A 
ATOM     16  C   UNL d   1      32.313  19.778 -22.962  0.00  0.00     0.019 A 
ATOM     17  C   UNL d   1      32.474  19.176 -23.485  0.00  0.00     0.002 A 
ATOM     18  C   UNL d   1      32.943  18.533 -23.247  0.00  0.00     0.000 A 
ATOM     19  C   UNL d   1      33.241  18.512 -22.480  0.00  0.00     0.002 A 
ATOM     20  C   UNL d   1      33.107  17.927 -23.772  0.00  0.00     0.000 C 
ATOM     21  C   UNL d   1      33.076  19.128 -21.946  0.00  0.00     0.019 A 
ENDBRANCH  13  15
ENDBRANCH   3  12
TORSDOF 2
ENDMDL
MODEL 3
REMARK VINA RESULT:      -2.8      1.092      4.803
REMARK  2 active torsions:
REMARK  status: ('A' for Active; 'I' for Inactive)
REMARK    1  A    between atoms: C_3  and  C_4 
REMARK       I    between atoms: N_7  and  C_3 
REMARK    2  A    between atoms: C_11  and  N_7 
ROOT
ATOM      1  C   UNL d   1      33.084  18.249 -22.430  0.00  0.00     0.300 A 
ATOM      2  O   UNL d   1      33.090  19.007 -22.087  0.00  0.00    -0.268 OA
ATOM      3  C   UNL d   1      32.934  19.675 -22.560  0.00  0.00     0.161 A 
ATOM      4  C   UNL d   1      32.924  18.154 -23.236  0.00  0.00     0.064 A 
ATOM      5  C   UNL d   1      32.768  18.827 -23.703  0.00  0.00     0.007 A 
ATOM      6  C   UNL d   1      32.772  19.583 -23.369  0.00  0.00     0.030 A 
ATOM      7  O   UNL d   1      33.239  17.589 -21.963  0.00  0.00    -0.259 OA
ATOM      8  C   UNL d   1      32.607  18.732 -24.510  0.00  0.00     0.000 A 
ATOM      9  C   UNL d   1      32.918  17.406 -23.572  0.00  0.00     0.005 A 
ATOM     10  C   UNL d   1      32.604  17.976 -24.839  0.00  0.00     0.000 A 
ATOM     11  C   UNL d   1      32.759  17.316 -24.372  0.00  0.00     0.000 A 
ENDROOT
BRANCH   3  12
ATOM     12  C   UNL d   1      32.940  20.422 -22.218  0.00  0.00     0.302 C 
ATOM     13  N   UNL d   1      32.656  20.533 -21.456  0.00  0.00    -0.206 NA
ATOM     14  O   UNL d   1      33.234  21.060 -22.646  0.00  0.00    -0.263 OA
BRANCH  13  15
ATOM     15  C   UNL d   1      32.667  21.283 -21.123  0.00  0.00     0.085 A 
ATOM     16  C   UNL d   1      32.271  21.905 -21.479  0.00  0.00     0.019 A 
ATOM     17  C   UNL d   1      32.280  22.649 -21.151  0.00  0.00     0.002 A 
ATOM     18  C   UNL d   1      32.695  22.787 -20.444  0.00  0.00     0.000 A 
ATOM     19  C   UNL d   1      33.095  22.165 -20.083  0.00  0.00     0.002 A 
ATOM     20  C   UNL d   1      32.705  23.535 -20.113  0.00  0.00     0.000 C 
ATOM     21  C   UNL d   1      33.085  21.405 -20.419  0.00  0.00     0.019 A 
ENDBRANCH  13  15
ENDBRANCH   3  12
TORSDOF 2
ENDMDL
MODEL 4
REMARK VINA RESULT:      -2.7      1.005      4.576
REMARK  2 active torsions:
REMARK  status: ('A' for Active; 'I' for Inactive)
REMARK    1  A    between atoms: C_3  and  C_4 
REMARK       I    between atoms: N_7  and  C_3 
REMARK    2  A    between atoms: C_11  and  N_7 
ROOT
ATOM      1  C   UNL d   1      32.835  18.344 -24.286  0.00  0.00     0.300 A 
ATOM      2  O   UNL d   1      32.856  18.961 -23.728  0.00  0.00    -0.268 OA
ATOM      3  C   UNL d   1      32.956  18.783 -22.920  0.00  0.00     0.161 A 
ATOM      4  C   UNL d   1      32.913  17.556 -24.044  0.00  0.00     0.064 A 
ATOM      5  C   UNL d   1      33.014  17.386 -23.234  0.00  0.00     0.007 A 
ATOM      6  C   UNL d   1      33.035  17.993 -22.674  0.00  0.00     0.030 A 
ATOM      7  O   UNL d   1      32.736  18.519 -25.083  0.00  0.00    -0.259 OA
ATOM      8  C   UNL d   1      33.092  16.597 -22.992  0.00  0.00     0.000 A 
ATOM      9  C   UNL d   1      32.893  16.950 -24.596  0.00  0.00     0.005 A 
ATOM     10  C   UNL d   1      33.070  15.995 -23.555  0.00  0.00     0.000 A 
ATOM     11  C   UNL d   1      32.971  16.170 -24.352  0.00  0.00     0.000 A 
ENDROOT
BRANCH   3  12
ATOM     12  C   UNL d   1      32.976  19.394 -22.371  0.00  0.00     0.302 C 
ATOM     13  N   UNL d   1      32.735  20.150 -22.582  0.00  0.00    -0.206 NA
ATOM     14  O   UNL d   1      33.240  19.243 -21.607  0.00  0.00    -0.263 OA
BRANCH  13  15
ATOM     15  C   UNL d   1      32.758  20.754 -22.027  0.00  0.00     0.085 A 
ATOM     16  C   UNL d   1      32.334  20.699 -21.330  0.00  0.00     0.019 A 
ATOM     17  C   UNL d   1      32.355  21.296 -20.778  0.00  0.00     0.002 A 
ATOM     18  C   UNL d   1      32.812  21.976 -20.919  0.00  0.00     0.000 A 
ATOM     19  C   UNL d   1      33.241  22.036 -21.619  0.00  0.00     0.002 A 
ATOM     20  C   UNL d   1      32.835  22.578 -20.366  0.00  0.00     0.000 C 
ATOM     21  C   UNL d   1      33.218  21.425 -22.182  0.00  0.00     0.019 A 
ENDBRANCH  13  15
ENDBRANCH   3  12
TORSDOF 2
ENDMDL
MODEL 5
REMARK VINA RESULT:      -1.1      3.344      4.783
REMARK  2 active torsions:
REMARK  status: ('A' for Active; 'I' for Inactive)
REMARK    1  A    between atoms: C_3  and  C_4 
REMARK       I    between atoms: N_7  and  C_3 
REMARK    2  A    between atoms: C_11  and  N_7 
ROOT
ATOM      1  C   UNL d   1      32.234  16.393 -23.582  0.00  0.00     0.300 A 
ATOM      2  O   UNL d   1      31.463  16.108 -23.455  0.00  0.00    -0.268 OA
ATOM      3  C   UNL d   1      30.812  16.527 -23.765  0.00  0.00     0.161 A 
ATOM      4  C   UNL d   1      32.360  17.089 -24.012  0.00  0.00     0.064 A 
ATOM      5  C   UNL d   1      31.704  17.503 -24.319  0.00  0.00     0.007 A 
ATOM      6  C   UNL d   1      30.935  17.226 -24.197  0.00  0.00     0.030 A 
ATOM      7  O   UNL d   1      32.876  15.980 -23.276  0.00  0.00    -0.259 OA
ATOM      8  C   UNL d   1      31.829  18.200 -24.750  0.00  0.00     0.000 A 
ATOM      9  C   UNL d   1      33.120  17.368 -24.135  0.00  0.00     0.005 A 
ATOM     10  C   UNL d   1      32.599  18.472 -24.868  0.00  0.00     0.000 A 
ATOM     11  C   UNL d   1      33.241  18.059 -24.563  0.00  0.00     0.000 A 
ENDROOT
BRANCH   3  12
ATOM     12  C   UNL d   1      30.052  16.244 -23.639  0.00  0.00     0.302 C 
ATOM     13  N   UNL d   1      29.405  16.630 -23.964  0.00  0.00    -0.206 NA
ATOM     14  O   UNL d   1      29.943  15.568 -23.183  0.00  0.00    -0.263 OA
BRANCH  13  15
ATOM     15  C   UNL d   1      28.648  16.340 -23.832  0.00  0.00     0.085 A 
ATOM     16  C   UNL d   1      28.335  15.756 -24.312  0.00  0.00     0.019 A 
ATOM     17  C   UNL d   1      27.586  15.466 -24.184  0.00  0.00     0.002 A 
ATOM     18  C   UNL d   1      27.127  15.763 -23.559  0.00  0.00     0.000 A 
ATOM     19  C   UNL d   1      27.437  16.350 -23.074  0.00  0.00     0.002 A 
ATOM     20  C   UNL d   1      26.373  15.473 -23.429  0.00  0.00     0.000 C 
ATOM     21  C   UNL d   1      28.203  16.646 -23.205  0.00  0.00     0.019 A 
ENDBRANCH  13  15
ENDBRANCH   3  12
TORSDOF 2
ENDMDL
