MODEL 1
REMARK VINA RESULT:      -6.2      0.000      0.000
REMARK  0 active torsions:
REMARK  status: ('A' for Active; 'I' for Inactive)
ROOT
ATOM      1  C   UNL d   1     -46.553  12.083  23.526  0.00  0.00     0.286 A 
ATOM      2  N   UNL d   1     -47.224  11.663  23.584  0.00  0.00    -0.170 NA
ATOM      3  C   UNL d   1     -46.747  12.836  23.263  0.00  0.00     0.066 A 
ATOM      4  S   UNL d   1     -47.866  12.110  23.367  0.00  0.00     0.017 SA
ATOM      5  C   UNL d   1     -47.584  12.854  23.162  0.00  0.00     0.052 A 
ATOM      6  O   UNL d   1     -45.797  11.822  23.696  0.00  0.00    -0.265 OA
ATOM      7  C   UNL d   1     -46.295  13.502  23.102  0.00  0.00     0.005 A 
ATOM      8  C   UNL d   1     -47.956  13.537  22.900  0.00  0.00     0.008 A 
ATOM      9  C   UNL d   1     -46.667  14.194  22.838  0.00  0.00     0.000 A 
ATOM     10  C   UNL d   1     -47.504  14.212  22.736  0.00  0.00     0.001 A 
ENDROOT
TORSDOF 0
ENDMDL
MODEL 2
REMARK VINA RESULT:      -6.1      1.181      1.747
REMARK  0 active torsions:
REMARK  status: ('A' for Active; 'I' for Inactive)
ROOT
ATOM      1  C   UNL d   1     -46.189  12.396  23.327  0.00  0.00     0.286 A 
ATOM      2  N   UNL d   1     -46.178  13.139  23.049  0.00  0.00    -0.170 NA
ATOM      3  C   UNL d   1     -46.975  12.169  23.414  0.00  0.00     0.066 A 
ATOM      4  S   UNL d   1     -46.933  13.422  22.946  0.00  0.00     0.017 SA
ATOM      5  C   UNL d   1     -47.448  12.823  23.171  0.00  0.00     0.052 A 
ATOM      6  O   UNL d   1     -45.541  11.930  23.499  0.00  0.00    -0.265 OA
ATOM      7  C   UNL d   1     -47.327  11.476  23.675  0.00  0.00     0.005 A 
ATOM      8  C   UNL d   1     -48.267  12.773  23.193  0.00  0.00     0.008 A 
ATOM      9  C   UNL d   1     -48.153  11.421  23.698  0.00  0.00     0.000 A 
ATOM     10  C   UNL d   1     -48.627  12.074  23.455  0.00  0.00     0.001 A 
ENDROOT
TORSDOF 0
ENDMDL
MODEL 3
REMARK VINA RESULT:      -5.7      2.616      2.864
REMARK  0 active torsions:
REMARK  status: ('A' for Active; 'I' for Inactive)
ROOT
ATOM      1  C   UNL d   1     -49.007  11.475  23.087  0.00  0.00     0.286 A 
ATOM      2  N   UNL d   1     -49.506  11.375  23.696  0.00  0.00    -0.170 NA
ATOM      3  C   UNL d   1     -49.363  11.983  22.548  0.00  0.00     0.066 A 
ATOM      4  S   UNL d   1     -50.189  11.800  23.585  0.00  0.00     0.017 SA
ATOM      5  C   UNL d   1     -50.116  12.190  22.865  0.00  0.00     0.052 A 
ATOM      6  O   UNL d   1     -48.268  11.137  23.000  0.00  0.00    -0.265 OA
ATOM      7  C   UNL d   1     -49.120  12.285  21.824  0.00  0.00     0.005 A 
ATOM      8  C   UNL d   1     -50.614  12.697  22.454  0.00  0.00     0.008 A 
ATOM      9  C   UNL d   1     -49.620  12.797  21.407  0.00  0.00     0.000 A 
ATOM     10  C   UNL d   1     -50.373  13.004  21.724  0.00  0.00     0.001 A 
ENDROOT
TORSDOF 0
ENDMDL
MODEL 4
REMARK VINA RESULT:      -5.7      1.842      2.258
REMARK  0 active torsions:
REMARK  status: ('A' for Active; 'I' for Inactive)
ROOT
ATOM      1  C   UNL d   1     -48.309  14.581  22.637  0.00  0.00     0.286 A 
ATOM      2  N   UNL d   1     -48.931  14.096  22.721  0.00  0.00    -0.170 NA
ATOM      3  C   UNL d   1     -47.627  14.148  22.788  0.00  0.00     0.066 A 
ATOM      4  S   UNL d   1     -48.691  13.347  22.925  0.00  0.00     0.017 SA
ATOM      5  C   UNL d   1     -47.870  13.361  22.971  0.00  0.00     0.052 A 
ATOM      6  O   UNL d   1     -48.331  15.373  22.437  0.00  0.00    -0.265 OA
ATOM      7  C   UNL d   1     -46.831  14.346  22.787  0.00  0.00     0.005 A 
ATOM      8  C   UNL d   1     -47.313  12.786  23.151  0.00  0.00     0.008 A 
ATOM      9  C   UNL d   1     -46.265  13.768  22.968  0.00  0.00     0.000 A 
ATOM     10  C   UNL d   1     -46.508  12.982  23.151  0.00  0.00     0.001 A 
ENDROOT
TORSDOF 0
ENDMDL
MODEL 5
REMARK VINA RESULT:      -5.5      2.679      3.147
REMARK  0 active torsions:
REMARK  status: ('A' for Active; 'I' for Inactive)
ROOT
ATOM      1  C   UNL d   1     -48.906  12.645  21.606  0.00  0.00     0.286 A 
ATOM      2  N   UNL d   1     -49.552  12.934  21.248  0.00  0.00    -0.170 NA
ATOM      3  C   UNL d   1     -49.142  12.297  22.313  0.00  0.00     0.066 A 
ATOM      4  S   UNL d   1     -50.219  12.793  21.690  0.00  0.00     0.017 SA
ATOM      5  C   UNL d   1     -49.978  12.391  22.366  0.00  0.00     0.052 A 
ATOM      6  O   UNL d   1     -48.138  12.680  21.331  0.00  0.00    -0.265 OA
ATOM      7  C   UNL d   1     -48.729  11.914  22.909  0.00  0.00     0.005 A 
ATOM      8  C   UNL d   1     -50.388  12.101  23.015  0.00  0.00     0.008 A 
ATOM      9  C   UNL d   1     -49.139  11.618  23.566  0.00  0.00     0.000 A 
ATOM     10  C   UNL d   1     -49.975  11.713  23.619  0.00  0.00     0.001 A 
ENDROOT
TORSDOF 0
ENDMDL
MODEL 6
REMARK VINA RESULT:      -5.2      2.716      3.001
REMARK  0 active torsions:
REMARK  status: ('A' for Active; 'I' for Inactive)
ROOT
ATOM      1  C   UNL d   1     -49.085  13.239  21.444  0.00  0.00     0.286 A 
ATOM      2  N   UNL d   1     -49.843  13.025  21.342  0.00  0.00    -0.170 NA
ATOM      3  C   UNL d   1     -49.074  13.931  21.886  0.00  0.00     0.066 A 
ATOM      4  S   UNL d   1     -50.344  13.554  21.702  0.00  0.00     0.017 SA
ATOM      5  C   UNL d   1     -49.876  14.132  22.050  0.00  0.00     0.052 A 
ATOM      6  O   UNL d   1     -48.425  12.846  21.164  0.00  0.00    -0.265 OA
ATOM      7  C   UNL d   1     -48.463  14.405  22.161  0.00  0.00     0.005 A 
ATOM      8  C   UNL d   1     -50.055  14.804  22.487  0.00  0.00     0.008 A 
ATOM      9  C   UNL d   1     -48.639  15.084  22.603  0.00  0.00     0.000 A 
ATOM     10  C   UNL d   1     -49.441  15.285  22.766  0.00  0.00     0.001 A 
ENDROOT
TORSDOF 0
ENDMDL
MODEL 7
REMARK VINA RESULT:      -5.2      1.088      1.564
REMARK  0 active torsions:
REMARK  status: ('A' for Active; 'I' for Inactive)
ROOT
ATOM      1  C   UNL d   1     -47.491  11.821  23.356  0.00  0.00     0.286 A 
ATOM      2  N   UNL d   1     -46.751  12.085  23.468  0.00  0.00    -0.170 NA
ATOM      3  C   UNL d   1     -47.948  12.450  23.090  0.00  0.00     0.066 A 
ATOM      4  S   UNL d   1     -46.694  12.874  23.286  0.00  0.00     0.017 SA
ATOM      5  C   UNL d   1     -47.440  13.121  23.045  0.00  0.00     0.052 A 
ATOM      6  O   UNL d   1     -47.762  11.059  23.480  0.00  0.00    -0.265 OA
ATOM      7  C   UNL d   1     -48.739  12.514  22.884  0.00  0.00     0.005 A 
ATOM      8  C   UNL d   1     -47.732  13.846  22.795  0.00  0.00     0.008 A 
ATOM      9  C   UNL d   1     -49.038  13.244  22.630  0.00  0.00     0.000 A 
ATOM     10  C   UNL d   1     -48.530  13.915  22.585  0.00  0.00     0.001 A 
ENDROOT
TORSDOF 0
ENDMDL
MODEL 8
REMARK VINA RESULT:      -4.8      9.129      9.583
REMARK  0 active torsions:
REMARK  status: ('A' for Active; 'I' for Inactive)
ROOT
ATOM      1  C   UNL d   1     -40.633  14.310  17.872  0.00  0.00     0.286 A 
ATOM      2  N   UNL d   1     -40.922  14.958  17.518  0.00  0.00    -0.170 NA
ATOM      3  C   UNL d   1     -39.894  14.152  17.549  0.00  0.00     0.066 A 
ATOM      4  S   UNL d   1     -40.401  15.244  16.964  0.00  0.00     0.017 SA
ATOM      5  C   UNL d   1     -39.746  14.747  16.970  0.00  0.00     0.052 A 
ATOM      6  O   UNL d   1     -40.997  13.869  18.456  0.00  0.00    -0.265 OA
ATOM      7  C   UNL d   1     -39.339  13.565  17.691  0.00  0.00     0.005 A 
ATOM      8  C   UNL d   1     -39.045  14.746  16.543  0.00  0.00     0.008 A 
ATOM      9  C   UNL d   1     -38.630  13.559  17.261  0.00  0.00     0.000 A 
ATOM     10  C   UNL d   1     -38.482  14.154  16.683  0.00  0.00     0.001 A 
ENDROOT
TORSDOF 0
ENDMDL
MODEL 9
REMARK VINA RESULT:      -4.5      7.740      8.106
REMARK  0 active torsions:
REMARK  status: ('A' for Active; 'I' for Inactive)
ROOT
ATOM      1  C   UNL d   1     -40.564  14.443  18.301  0.00  0.00     0.286 A 
ATOM      2  N   UNL d   1     -40.515  15.097  17.854  0.00  0.00    -0.170 NA
ATOM      3  C   UNL d   1     -40.576  14.674  19.089  0.00  0.00     0.066 A 
ATOM      4  S   UNL d   1     -40.494  15.764  18.318  0.00  0.00     0.017 SA
ATOM      5  C   UNL d   1     -40.532  15.515  19.100  0.00  0.00     0.052 A 
ATOM      6  O   UNL d   1     -40.596  13.671  18.034  0.00  0.00    -0.265 OA
ATOM      7  C   UNL d   1     -40.621  14.251  19.792  0.00  0.00     0.005 A 
ATOM      8  C   UNL d   1     -40.532  15.922  19.813  0.00  0.00     0.008 A 
ATOM      9  C   UNL d   1     -40.622  14.658  20.514  0.00  0.00     0.000 A 
ATOM     10  C   UNL d   1     -40.577  15.499  20.524  0.00  0.00     0.001 A 
ENDROOT
TORSDOF 0
ENDMDL
