MODEL 1
REMARK VINA RESULT:      -6.2      0.000      0.000
REMARK  4 active torsions:
REMARK  status: ('A' for Active; 'I' for Inactive)
REMARK    1  A    between atoms: C_8  and  N_1 
REMARK    2  A    between atoms: C_11  and  C_13 
REMARK       I    between atoms: N_14  and  C_11 
REMARK    3  A    between atoms: C_18  and  N_14 
REMARK    4  A    between atoms: C_20  and  C_18 
ROOT
ATOM      1  C   UNL d   1     -47.033  13.727  22.584  0.00  0.00     0.066 A 
ATOM      2  C   UNL d   1     -46.441  13.215  22.323  0.00  0.00     0.022 A 
ATOM      3  C   UNL d   1     -45.650  13.462  22.346  0.00  0.00     0.059 A 
ATOM      4  C   UNL d   1     -46.843  14.482  22.869  0.00  0.00     0.017 A 
ATOM      5  C   UNL d   1     -45.461  14.218  22.631  0.00  0.00     0.005 A 
ATOM      6  C   UNL d   1     -46.057  14.722  22.889  0.00  0.00     0.002 A 
ENDROOT
BRANCH   1   7
ATOM      7  N   UNL d   1     -47.818  13.487  22.564  0.00  0.00    -0.261 N 
ATOM      8  C   UNL d   1     -47.997  12.937  23.149  0.00  0.00     0.174 A 
ATOM      9  O   UNL d   1     -48.682  12.525  23.372  0.00  0.00    -0.316 OA
ATOM     10  C   UNL d   1     -48.714  13.450  22.261  0.00  0.00     0.079 A 
ATOM     11  C   UNL d   1     -47.459  12.651  23.698  0.00  0.00     0.055 C 
ATOM     12  C   UNL d   1     -49.460  12.495  23.106  0.00  0.00     0.094 A 
ATOM     13  C   UNL d   1     -49.848  11.953  23.600  0.00  0.00     0.024 A 
ATOM     14  C   UNL d   1     -49.884  12.865  22.501  0.00  0.00     0.022 A 
ATOM     15  C   UNL d   1     -50.647  11.787  23.487  0.00  0.00     0.002 A 
ATOM     16  C   UNL d   1     -51.064  12.161  22.880  0.00  0.00    -0.000 A 
ATOM     17  C   UNL d   1     -50.683  12.700  22.387  0.00  0.00    -0.001 A 
ATOM     18  C   UNL d   1     -49.705  13.415  21.917  0.00  0.00     0.137 A 
ATOM     19  N   UNL d   1     -49.021  13.832  21.686  0.00  0.00    -0.216 NA
ATOM     20  C   UNL d   1     -48.243  13.863  21.952  0.00  0.00     0.348 A 
ATOM     21  O   UNL d   1     -47.778  14.379  21.519  0.00  0.00    -0.245 OA
ENDBRANCH   1   7
BRANCH   3  22
ATOM     22  C   UNL d   1     -45.058  12.951  22.084  0.00  0.00     0.279 C 
ATOM     23  N   UNL d   1     -44.810  12.330  22.563  0.00  0.00    -0.206 NA
ATOM     24  O   UNL d   1     -44.718  13.067  21.340  0.00  0.00    -0.265 OA
BRANCH  23  25
ATOM     25  C   UNL d   1     -44.216  11.818  22.298  0.00  0.00     0.102 C 
BRANCH  25  26
ATOM     26  C   UNL d   1     -43.998  11.172  22.761  0.00  0.00     0.019 A 
ATOM     27  C   UNL d   1     -44.538  10.566  22.913  0.00  0.00     0.002 A 
ATOM     28  C   UNL d   1     -44.311   9.924  23.377  0.00  0.00     0.000 A 
ATOM     29  C   UNL d   1     -43.552   9.877  23.692  0.00  0.00     0.000 A 
ATOM     30  C   UNL d   1     -43.012  10.489  23.537  0.00  0.00     0.000 A 
ATOM     31  C   UNL d   1     -43.233  11.132  23.075  0.00  0.00     0.002 A 
ENDBRANCH  25  26
ENDBRANCH  23  25
ENDBRANCH   3  22
TORSDOF 4
ENDMDL
MODEL 2
REMARK VINA RESULT:      -5.9      8.211     10.061
REMARK  4 active torsions:
REMARK  status: ('A' for Active; 'I' for Inactive)
REMARK    1  A    between atoms: C_8  and  N_1 
REMARK    2  A    between atoms: C_11  and  C_13 
REMARK       I    between atoms: N_14  and  C_11 
REMARK    3  A    between atoms: C_18  and  N_14 
REMARK    4  A    between atoms: C_20  and  C_18 
ROOT
ATOM      1  C   UNL d   1     -39.506  14.535  18.313  0.00  0.00     0.066 A 
ATOM      2  C   UNL d   1     -38.994  14.673  18.944  0.00  0.00     0.022 A 
ATOM      3  C   UNL d   1     -39.307  14.840  19.693  0.00  0.00     0.059 A 
ATOM      4  C   UNL d   1     -40.328  14.561  18.422  0.00  0.00     0.017 A 
ATOM      5  C   UNL d   1     -40.129  14.867  19.802  0.00  0.00     0.005 A 
ATOM      6  C   UNL d   1     -40.633  14.728  19.167  0.00  0.00     0.002 A 
ENDROOT
BRANCH   1   7
ATOM      7  N   UNL d   1     -39.202  14.369  17.568  0.00  0.00    -0.261 N 
ATOM      8  C   UNL d   1     -39.176  15.031  17.082  0.00  0.00     0.174 A 
ATOM      9  O   UNL d   1     -38.929  15.173  16.302  0.00  0.00    -0.316 OA
ATOM     10  C   UNL d   1     -38.834  13.846  16.869  0.00  0.00     0.079 A 
ATOM     11  C   UNL d   1     -39.425  15.781  17.303  0.00  0.00     0.055 C 
ATOM     12  C   UNL d   1     -38.609  14.717  15.697  0.00  0.00     0.094 A 
ATOM     13  C   UNL d   1     -38.496  15.234  15.058  0.00  0.00     0.024 A 
ATOM     14  C   UNL d   1     -38.400  13.922  15.615  0.00  0.00     0.022 A 
ATOM     15  C   UNL d   1     -38.179  14.955  14.350  0.00  0.00     0.002 A 
ATOM     16  C   UNL d   1     -37.973  14.159  14.275  0.00  0.00    -0.000 A 
ATOM     17  C   UNL d   1     -38.084  13.642  14.907  0.00  0.00    -0.001 A 
ATOM     18  C   UNL d   1     -38.426  13.259  16.101  0.00  0.00     0.137 A 
ATOM     19  N   UNL d   1     -38.673  13.109  16.884  0.00  0.00    -0.216 NA
ATOM     20  C   UNL d   1     -38.992  13.565  17.488  0.00  0.00     0.348 A 
ATOM     21  O   UNL d   1     -39.139  13.134  18.169  0.00  0.00    -0.245 OA
ENDBRANCH   1   7
BRANCH   3  22
ATOM     22  C   UNL d   1     -38.795  14.979  20.325  0.00  0.00     0.279 C 
ATOM     23  N   UNL d   1     -38.792  14.471  20.971  0.00  0.00    -0.206 NA
ATOM     24  O   UNL d   1     -38.285  15.630  20.302  0.00  0.00    -0.265 OA
BRANCH  23  25
ATOM     25  C   UNL d   1     -38.277  14.612  21.604  0.00  0.00     0.102 C 
BRANCH  25  26
ATOM     26  C   UNL d   1     -38.350  14.172  22.295  0.00  0.00     0.019 A 
ATOM     27  C   UNL d   1     -38.830  14.438  22.912  0.00  0.00     0.002 A 
ATOM     28  C   UNL d   1     -38.897  13.991  23.601  0.00  0.00     0.000 A 
ATOM     29  C   UNL d   1     -38.492  13.279  23.683  0.00  0.00     0.000 A 
ATOM     30  C   UNL d   1     -38.011  13.014  23.061  0.00  0.00     0.000 A 
ATOM     31  C   UNL d   1     -37.940  13.456  22.372  0.00  0.00     0.002 A 
ENDBRANCH  25  26
ENDBRANCH  23  25
ENDBRANCH   3  22
TORSDOF 4
ENDMDL
MODEL 3
REMARK VINA RESULT:      -5.9      1.590      2.303
REMARK  4 active torsions:
REMARK  status: ('A' for Active; 'I' for Inactive)
REMARK    1  A    between atoms: C_8  and  N_1 
REMARK    2  A    between atoms: C_11  and  C_13 
REMARK       I    between atoms: N_14  and  C_11 
REMARK    3  A    between atoms: C_18  and  N_14 
REMARK    4  A    between atoms: C_20  and  C_18 
ROOT
ATOM      1  C   UNL d   1     -46.711  13.325  22.837  0.00  0.00     0.066 A 
ATOM      2  C   UNL d   1     -46.165  12.989  22.318  0.00  0.00     0.022 A 
ATOM      3  C   UNL d   1     -45.450  13.382  22.170  0.00  0.00     0.059 A 
ATOM      4  C   UNL d   1     -46.550  14.048  23.211  0.00  0.00     0.017 A 
ATOM      5  C   UNL d   1     -45.290  14.105  22.543  0.00  0.00     0.005 A 
ATOM      6  C   UNL d   1     -45.840  14.432  23.060  0.00  0.00     0.002 A 
ENDROOT
BRANCH   1   7
ATOM      7  N   UNL d   1     -47.421  12.940  22.988  0.00  0.00    -0.261 N 
ATOM      8  C   UNL d   1     -48.070  13.346  22.689  0.00  0.00     0.174 A 
ATOM      9  O   UNL d   1     -48.889  13.213  22.684  0.00  0.00    -0.316 OA
ATOM     10  C   UNL d   1     -47.999  12.267  23.319  0.00  0.00     0.079 A 
ATOM     11  C   UNL d   1     -48.027  14.058  22.283  0.00  0.00     0.055 C 
ATOM     12  C   UNL d   1     -49.389  12.627  22.972  0.00  0.00     0.094 A 
ATOM     13  C   UNL d   1     -50.158  12.859  22.761  0.00  0.00     0.024 A 
ATOM     14  C   UNL d   1     -49.281  11.922  23.389  0.00  0.00     0.022 A 
ATOM     15  C   UNL d   1     -50.803  12.391  22.966  0.00  0.00     0.002 A 
ATOM     16  C   UNL d   1     -50.688  11.688  23.384  0.00  0.00    -0.000 A 
ATOM     17  C   UNL d   1     -49.927  11.453  23.595  0.00  0.00    -0.001 A 
ATOM     18  C   UNL d   1     -48.632  11.516  23.689  0.00  0.00     0.137 A 
ATOM     19  N   UNL d   1     -47.807  11.643  23.698  0.00  0.00    -0.216 NA
ATOM     20  C   UNL d   1     -47.308  12.229  23.410  0.00  0.00     0.348 A 
ATOM     21  O   UNL d   1     -46.519  12.084  23.573  0.00  0.00    -0.245 OA
ENDBRANCH   1   7
BRANCH   3  22
ATOM     22  C   UNL d   1     -44.904  13.047  21.650  0.00  0.00     0.279 C 
ATOM     23  N   UNL d   1     -44.103  13.216  21.730  0.00  0.00    -0.206 NA
ATOM     24  O   UNL d   1     -45.167  12.542  21.051  0.00  0.00    -0.265 OA
BRANCH  23  25
ATOM     25  C   UNL d   1     -43.557  12.878  21.207  0.00  0.00     0.102 C 
BRANCH  25  26
ATOM     26  C   UNL d   1     -42.787  13.167  21.179  0.00  0.00     0.019 A 
ATOM     27  C   UNL d   1     -42.217  12.893  21.709  0.00  0.00     0.002 A 
ATOM     28  C   UNL d   1     -41.449  13.188  21.673  0.00  0.00     0.000 A 
ATOM     29  C   UNL d   1     -41.240  13.756  21.114  0.00  0.00     0.000 A 
ATOM     30  C   UNL d   1     -41.816  14.030  20.583  0.00  0.00     0.000 A 
ATOM     31  C   UNL d   1     -42.584  13.739  20.614  0.00  0.00     0.002 A 
ENDBRANCH  25  26
ENDBRANCH  23  25
ENDBRANCH   3  22
TORSDOF 4
ENDMDL
MODEL 4
REMARK VINA RESULT:      -5.8      1.597      2.254
REMARK  4 active torsions:
REMARK  status: ('A' for Active; 'I' for Inactive)
REMARK    1  A    between atoms: C_8  and  N_1 
REMARK    2  A    between atoms: C_11  and  C_13 
REMARK       I    between atoms: N_14  and  C_11 
REMARK    3  A    between atoms: C_18  and  N_14 
REMARK    4  A    between atoms: C_20  and  C_18 
ROOT
ATOM      1  C   UNL d   1     -46.973  13.273  22.817  0.00  0.00     0.066 A 
ATOM      2  C   UNL d   1     -46.442  13.225  22.188  0.00  0.00     0.022 A 
ATOM      3  C   UNL d   1     -45.707  12.858  22.302  0.00  0.00     0.059 A 
ATOM      4  C   UNL d   1     -46.777  12.959  23.560  0.00  0.00     0.017 A 
ATOM      5  C   UNL d   1     -45.512  12.545  23.045  0.00  0.00     0.005 A 
ATOM      6  C   UNL d   1     -46.047  12.597  23.668  0.00  0.00     0.002 A 
ENDROOT
BRANCH   1   7
ATOM      7  N   UNL d   1     -47.702  13.635  22.710  0.00  0.00    -0.261 N 
ATOM      8  C   UNL d   1     -48.303  13.096  22.552  0.00  0.00     0.174 A 
ATOM      9  O   UNL d   1     -49.117  13.157  22.404  0.00  0.00    -0.316 OA
ATOM     10  C   UNL d   1     -48.328  14.343  22.651  0.00  0.00     0.079 A 
ATOM     11  C   UNL d   1     -48.198  12.283  22.505  0.00  0.00     0.055 C 
ATOM     12  C   UNL d   1     -49.658  13.774  22.353  0.00  0.00     0.094 A 
ATOM     13  C   UNL d   1     -50.391  13.421  22.186  0.00  0.00     0.024 A 
ATOM     14  C   UNL d   1     -49.614  14.596  22.429  0.00  0.00     0.022 A 
ATOM     15  C   UNL d   1     -51.064  13.887  22.098  0.00  0.00     0.002 A 
ATOM     16  C   UNL d   1     -51.013  14.707  22.175  0.00  0.00    -0.000 A 
ATOM     17  C   UNL d   1     -50.288  15.062  22.341  0.00  0.00    -0.001 A 
ATOM     18  C   UNL d   1     -49.014  15.135  22.587  0.00  0.00     0.137 A 
ATOM     19  N   UNL d   1     -48.195  15.081  22.737  0.00  0.00    -0.216 NA
ATOM     20  C   UNL d   1     -47.654  14.464  22.788  0.00  0.00     0.348 A 
ATOM     21  O   UNL d   1     -46.894  14.720  22.952  0.00  0.00    -0.245 OA
ENDBRANCH   1   7
BRANCH   3  22
ATOM     22  C   UNL d   1     -45.176  12.810  21.673  0.00  0.00     0.279 C 
ATOM     23  N   UNL d   1     -44.386  13.006  21.785  0.00  0.00    -0.206 NA
ATOM     24  O   UNL d   1     -45.445  12.563  20.930  0.00  0.00    -0.265 OA
BRANCH  23  25
ATOM     25  C   UNL d   1     -43.855  12.957  21.152  0.00  0.00     0.102 C 
BRANCH  25  26
ATOM     26  C   UNL d   1     -43.083  13.225  21.246  0.00  0.00     0.019 A 
ATOM     27  C   UNL d   1     -42.486  12.707  21.486  0.00  0.00     0.002 A 
ATOM     28  C   UNL d   1     -41.716  12.984  21.578  0.00  0.00     0.000 A 
ATOM     29  C   UNL d   1     -41.530  13.773  21.432  0.00  0.00     0.000 A 
ATOM     30  C   UNL d   1     -42.132  14.291  21.190  0.00  0.00     0.000 A 
ATOM     31  C   UNL d   1     -42.903  14.020  21.097  0.00  0.00     0.002 A 
ENDBRANCH  25  26
ENDBRANCH  23  25
ENDBRANCH   3  22
TORSDOF 4
ENDMDL
MODEL 5
REMARK VINA RESULT:      -3.7      1.602      2.718
REMARK  4 active torsions:
REMARK  status: ('A' for Active; 'I' for Inactive)
REMARK    1  A    between atoms: C_8  and  N_1 
REMARK    2  A    between atoms: C_11  and  C_13 
REMARK       I    between atoms: N_14  and  C_11 
REMARK    3  A    between atoms: C_18  and  N_14 
REMARK    4  A    between atoms: C_20  and  C_18 
ROOT
ATOM      1  C   UNL d   1     -46.567  12.050  23.162  0.00  0.00     0.066 A 
ATOM      2  C   UNL d   1     -45.760  12.043  22.989  0.00  0.00     0.022 A 
ATOM      3  C   UNL d   1     -45.311  11.371  23.173  0.00  0.00     0.059 A 
ATOM      4  C   UNL d   1     -46.929  11.393  23.517  0.00  0.00     0.017 A 
ATOM      5  C   UNL d   1     -45.673  10.715  23.529  0.00  0.00     0.005 A 
ATOM      6  C   UNL d   1     -46.478  10.731  23.698  0.00  0.00     0.002 A 
ENDROOT
BRANCH   1   7
ATOM      7  N   UNL d   1     -47.017  12.712  22.982  0.00  0.00    -0.261 N 
ATOM      8  C   UNL d   1     -47.688  12.529  22.542  0.00  0.00     0.174 A 
ATOM      9  O   UNL d   1     -48.314  12.970  22.222  0.00  0.00    -0.316 OA
ATOM     10  C   UNL d   1     -47.262  13.627  22.965  0.00  0.00     0.079 A 
ATOM     11  C   UNL d   1     -47.895  11.772  22.304  0.00  0.00     0.055 C 
ATOM     12  C   UNL d   1     -48.523  13.766  22.209  0.00  0.00     0.094 A 
ATOM     13  C   UNL d   1     -49.232  13.808  21.779  0.00  0.00     0.024 A 
ATOM     14  C   UNL d   1     -48.194  14.460  22.513  0.00  0.00     0.022 A 
ATOM     15  C   UNL d   1     -49.601  14.534  21.658  0.00  0.00     0.002 A 
ATOM     16  C   UNL d   1     -49.266  15.224  21.965  0.00  0.00    -0.000 A 
ATOM     17  C   UNL d   1     -48.563  15.187  22.392  0.00  0.00    -0.001 A 
ATOM     18  C   UNL d   1     -47.524  14.643  22.953  0.00  0.00     0.137 A 
ATOM     19  N   UNL d   1     -46.892  14.207  23.278  0.00  0.00    -0.216 NA
ATOM     20  C   UNL d   1     -46.683  13.411  23.290  0.00  0.00     0.348 A 
ATOM     21  O   UNL d   1     -45.986  13.272  23.698  0.00  0.00    -0.245 OA
ENDBRANCH   1   7
BRANCH   3  22
ATOM     22  C   UNL d   1     -44.504  11.363  23.000  0.00  0.00     0.279 C 
ATOM     23  N   UNL d   1     -44.205  11.856  22.414  0.00  0.00    -0.206 NA
ATOM     24  O   UNL d   1     -44.001  10.859  23.420  0.00  0.00    -0.265 OA
BRANCH  23  25
ATOM     25  C   UNL d   1     -43.395  11.847  22.242  0.00  0.00     0.102 C 
BRANCH  25  26
ATOM     26  C   UNL d   1     -43.075  12.432  21.760  0.00  0.00     0.019 A 
ATOM     27  C   UNL d   1     -43.515  12.752  21.139  0.00  0.00     0.002 A 
ATOM     28  C   UNL d   1     -43.186  13.337  20.662  0.00  0.00     0.000 A 
ATOM     29  C   UNL d   1     -42.421  13.610  20.796  0.00  0.00     0.000 A 
ATOM     30  C   UNL d   1     -41.980  13.287  21.422  0.00  0.00     0.000 A 
ATOM     31  C   UNL d   1     -42.304  12.703  21.900  0.00  0.00     0.002 A 
ENDBRANCH  25  26
ENDBRANCH  23  25
ENDBRANCH   3  22
TORSDOF 4
ENDMDL
