MODEL 1
REMARK VINA RESULT:      74.4      0.000      0.000
REMARK  5 active torsions:
REMARK  status: ('A' for Active; 'I' for Inactive)
REMARK    1  A    between atoms: N_12  and  C_4 
REMARK    2  A    between atoms: C_19  and  N_5 
REMARK    3  A    between atoms: C_11  and  S_18 
REMARK    4  A    between atoms: S_18  and  C_21 
REMARK    5  A    between atoms: C_21  and  C_19 
ROOT
ATOM      1  C   UNL d   1     -54.953-101.792 -44.570  0.00  0.00     0.191 A 
ATOM      2  C   UNL d   1     -54.964-100.982 -44.422  0.00  0.00     0.174 A 
ATOM      3  N   UNL d   1     -54.964-102.181 -43.845  0.00  0.00    -0.042 NA
ATOM      4  C   UNL d   1     -54.981-101.619 -43.254  0.00  0.00     0.722 A 
ATOM      5  N   UNL d   1     -54.981-100.870 -43.606  0.00  0.00    -0.132 N 
ATOM      6  N   UNL d   1     -54.935-102.069 -45.347  0.00  0.00    -0.239 N 
ATOM      7  C   UNL d   1     -54.927-101.536 -45.977  0.00  0.00     0.358 A 
ATOM      8  N   UNL d   1     -54.938-100.725 -45.829  0.00  0.00    -0.152 NA
ATOM      9  C   UNL d   1     -54.956-100.447 -45.052  0.00  0.00     0.303 A 
ATOM     10  O   UNL d   1     -54.909-101.818 -46.754  0.00  0.00    -0.244 OA
ATOM     11  O   UNL d   1     -54.967 -99.637 -44.904  0.00  0.00    -0.263 OA
ATOM     12  C   UNL d   1     -54.924-102.872 -45.493  0.00  0.00     0.105 C 
ENDROOT
BRANCH   5  13
ATOM     13  C   UNL d   1     -54.996-100.140 -43.213  0.00  0.00     0.105 C 
BRANCH  13  14
ATOM     14  C   UNL d   1     -54.880 -99.437 -43.637  0.00  0.00     0.058 C 
BRANCH  14  15
ATOM     15  S   UNL d   1     -55.363 -98.774 -43.478  0.00  0.00    -0.041 SA
BRANCH  15  16
ATOM     16  C   UNL d   1     -56.166 -98.804 -43.678  0.00  0.00     0.215 A 
ATOM     17  N   UNL d   1     -56.405 -98.755 -44.458  0.00  0.00    -0.214 NA
ATOM     18  C   UNL d   1     -57.216 -98.801 -44.479  0.00  0.00     0.107 A 
ATOM     19  C   UNL d   1     -57.744 -98.780 -45.119  0.00  0.00     0.021 A 
ATOM     20  C   UNL d   1     -57.496 -98.878 -43.725  0.00  0.00     0.120 A 
ATOM     21  C   UNL d   1     -58.559 -98.838 -44.981  0.00  0.00     0.002 A 
ATOM     22  C   UNL d   1     -58.836 -98.916 -44.224  0.00  0.00     0.002 A 
ATOM     23  C   UNL d   1     -58.303 -98.936 -43.593  0.00  0.00     0.026 A 
ATOM     24  O   UNL d   1     -56.837 -98.881 -43.214  0.00  0.00    -0.283 OA
ENDBRANCH  15  16
ENDBRANCH  14  15
ENDBRANCH  13  14
ENDBRANCH   5  13
BRANCH   4  25
ATOM     25  N   UNL d   1     -54.997-101.734 -42.437  0.00  0.00    -0.139 N 
ATOM     26  C   UNL d   1     -55.302-102.442 -42.125  0.00  0.00     0.098 A 
ATOM     27  C   UNL d   1     -55.317-102.557 -41.307  0.00  0.00     0.020 A 
ATOM     28  C   UNL d   1     -55.033-101.976 -40.804  0.00  0.00     0.003 A 
ATOM     29  C   UNL d   1     -54.731-101.276 -41.117  0.00  0.00     0.020 A 
ATOM     30  C   UNL d   1     -54.712-101.153 -41.934  0.00  0.00     0.098 A 
ENDBRANCH   4  25
TORSDOF 5
ENDMDL
