MODEL 1
REMARK VINA RESULT:      79.7      0.000      0.000
REMARK  3 active torsions:
REMARK  status: ('A' for Active; 'I' for Inactive)
REMARK    1  A    between atoms: C_8  and  C_1 
REMARK    2  A    between atoms: N_7  and  C_8 
REMARK    3  A    between atoms: C_13  and  C_8 
ROOT
ATOM      1  C   UNL d   1      60.384  48.607  50.949  0.00  0.00     0.075 C 
ENDROOT
BRANCH   1   2
ATOM      2  N   UNL d   1      60.761  47.970  50.592  0.00  0.00    -0.303 N 
ATOM      3  C   UNL d   1      60.681  47.215  50.895  0.00  0.00     0.080 A 
ATOM      4  C   UNL d   1      61.063  46.580  50.530  0.00  0.00     0.018 A 
ATOM      5  C   UNL d   1      60.983  45.823  50.833  0.00  0.00     0.002 C 
ATOM      6  C   UNL d   1      61.528  46.702  49.859  0.00  0.00     0.003 A 
ATOM      7  C   UNL d   1      61.600  47.469  49.564  0.00  0.00     0.019 A 
ATOM      8  C   UNL d   1      61.220  48.104  49.926  0.00  0.00     0.080 A 
ENDBRANCH   1   2
BRANCH   1   9
ATOM      9  C   UNL d   1      59.665  48.874  50.643  0.00  0.00     0.106 A 
ATOM     10  C   UNL d   1      59.547  49.202  49.888  0.00  0.00     0.290 A 
ATOM     11  N   UNL d   1      58.750  49.391  49.814  0.00  0.00    -0.169 N 
ATOM     12  O   UNL d   1      60.131  49.317  49.315  0.00  0.00    -0.265 OA
ATOM     13  N   UNL d   1      58.185  49.706  49.312  0.00  0.00    -0.138 NA
ATOM     14  C   UNL d   1      58.373  49.182  50.518  0.00  0.00     0.200 A 
ATOM     15  C   UNL d   1      57.458  49.695  49.698  0.00  0.00     0.222 A 
ATOM     16  N   UNL d   1      57.576  49.371  50.444  0.00  0.00    -0.197 NA
ATOM     17  S   UNL d   1      58.934  48.864  51.027  0.00  0.00    -0.042 SA
ENDBRANCH   1   9
BRANCH   1  18
ATOM     18  C   UNL d   1      60.713  48.975  51.602  0.00  0.00     0.017 A 
ATOM     19  C   UNL d   1      61.476  49.252  51.570  0.00  0.00     0.002 A 
ATOM     20  C   UNL d   1      61.792  49.613  52.217  0.00  0.00     0.000 A 
ATOM     21  C   UNL d   1      61.346  49.707  52.919  0.00  0.00     0.000 A 
ATOM     22  C   UNL d   1      60.592  49.431  52.942  0.00  0.00     0.000 A 
ATOM     23  C   UNL d   1      60.257  49.059  52.285  0.00  0.00     0.002 A 
ENDBRANCH   1  18
TORSDOF 3
ENDMDL
MODEL 2
REMARK VINA RESULT:      82.6      0.536      2.503
REMARK  3 active torsions:
REMARK  status: ('A' for Active; 'I' for Inactive)
REMARK    1  A    between atoms: C_8  and  C_1 
REMARK    2  A    between atoms: N_7  and  C_8 
REMARK    3  A    between atoms: C_13  and  C_8 
ROOT
ATOM      1  C   UNL d   1      60.091  48.526  51.003  0.00  0.00     0.075 C 
ENDROOT
BRANCH   1   2
ATOM      2  N   UNL d   1      60.374  48.917  51.668  0.00  0.00    -0.303 N 
ATOM      3  C   UNL d   1      61.178  49.011  51.786  0.00  0.00     0.080 A 
ATOM      4  C   UNL d   1      61.454  49.404  52.458  0.00  0.00     0.018 A 
ATOM      5  C   UNL d   1      62.259  49.499  52.576  0.00  0.00     0.002 C 
ATOM      6  C   UNL d   1      60.923  49.705  53.014  0.00  0.00     0.003 A 
ATOM      7  C   UNL d   1      60.116  49.604  52.882  0.00  0.00     0.019 A 
ATOM      8  C   UNL d   1      59.836  49.211  52.213  0.00  0.00     0.080 A 
ENDBRANCH   1   2
BRANCH   1   9
ATOM      9  C   UNL d   1      59.362  48.747  50.685  0.00  0.00     0.106 A 
ATOM     10  C   UNL d   1      59.243  49.292  50.068  0.00  0.00     0.290 A 
ATOM     11  N   UNL d   1      58.434  49.345  49.927  0.00  0.00    -0.169 N 
ATOM     12  O   UNL d   1      59.836  49.706  49.668  0.00  0.00    -0.265 OA
ATOM     13  N   UNL d   1      57.862  49.707  49.467  0.00  0.00    -0.138 NA
ATOM     14  C   UNL d   1      58.052  48.837  50.453  0.00  0.00     0.200 A 
ATOM     15  C   UNL d   1      57.124  49.428  49.703  0.00  0.00     0.222 A 
ATOM     16  N   UNL d   1      57.242  48.889  50.313  0.00  0.00    -0.197 NA
ATOM     17  S   UNL d   1      58.620  48.469  50.918  0.00  0.00    -0.042 SA
ENDBRANCH   1   9
BRANCH   1  18
ATOM     18  C   UNL d   1      60.524  47.925  50.656  0.00  0.00     0.017 A 
ATOM     19  C   UNL d   1      60.316  47.150  50.781  0.00  0.00     0.002 A 
ATOM     20  C   UNL d   1      60.748  46.564  50.436  0.00  0.00     0.000 A 
ATOM     21  C   UNL d   1      61.407  46.743  49.951  0.00  0.00     0.000 A 
ATOM     22  C   UNL d   1      61.606  47.512  49.832  0.00  0.00     0.000 A 
ATOM     23  C   UNL d   1      61.170  48.121  50.181  0.00  0.00     0.002 A 
ENDBRANCH   1  18
TORSDOF 3
ENDMDL
