MODEL 1
REMARK VINA RESULT:      60.7      0.000      0.000
REMARK  4 active torsions:
REMARK  status: ('A' for Active; 'I' for Inactive)
REMARK    1  A    between atoms: S_10  and  C_3 
REMARK    2  A    between atoms: C_11  and  C_7 
REMARK    3  A    between atoms: C_13  and  S_10 
REMARK    4  A    between atoms: C_14  and  C_13 
ROOT
ATOM      1  N   UNL d   1     -58.530 -99.091 -43.745  0.00  0.00    -0.186 N 
ATOM      2  N   UNL d   1     -57.746 -99.269 -43.602  0.00  0.00    -0.162 NA
ATOM      3  C   UNL d   1     -59.183 -99.027 -43.238  0.00  0.00     0.217 A 
ATOM      4  C   UNL d   1     -58.795 -98.934 -44.509  0.00  0.00     0.187 A 
ATOM      5  N   UNL d   1     -59.833 -98.834 -43.696  0.00  0.00    -0.120 NA
ATOM      6  N   UNL d   1     -59.595 -98.776 -44.483  0.00  0.00    -0.127 NA
ATOM      7  C   UNL d   1     -57.212 -99.292 -44.234  0.00  0.00     0.102 A 
ATOM      8  C   UNL d   1     -58.257 -98.957 -45.143  0.00  0.00     0.042 A 
ATOM      9  C   UNL d   1     -57.472 -99.135 -45.004  0.00  0.00     0.024 A 
ENDROOT
BRANCH   3  10
ATOM     10  S   UNL d   1     -59.196 -99.135 -42.420  0.00  0.00    -0.046 SA
BRANCH  10  11
ATOM     11  C   UNL d   1     -59.889 -99.330 -42.041  0.00  0.00     0.038 C 
BRANCH  11  12
ATOM     12  C   UNL d   1     -59.903 -99.415 -41.229  0.00  0.00     0.007 A 
ATOM     13  C   UNL d   1     -59.946-100.167 -40.891  0.00  0.00     0.001 A 
ATOM     14  C   UNL d   1     -59.960-100.258 -40.066  0.00  0.00     0.000 A 
ATOM     15  C   UNL d   1     -59.931 -99.603 -39.576  0.00  0.00     0.000 A 
ATOM     16  C   UNL d   1     -59.887 -98.843 -39.908  0.00  0.00     0.000 A 
ATOM     17  C   UNL d   1     -59.946 -99.712 -38.758  0.00  0.00     0.000 C 
ATOM     18  C   UNL d   1     -59.873 -98.757 -40.729  0.00  0.00     0.001 A 
ENDBRANCH  11  12
ENDBRANCH  10  11
ENDBRANCH   3  10
BRANCH   7  19
ATOM     19  C   UNL d   1     -56.419 -99.470 -44.097  0.00  0.00     0.022 A 
ATOM     20  C   UNL d   1     -56.196 -99.849 -43.400  0.00  0.00     0.022 A 
ATOM     21  C   UNL d   1     -55.407-100.030 -43.258  0.00  0.00     0.099 A 
ATOM     22  N   UNL d   1     -54.840 -99.832 -43.813  0.00  0.00    -0.242 NA
ATOM     23  C   UNL d   1     -55.062 -99.443 -44.530  0.00  0.00     0.099 A 
ATOM     24  C   UNL d   1     -55.856 -99.272 -44.652  0.00  0.00     0.022 A 
ENDBRANCH   7  19
TORSDOF 4
ENDMDL
MODEL 2
REMARK VINA RESULT:      62.6      2.381      4.577
REMARK  4 active torsions:
REMARK  status: ('A' for Active; 'I' for Inactive)
REMARK    1  A    between atoms: S_10  and  C_3 
REMARK    2  A    between atoms: C_11  and  C_7 
REMARK    3  A    between atoms: C_13  and  S_10 
REMARK    4  A    between atoms: C_14  and  C_13 
ROOT
ATOM      1  N   UNL d   1     -58.467 -98.993 -44.965  0.00  0.00    -0.186 N 
ATOM      2  N   UNL d   1     -57.659 -99.049 -45.074  0.00  0.00    -0.162 NA
ATOM      3  C   UNL d   1     -59.089 -98.869 -45.498  0.00  0.00     0.217 A 
ATOM      4  C   UNL d   1     -58.797 -99.064 -44.213  0.00  0.00     0.187 A 
ATOM      5  N   UNL d   1     -59.785 -98.865 -45.069  0.00  0.00    -0.120 NA
ATOM      6  N   UNL d   1     -59.607 -98.986 -44.273  0.00  0.00    -0.127 NA
ATOM      7  C   UNL d   1     -57.168 -99.178 -44.420  0.00  0.00     0.102 A 
ATOM      8  C   UNL d   1     -58.302 -99.194 -43.558  0.00  0.00     0.042 A 
ATOM      9  C   UNL d   1     -57.494 -99.250 -43.663  0.00  0.00     0.024 A 
ENDROOT
BRANCH   3  10
ATOM     10  S   UNL d   1     -59.037 -98.765 -46.315  0.00  0.00    -0.046 SA
BRANCH  10  11
ATOM     11  C   UNL d   1     -59.692 -98.869 -46.787  0.00  0.00     0.038 C 
BRANCH  11  12
ATOM     12  C   UNL d   1     -59.747 -99.522 -47.274  0.00  0.00     0.007 A 
ATOM     13  C   UNL d   1     -59.655 -99.441 -48.090  0.00  0.00     0.001 A 
ATOM     14  C   UNL d   1     -59.711-100.103 -48.588  0.00  0.00     0.000 A 
ATOM     15  C   UNL d   1     -59.858-100.846 -48.277  0.00  0.00     0.000 A 
ATOM     16  C   UNL d   1     -59.952-100.935 -47.456  0.00  0.00     0.000 A 
ATOM     17  C   UNL d   1     -59.910-101.492 -48.787  0.00  0.00     0.000 C 
ATOM     18  C   UNL d   1     -59.896-100.275 -46.964  0.00  0.00     0.001 A 
ENDBRANCH  11  12
ENDBRANCH  10  11
ENDBRANCH   3  10
BRANCH   7  19
ATOM     19  C   UNL d   1     -56.352 -99.235 -44.523  0.00  0.00     0.022 A 
ATOM     20  C   UNL d   1     -55.895 -99.652 -43.979  0.00  0.00     0.022 A 
ATOM     21  C   UNL d   1     -55.082 -99.712 -44.077  0.00  0.00     0.099 A 
ATOM     22  N   UNL d   1     -54.724 -99.355 -44.720  0.00  0.00    -0.242 NA
ATOM     23  C   UNL d   1     -55.187 -98.926 -45.283  0.00  0.00     0.099 A 
ATOM     24  C   UNL d   1     -55.998 -98.879 -45.165  0.00  0.00     0.022 A 
ENDBRANCH   7  19
TORSDOF 4
ENDMDL
