MODEL 1
REMARK VINA RESULT:      86.7      0.000      0.000
REMARK  4 active torsions:
REMARK  status: ('A' for Active; 'I' for Inactive)
REMARK    1  A    between atoms: C_4  and  C_1 
REMARK    2  A    between atoms: N_5  and  C_2 
REMARK       I    between atoms: N_9  and  C_4 
REMARK       I    between atoms: C_7  and  N_5 
REMARK    3  A    between atoms: C_13  and  C_7 
REMARK    4  A    between atoms: C_11  and  N_9 
ROOT
ATOM      1  C   UNL d   1     -56.777 -99.053 -43.572  0.00  0.00     0.175 A 
ATOM      2  C   UNL d   1     -57.540 -98.951 -43.630  0.00  0.00     0.114 A 
ATOM      3  O   UNL d   1     -56.485 -99.063 -44.286  0.00  0.00    -0.301 OA
ATOM      4  C   UNL d   1     -57.723 -98.896 -44.377  0.00  0.00     0.043 A 
ATOM      5  C   UNL d   1     -57.067 -98.966 -44.786  0.00  0.00     0.102 A 
ATOM      6  C   UNL d   1     -58.390 -98.794 -44.740  0.00  0.00     0.004 A 
ATOM      7  C   UNL d   1     -57.085 -98.933 -45.549  0.00  0.00     0.025 A 
ATOM      8  C   UNL d   1     -58.407 -98.761 -45.512  0.00  0.00     0.000 A 
ATOM      9  C   UNL d   1     -57.756 -98.830 -45.914  0.00  0.00     0.002 A 
ENDROOT
BRANCH   1  10
ATOM     10  C   UNL d   1     -56.379 -99.132 -42.925  0.00  0.00     0.303 C 
ATOM     11  N   UNL d   1     -55.274-100.137 -42.976  0.00  0.00    -0.206 NA
ATOM     12  O   UNL d   1     -56.483 -98.757 -42.264  0.00  0.00    -0.263 OA
BRANCH  11  13
ATOM     13  C   UNL d   1     -55.134-100.559 -43.675  0.00  0.00     0.085 A 
ATOM     14  C   UNL d   1     -55.268-101.377 -43.697  0.00  0.00     0.019 A 
ATOM     15  C   UNL d   1     -55.128-101.801 -44.396  0.00  0.00     0.002 A 
ATOM     16  C   UNL d   1     -55.262-102.620 -44.422  0.00  0.00     0.000 C 
ATOM     17  C   UNL d   1     -54.852-101.412 -45.081  0.00  0.00     0.000 A 
ATOM     18  C   UNL d   1     -54.717-100.584 -45.057  0.00  0.00     0.002 A 
ATOM     19  C   UNL d   1     -54.713-101.833 -45.777  0.00  0.00     0.000 C 
ATOM     20  C   UNL d   1     -54.862-100.161 -44.344  0.00  0.00     0.019 A 
ENDBRANCH  11  13
ENDBRANCH   1  10
BRANCH   2  21
ATOM     21  N   UNL d   1     -58.033 -98.910 -43.037  0.00  0.00    -0.204 NA
ATOM     22  C   UNL d   1     -58.586 -99.514 -42.913  0.00  0.00     0.302 C 
ATOM     23  O   UNL d   1     -58.613-100.171 -43.430  0.00  0.00    -0.263 OA
BRANCH  22  24
ATOM     24  C   UNL d   1     -59.118 -99.468 -42.272  0.00  0.00     0.158 A 
ATOM     25  O   UNL d   1     -59.476-100.106 -41.871  0.00  0.00    -0.300 OA
ATOM     26  C   UNL d   1     -59.960 -99.800 -41.275  0.00  0.00     0.123 A 
ATOM     27  C   UNL d   1     -59.910 -98.968 -41.296  0.00  0.00     0.029 A 
ATOM     28  C   UNL d   1     -59.397 -98.760 -41.903  0.00  0.00     0.032 A 
ENDBRANCH  22  24
ENDBRANCH   2  21
TORSDOF 4
ENDMDL
