MODEL 1
REMARK VINA RESULT:      -9.5      0.000      0.000
REMARK  3 active torsions:
REMARK  status: ('A' for Active; 'I' for Inactive)
REMARK    1  A    between atoms: C_4  and  C_1 
REMARK    2  A    between atoms: C_12  and  N_3 
REMARK    3  A    between atoms: C_14  and  C_7 
ROOT
ATOM      1  N   UNL d   1      51.947  32.715  52.997  0.00  0.00    -0.165 NA
ATOM      2  N   UNL d   1      52.639  32.495  53.357  0.00  0.00    -0.230 N 
ATOM      3  C   UNL d   1      51.843  33.503  53.053  0.00  0.00     0.108 A 
ATOM      4  C   UNL d   1      52.995  33.204  53.662  0.00  0.00     0.084 A 
ATOM      5  C   UNL d   1      52.499  33.831  53.472  0.00  0.00     0.040 A 
ENDROOT
BRANCH   3   6
ATOM      6  C   UNL d   1      51.193  33.889  52.740  0.00  0.00     0.083 A 
ATOM      7  C   UNL d   1      51.132  33.986  51.917  0.00  0.00     0.302 A 
ATOM      8  O   UNL d   1      50.470  34.379  51.597  0.00  0.00    -0.273 OA
ATOM      9  O   UNL d   1      51.733  33.688  51.423  0.00  0.00    -0.259 OA
ATOM     10  C   UNL d   1      49.882  34.670  52.090  0.00  0.00     0.103 A 
ATOM     11  C   UNL d   1      49.943  34.573  52.913  0.00  0.00     0.023 A 
ATOM     12  C   UNL d   1      49.239  35.053  51.767  0.00  0.00     0.025 A 
ATOM     13  C   UNL d   1      50.591  34.187  53.234  0.00  0.00     0.009 A 
ATOM     14  C   UNL d   1      49.360  34.861  53.404  0.00  0.00     0.002 A 
ATOM     15  C   UNL d   1      48.711  35.247  53.083  0.00  0.00     0.000 A 
ATOM     16  C   UNL d   1      48.650  35.343  52.260  0.00  0.00     0.002 A 
ENDBRANCH   3   6
BRANCH   2  17
ATOM     17  C   UNL d   1      52.915  31.726  53.401  0.00  0.00     0.083 A 
ATOM     18  C   UNL d   1      53.386  31.424  52.794  0.00  0.00     0.019 A 
ATOM     19  C   UNL d   1      53.669  30.645  52.831  0.00  0.00     0.002 A 
ATOM     20  C   UNL d   1      53.471  30.170  53.493  0.00  0.00     0.000 A 
ATOM     21  C   UNL d   1      53.000  30.472  54.100  0.00  0.00     0.002 A 
ATOM     22  C   UNL d   1      52.717  31.259  54.058  0.00  0.00     0.019 A 
ENDBRANCH   2  17
BRANCH   4  23
ATOM     23  C   UNL d   1      53.694  33.264  54.067  0.00  0.00     0.018 A 
ATOM     24  C   UNL d   1      54.404  33.337  53.672  0.00  0.00     0.002 A 
ATOM     25  C   UNL d   1      55.111  33.398  54.084  0.00  0.00     0.000 A 
ATOM     26  C   UNL d   1      55.118  33.385  54.910  0.00  0.00     0.000 A 
ATOM     27  C   UNL d   1      54.400  33.310  55.316  0.00  0.00     0.000 A 
ATOM     28  C   UNL d   1      53.686  33.249  54.891  0.00  0.00     0.002 A 
ENDBRANCH   4  23
TORSDOF 3
ENDMDL
MODEL 2
REMARK VINA RESULT:      -9.4      0.372      1.982
REMARK  3 active torsions:
REMARK  status: ('A' for Active; 'I' for Inactive)
REMARK    1  A    between atoms: C_4  and  C_1 
REMARK    2  A    between atoms: C_12  and  N_3 
REMARK    3  A    between atoms: C_14  and  C_7 
ROOT
ATOM      1  N   UNL d   1      52.443  33.616  53.461  0.00  0.00    -0.165 NA
ATOM      2  N   UNL d   1      52.970  33.033  53.662  0.00  0.00    -0.230 N 
ATOM      3  C   UNL d   1      51.827  33.308  53.061  0.00  0.00     0.108 A 
ATOM      4  C   UNL d   1      52.656  32.303  53.362  0.00  0.00     0.084 A 
ATOM      5  C   UNL d   1      51.945  32.474  52.988  0.00  0.00     0.040 A 
ENDROOT
BRANCH   3   6
ATOM      6  C   UNL d   1      51.204  33.761  52.784  0.00  0.00     0.083 A 
ATOM      7  C   UNL d   1      51.141  33.914  51.969  0.00  0.00     0.302 A 
ATOM      8  O   UNL d   1      50.508  34.375  51.685  0.00  0.00    -0.273 OA
ATOM      9  O   UNL d   1      51.712  33.603  51.447  0.00  0.00    -0.259 OA
ATOM     10  C   UNL d   1      49.950  34.678  52.205  0.00  0.00     0.103 A 
ATOM     11  C   UNL d   1      50.013  34.525  53.019  0.00  0.00     0.023 A 
ATOM     12  C   UNL d   1      49.334  35.128  51.918  0.00  0.00     0.025 A 
ATOM     13  C   UNL d   1      50.634  34.072  53.305  0.00  0.00     0.009 A 
ATOM     14  C   UNL d   1      49.460  34.825  53.538  0.00  0.00     0.002 A 
ATOM     15  C   UNL d   1      48.839  35.278  53.251  0.00  0.00     0.000 A 
ATOM     16  C   UNL d   1      48.776  35.431  52.437  0.00  0.00     0.002 A 
ENDBRANCH   3   6
BRANCH   2  17
ATOM     17  C   UNL d   1      53.664  33.158  54.076  0.00  0.00     0.083 A 
ATOM     18  C   UNL d   1      54.368  33.289  53.666  0.00  0.00     0.019 A 
ATOM     19  C   UNL d   1      55.076  33.417  54.079  0.00  0.00     0.002 A 
ATOM     20  C   UNL d   1      55.066  33.410  54.918  0.00  0.00     0.000 A 
ATOM     21  C   UNL d   1      54.362  33.279  55.328  0.00  0.00     0.002 A 
ATOM     22  C   UNL d   1      53.650  33.151  54.906  0.00  0.00     0.019 A 
ENDBRANCH   2  17
BRANCH   4  23
ATOM     23  C   UNL d   1      52.987  31.566  53.427  0.00  0.00     0.018 A 
ATOM     24  C   UNL d   1      53.503  31.285  52.860  0.00  0.00     0.002 A 
ATOM     25  C   UNL d   1      53.838  30.539  52.927  0.00  0.00     0.000 A 
ATOM     26  C   UNL d   1      53.659  30.055  53.572  0.00  0.00     0.000 A 
ATOM     27  C   UNL d   1      53.136  30.335  54.150  0.00  0.00     0.000 A 
ATOM     28  C   UNL d   1      52.800  31.094  54.076  0.00  0.00     0.002 A 
ENDBRANCH   4  23
TORSDOF 3
ENDMDL
MODEL 3
REMARK VINA RESULT:      -9.4      1.428      4.385
REMARK  3 active torsions:
REMARK  status: ('A' for Active; 'I' for Inactive)
REMARK    1  A    between atoms: C_4  and  C_1 
REMARK    2  A    between atoms: C_12  and  N_3 
REMARK    3  A    between atoms: C_14  and  C_7 
ROOT
ATOM      1  N   UNL d   1      52.076  32.284  53.190  0.00  0.00    -0.165 NA
ATOM      2  N   UNL d   1      52.037  33.093  53.236  0.00  0.00    -0.230 N 
ATOM      3  C   UNL d   1      52.731  32.016  53.555  0.00  0.00     0.108 A 
ATOM      4  C   UNL d   1      52.725  33.348  53.664  0.00  0.00     0.084 A 
ATOM      5  C   UNL d   1      53.157  32.677  53.862  0.00  0.00     0.040 A 
ENDROOT
BRANCH   3   6
ATOM      6  C   UNL d   1      52.922  31.221  53.600  0.00  0.00     0.083 A 
ATOM      7  C   UNL d   1      53.073  30.797  52.901  0.00  0.00     0.302 A 
ATOM      8  O   UNL d   1      53.268  29.988  52.946  0.00  0.00    -0.273 OA
ATOM      9  O   UNL d   1      53.029  31.187  52.166  0.00  0.00    -0.259 OA
ATOM     10  C   UNL d   1      53.310  29.610  53.673  0.00  0.00     0.103 A 
ATOM     11  C   UNL d   1      53.159  30.034  54.371  0.00  0.00     0.023 A 
ATOM     12  C   UNL d   1      53.501  28.819  53.705  0.00  0.00     0.025 A 
ATOM     13  C   UNL d   1      52.967  30.831  54.335  0.00  0.00     0.009 A 
ATOM     14  C   UNL d   1      53.200  29.662  55.095  0.00  0.00     0.002 A 
ATOM     15  C   UNL d   1      53.392  28.865  55.131  0.00  0.00     0.000 A 
ATOM     16  C   UNL d   1      53.543  28.441  54.433  0.00  0.00     0.002 A 
ENDBRANCH   3   6
BRANCH   2  17
ATOM     17  C   UNL d   1      51.435  33.547  52.919  0.00  0.00     0.083 A 
ATOM     18  C   UNL d   1      51.513  33.855  52.158  0.00  0.00     0.019 A 
ATOM     19  C   UNL d   1      50.907  34.317  51.829  0.00  0.00     0.002 A 
ATOM     20  C   UNL d   1      50.216  34.466  52.281  0.00  0.00     0.000 A 
ATOM     21  C   UNL d   1      50.139  34.157  53.042  0.00  0.00     0.002 A 
ATOM     22  C   UNL d   1      50.753  33.691  53.369  0.00  0.00     0.019 A 
ENDBRANCH   2  17
BRANCH   4  23
ATOM     23  C   UNL d   1      52.929  34.110  53.849  0.00  0.00     0.018 A 
ATOM     24  C   UNL d   1      53.339  34.577  53.320  0.00  0.00     0.002 A 
ATOM     25  C   UNL d   1      53.545  35.348  53.509  0.00  0.00     0.000 A 
ATOM     26  C   UNL d   1      53.340  35.669  54.242  0.00  0.00     0.000 A 
ATOM     27  C   UNL d   1      52.924  35.200  54.784  0.00  0.00     0.000 A 
ATOM     28  C   UNL d   1      52.719  34.418  54.585  0.00  0.00     0.002 A 
ENDBRANCH   4  23
TORSDOF 3
ENDMDL
MODEL 4
REMARK VINA RESULT:      -9.4      1.494      4.717
REMARK  3 active torsions:
REMARK  status: ('A' for Active; 'I' for Inactive)
REMARK    1  A    between atoms: C_4  and  C_1 
REMARK    2  A    between atoms: C_12  and  N_3 
REMARK    3  A    between atoms: C_14  and  C_7 
ROOT
ATOM      1  N   UNL d   1      52.964  32.559  53.735  0.00  0.00    -0.165 NA
ATOM      2  N   UNL d   1      52.578  33.251  53.562  0.00  0.00    -0.230 N 
ATOM      3  C   UNL d   1      52.562  31.936  53.444  0.00  0.00     0.108 A 
ATOM      4  C   UNL d   1      51.879  33.041  53.127  0.00  0.00     0.084 A 
ATOM      5  C   UNL d   1      51.870  32.222  53.053  0.00  0.00     0.040 A 
ENDROOT
BRANCH   3   6
ATOM      6  C   UNL d   1      52.815  31.163  53.531  0.00  0.00     0.083 A 
ATOM      7  C   UNL d   1      53.043  30.729  52.860  0.00  0.00     0.302 A 
ATOM      8  O   UNL d   1      53.301  29.942  52.947  0.00  0.00    -0.273 OA
ATOM      9  O   UNL d   1      53.011  31.089  52.108  0.00  0.00    -0.259 OA
ATOM     10  C   UNL d   1      53.331  29.594  53.689  0.00  0.00     0.103 A 
ATOM     11  C   UNL d   1      53.103  30.028  54.361  0.00  0.00     0.023 A 
ATOM     12  C   UNL d   1      53.585  28.823  53.764  0.00  0.00     0.025 A 
ATOM     13  C   UNL d   1      52.848  30.803  54.282  0.00  0.00     0.009 A 
ATOM     14  C   UNL d   1      53.131  29.685  55.100  0.00  0.00     0.002 A 
ATOM     15  C   UNL d   1      53.386  28.909  55.178  0.00  0.00     0.000 A 
ATOM     16  C   UNL d   1      53.614  28.476  54.507  0.00  0.00     0.002 A 
ENDBRANCH   3   6
BRANCH   2  17
ATOM     17  C   UNL d   1      52.839  33.995  53.780  0.00  0.00     0.083 A 
ATOM     18  C   UNL d   1      53.290  34.441  53.252  0.00  0.00     0.019 A 
ATOM     19  C   UNL d   1      53.559  35.197  53.465  0.00  0.00     0.002 A 
ATOM     20  C   UNL d   1      53.367  35.500  54.223  0.00  0.00     0.000 A 
ATOM     21  C   UNL d   1      52.916  35.053  54.751  0.00  0.00     0.002 A 
ATOM     22  C   UNL d   1      52.647  34.291  54.531  0.00  0.00     0.019 A 
ENDBRANCH   2  17
BRANCH   4  23
ATOM     23  C   UNL d   1      51.318  33.545  52.833  0.00  0.00     0.018 A 
ATOM     24  C   UNL d   1      51.396  33.876  52.091  0.00  0.00     0.002 A 
ATOM     25  C   UNL d   1      50.826  34.387  51.794  0.00  0.00     0.000 A 
ATOM     26  C   UNL d   1      50.160  34.578  52.243  0.00  0.00     0.000 A 
ATOM     27  C   UNL d   1      50.075  34.246  52.998  0.00  0.00     0.000 A 
ATOM     28  C   UNL d   1      50.658  33.728  53.292  0.00  0.00     0.002 A 
ENDBRANCH   4  23
TORSDOF 3
ENDMDL
