MODEL 1
REMARK VINA RESULT:     -10.6      0.000      0.000
REMARK  3 active torsions:
REMARK  status: ('A' for Active; 'I' for Inactive)
REMARK    1  A    between atoms: N_3  and  S_1 
REMARK    2  A    between atoms: C_9  and  S_1 
REMARK    3  A    between atoms: C_2  and  N_3 
ROOT
ATOM      1  C   UNL d   1      52.713  33.574  53.722  0.00  0.00     0.157 A 
ATOM      2  C   UNL d   1      53.080  34.120  54.213  0.00  0.00     0.102 A 
ATOM      3  C   UNL d   1      53.767  33.906  54.615  0.00  0.00     0.110 A 
ATOM      4  C   UNL d   1      54.088  33.145  54.527  0.00  0.00     0.207 A 
ATOM      5  C   UNL d   1      53.019  32.831  53.630  0.00  0.00     0.035 A 
ATOM      6  C   UNL d   1      53.706  32.617  54.033  0.00  0.00     0.042 A 
ATOM      7 CL   UNL d   1      52.774  34.876  54.310  0.00  0.00    -0.079 Cl
ATOM      8 CL   UNL d   1      54.149  34.447  55.115  0.00  0.00    -0.078 Cl
ATOM      9  O   UNL d   1      54.775  32.931  54.930  0.00  0.00    -0.286 OA
ATOM     10  C   UNL d   1      52.653  32.284  53.140  0.00  0.00     0.003 A 
ATOM     11  C   UNL d   1      54.027  31.856  53.945  0.00  0.00     0.003 A 
ATOM     12  C   UNL d   1      53.645  31.314  53.445  0.00  0.00     0.000 A 
ATOM     13  C   UNL d   1      52.958  31.529  53.042  0.00  0.00     0.000 A 
ENDROOT
BRANCH   1  14
ATOM     14  N   UNL d   1      52.026  33.788  53.319  0.00  0.00    -0.316 NA
BRANCH  14  15
ATOM     15  S   UNL d   1      51.339  34.002  52.916  0.00  0.00     0.327 S 
ATOM     16  O   UNL d   1      50.892  33.627  53.479  0.00  0.00    -0.186 OA
ATOM     17  O   UNL d   1      51.798  34.383  52.346  0.00  0.00    -0.186 OA
BRANCH  15  18
ATOM     18  C   UNL d   1      50.655  34.215  52.516  0.00  0.00     0.116 A 
ATOM     19  C   UNL d   1      50.598  34.107  51.711  0.00  0.00     0.014 A 
ATOM     20  C   UNL d   1      49.910  34.321  51.308  0.00  0.00     0.001 A 
ATOM     21  C   UNL d   1      49.275  34.648  51.722  0.00  0.00     0.000 A 
ATOM     22  C   UNL d   1      49.326  34.760  52.538  0.00  0.00     0.001 A 
ATOM     23  C   UNL d   1      48.591  34.857  51.300  0.00  0.00     0.000 C 
ATOM     24  C   UNL d   1      50.021  34.544  52.945  0.00  0.00     0.014 A 
ENDBRANCH  15  18
ENDBRANCH  14  15
ENDBRANCH   1  14
TORSDOF 3
ENDMDL
MODEL 2
REMARK VINA RESULT:      -9.8      1.163      1.821
REMARK  3 active torsions:
REMARK  status: ('A' for Active; 'I' for Inactive)
REMARK    1  A    between atoms: N_3  and  S_1 
REMARK    2  A    between atoms: C_9  and  S_1 
REMARK    3  A    between atoms: C_2  and  N_3 
ROOT
ATOM      1  C   UNL d   1      52.502  33.103  53.456  0.00  0.00     0.157 A 
ATOM      2  C   UNL d   1      52.634  32.324  53.232  0.00  0.00     0.102 A 
ATOM      3  C   UNL d   1      53.318  31.940  53.487  0.00  0.00     0.110 A 
ATOM      4  C   UNL d   1      53.870  32.335  53.966  0.00  0.00     0.207 A 
ATOM      5  C   UNL d   1      53.034  33.495  53.922  0.00  0.00     0.035 A 
ATOM      6  C   UNL d   1      53.718  33.111  54.177  0.00  0.00     0.042 A 
ATOM      7 CL   UNL d   1      52.098  31.921  52.759  0.00  0.00    -0.079 Cl
ATOM      8 CL   UNL d   1      53.466  31.153  53.269  0.00  0.00    -0.078 Cl
ATOM      9  O   UNL d   1      54.554  31.951  54.221  0.00  0.00    -0.286 OA
ATOM     10  C   UNL d   1      52.901  34.273  54.145  0.00  0.00     0.003 A 
ATOM     11  C   UNL d   1      54.270  33.505  54.656  0.00  0.00     0.003 A 
ATOM     12  C   UNL d   1      54.122  34.292  54.873  0.00  0.00     0.000 A 
ATOM     13  C   UNL d   1      53.438  34.677  54.618  0.00  0.00     0.000 A 
ENDROOT
BRANCH   1  14
ATOM     14  N   UNL d   1      51.818  33.487  53.200  0.00  0.00    -0.316 NA
BRANCH  14  15
ATOM     15  S   UNL d   1      51.134  33.871  52.945  0.00  0.00     0.327 S 
ATOM     16  O   UNL d   1      51.558  34.237  52.358  0.00  0.00    -0.186 OA
ATOM     17  O   UNL d   1      50.706  33.497  53.544  0.00  0.00    -0.186 OA
BRANCH  15  18
ATOM     18  C   UNL d   1      50.454  34.253  52.691  0.00  0.00     0.116 A 
ATOM     19  C   UNL d   1      50.206  34.186  51.919  0.00  0.00     0.014 A 
ATOM     20  C   UNL d   1      49.522  34.570  51.664  0.00  0.00     0.001 A 
ATOM     21  C   UNL d   1      49.084  35.026  52.194  0.00  0.00     0.000 A 
ATOM     22  C   UNL d   1      49.329  35.099  52.978  0.00  0.00     0.001 A 
ATOM     23  C   UNL d   1      48.398  35.406  51.920  0.00  0.00     0.000 C 
ATOM     24  C   UNL d   1      50.020  34.711  53.236  0.00  0.00     0.014 A 
ENDBRANCH  15  18
ENDBRANCH  14  15
ENDBRANCH   1  14
TORSDOF 3
ENDMDL
MODEL 3
REMARK VINA RESULT:      -8.3      1.878      4.075
REMARK  3 active torsions:
REMARK  status: ('A' for Active; 'I' for Inactive)
REMARK    1  A    between atoms: N_3  and  S_1 
REMARK    2  A    between atoms: C_9  and  S_1 
REMARK    3  A    between atoms: C_2  and  N_3 
ROOT
ATOM      1  C   UNL d   1      53.328  33.267  54.148  0.00  0.00     0.157 A 
ATOM      2  C   UNL d   1      53.885  33.665  54.602  0.00  0.00     0.102 A 
ATOM      3  C   UNL d   1      53.870  34.489  54.629  0.00  0.00     0.110 A 
ATOM      4  C   UNL d   1      53.299  34.916  54.204  0.00  0.00     0.207 A 
ATOM      5  C   UNL d   1      52.768  33.674  53.730  0.00  0.00     0.035 A 
ATOM      6  C   UNL d   1      52.754  34.499  53.758  0.00  0.00     0.042 A 
ATOM      7 CL   UNL d   1      54.455  33.257  55.028  0.00  0.00    -0.079 Cl
ATOM      8 CL   UNL d   1      54.426  34.906  55.084  0.00  0.00    -0.078 Cl
ATOM      9  O   UNL d   1      53.284  35.740  54.232  0.00  0.00    -0.286 OA
ATOM     10  C   UNL d   1      52.212  33.277  53.277  0.00  0.00     0.003 A 
ATOM     11  C   UNL d   1      52.183  34.925  53.332  0.00  0.00     0.003 A 
ATOM     12  C   UNL d   1      51.627  34.509  52.878  0.00  0.00     0.000 A 
ATOM     13  C   UNL d   1      51.641  33.684  52.850  0.00  0.00     0.000 A 
ENDROOT
BRANCH   1  14
ATOM     14  N   UNL d   1      53.343  32.442  54.120  0.00  0.00    -0.316 NA
BRANCH  14  15
ATOM     15  S   UNL d   1      53.357  31.618  54.092  0.00  0.00     0.327 S 
ATOM     16  O   UNL d   1      52.953  31.587  54.795  0.00  0.00    -0.186 OA
ATOM     17  O   UNL d   1      53.768  31.655  53.378  0.00  0.00    -0.186 OA
BRANCH  15  18
ATOM     18  C   UNL d   1      53.372  30.799  54.064  0.00  0.00     0.116 A 
ATOM     19  C   UNL d   1      53.339  30.362  54.750  0.00  0.00     0.014 A 
ATOM     20  C   UNL d   1      53.353  29.537  54.722  0.00  0.00     0.001 A 
ATOM     21  C   UNL d   1      53.402  29.150  53.995  0.00  0.00     0.000 A 
ATOM     22  C   UNL d   1      53.436  29.587  53.295  0.00  0.00     0.001 A 
ATOM     23  C   UNL d   1      53.416  28.320  53.985  0.00  0.00     0.000 C 
ATOM     24  C   UNL d   1      53.421  30.420  53.323  0.00  0.00     0.014 A 
ENDBRANCH  15  18
ENDBRANCH  14  15
ENDBRANCH   1  14
TORSDOF 3
ENDMDL
