MODEL 1
REMARK VINA RESULT:      -5.2      0.000      0.000
REMARK  3 active torsions:
REMARK  status: ('A' for Active; 'I' for Inactive)
REMARK       I    between atoms: C_6  and  N_9 
REMARK    1  A    between atoms: C_7  and  C_6 
REMARK    2  A    between atoms: N_9  and  C_17 
REMARK    3  A    between atoms: C_17  and  C_16 
ROOT
ATOM      1  N   UNL d   1      55.903  -0.613  33.019  0.00  0.00    -0.304 N 
ATOM      2  C   UNL d   1      55.755   0.137  33.319  0.00  0.00     0.064 A 
ATOM      3  C   UNL d   1      56.374  -0.535  32.349  0.00  0.00     0.064 A 
ATOM      4  C   UNL d   1      56.514   0.270  32.239  0.00  0.00     0.018 A 
ATOM      5  C   UNL d   1      56.134   0.680  32.834  0.00  0.00     0.019 A 
ATOM      6  C   UNL d   1      56.689  -1.090  31.830  0.00  0.00     0.018 A 
ATOM      7  C   UNL d   1      56.980   0.523  31.596  0.00  0.00     0.003 A 
ATOM      8  C   UNL d   1      57.297  -0.033  31.074  0.00  0.00     0.019 A 
ATOM      9  C   UNL d   1      57.150  -0.843  31.192  0.00  0.00     0.003 A 
ATOM     10  C   UNL d   1      55.630  -1.325  33.332  0.00  0.00     0.099 C 
ATOM     11  C   UNL d   1      55.307   0.315  33.987  0.00  0.00     0.019 C 
ENDROOT
BRANCH   8  12
ATOM     12  C   UNL d   1      57.757   0.215  30.439  0.00  0.00     0.102 C 
BRANCH  12  13
ATOM     13  N   UNL d   1      58.507  -0.085  30.328  0.00  0.00    -0.206 NA
ATOM     14  C   UNL d   1      58.961   0.142  29.687  0.00  0.00     0.285 C 
ATOM     15  O   UNL d   1      58.658   0.682  29.144  0.00  0.00    -0.265 OA
BRANCH  14  16
ATOM     16  C   UNL d   1      59.721  -0.162  29.574  0.00  0.00     0.087 A 
ATOM     17  S   UNL d   1      60.433   0.220  29.739  0.00  0.00    -0.082 SA
ATOM     18  C   UNL d   1      61.044  -0.290  29.539  0.00  0.00     0.036 A 
ATOM     19  C   UNL d   1      60.721  -0.995  29.248  0.00  0.00     0.008 A 
ATOM     20  C   UNL d   1      59.900  -0.911  29.271  0.00  0.00     0.012 A 
ENDBRANCH  14  16
ENDBRANCH  12  13
ENDBRANCH   8  12
TORSDOF 3
ENDMDL
MODEL 2
REMARK VINA RESULT:      -5.1      1.057      1.401
REMARK  3 active torsions:
REMARK  status: ('A' for Active; 'I' for Inactive)
REMARK       I    between atoms: C_6  and  N_9 
REMARK    1  A    between atoms: C_7  and  C_6 
REMARK    2  A    between atoms: N_9  and  C_17 
REMARK    3  A    between atoms: C_17  and  C_16 
ROOT
ATOM      1  N   UNL d   1      56.681   0.281  33.410  0.00  0.00    -0.304 N 
ATOM      2  C   UNL d   1      56.019  -0.201  33.349  0.00  0.00     0.064 A 
ATOM      3  C   UNL d   1      57.056   0.297  32.679  0.00  0.00     0.064 A 
ATOM      4  C   UNL d   1      56.620  -0.179  32.167  0.00  0.00     0.018 A 
ATOM      5  C   UNL d   1      55.984  -0.484  32.579  0.00  0.00     0.019 A 
ATOM      6  C   UNL d   1      57.735   0.681  32.417  0.00  0.00     0.018 A 
ATOM      7  C   UNL d   1      56.868  -0.272  31.377  0.00  0.00     0.003 A 
ATOM      8  C   UNL d   1      57.549   0.114  31.113  0.00  0.00     0.019 A 
ATOM      9  C   UNL d   1      57.984   0.593  31.636  0.00  0.00     0.003 A 
ATOM     10  C   UNL d   1      56.930   0.682  34.086  0.00  0.00     0.099 C 
ATOM     11  C   UNL d   1      55.483  -0.372  33.952  0.00  0.00     0.019 C 
ENDROOT
BRANCH   8  12
ATOM     12  C   UNL d   1      57.796   0.024  30.333  0.00  0.00     0.102 C 
BRANCH  12  13
ATOM     13  N   UNL d   1      58.289  -0.590  30.122  0.00  0.00    -0.206 NA
ATOM     14  C   UNL d   1      58.512  -0.704  29.344  0.00  0.00     0.285 C 
ATOM     15  O   UNL d   1      58.235  -0.190  28.762  0.00  0.00    -0.265 OA
BRANCH  14  16
ATOM     16  C   UNL d   1      59.012  -1.325  29.129  0.00  0.00     0.087 A 
ATOM     17  S   UNL d   1      59.775  -1.260  28.825  0.00  0.00    -0.082 SA
ATOM     18  C   UNL d   1      60.060  -2.019  28.694  0.00  0.00     0.036 A 
ATOM     19  C   UNL d   1      59.477  -2.566  28.914  0.00  0.00     0.008 A 
ATOM     20  C   UNL d   1      58.829  -2.131  29.184  0.00  0.00     0.012 A 
ENDBRANCH  14  16
ENDBRANCH  12  13
ENDBRANCH   8  12
TORSDOF 3
ENDMDL
MODEL 3
REMARK VINA RESULT:      -4.4      1.907      4.795
REMARK  3 active torsions:
REMARK  status: ('A' for Active; 'I' for Inactive)
REMARK       I    between atoms: C_6  and  N_9 
REMARK    1  A    between atoms: C_7  and  C_6 
REMARK    2  A    between atoms: N_9  and  C_17 
REMARK    3  A    between atoms: C_17  and  C_16 
ROOT
ATOM      1  N   UNL d   1      59.973  -2.234  28.803  0.00  0.00    -0.304 N 
ATOM      2  C   UNL d   1      59.545  -2.934  28.837  0.00  0.00     0.064 A 
ATOM      3  C   UNL d   1      59.535  -1.646  29.177  0.00  0.00     0.064 A 
ATOM      4  C   UNL d   1      58.835  -1.990  29.441  0.00  0.00     0.018 A 
ATOM      5  C   UNL d   1      58.842  -2.780  29.232  0.00  0.00     0.019 A 
ATOM      6  C   UNL d   1      59.686  -0.848  29.308  0.00  0.00     0.018 A 
ATOM      7  C   UNL d   1      58.273  -1.525  29.845  0.00  0.00     0.003 A 
ATOM      8  C   UNL d   1      58.423  -0.725  29.978  0.00  0.00     0.019 A 
ATOM      9  C   UNL d   1      59.132  -0.384  29.708  0.00  0.00     0.003 A 
ATOM     10  C   UNL d   1      60.713  -2.132  28.455  0.00  0.00     0.099 C 
ATOM     11  C   UNL d   1      59.778  -3.662  28.530  0.00  0.00     0.019 C 
ENDROOT
BRANCH   8  12
ATOM     12  C   UNL d   1      57.870  -0.264  30.377  0.00  0.00     0.102 C 
BRANCH  12  13
ATOM     13  N   UNL d   1      57.482  -0.556  31.032  0.00  0.00    -0.206 NA
ATOM     14  C   UNL d   1      56.952  -0.093  31.449  0.00  0.00     0.285 C 
ATOM     15  O   UNL d   1      56.807   0.681  31.204  0.00  0.00    -0.265 OA
BRANCH  14  16
ATOM     16  C   UNL d   1      56.558  -0.387  32.112  0.00  0.00     0.087 A 
ATOM     17  S   UNL d   1      56.401   0.020  32.812  0.00  0.00    -0.082 SA
ATOM     18  C   UNL d   1      55.999  -0.490  33.315  0.00  0.00     0.036 A 
ATOM     19  C   UNL d   1      55.902  -1.220  32.935  0.00  0.00     0.008 A 
ATOM     20  C   UNL d   1      56.250  -1.152  32.189  0.00  0.00     0.012 A 
ENDBRANCH  14  16
ENDBRANCH  12  13
ENDBRANCH   8  12
TORSDOF 3
ENDMDL
MODEL 4
REMARK VINA RESULT:      -3.9      9.271     10.145
REMARK  3 active torsions:
REMARK  status: ('A' for Active; 'I' for Inactive)
REMARK       I    between atoms: C_6  and  N_9 
REMARK    1  A    between atoms: C_7  and  C_6 
REMARK    2  A    between atoms: N_9  and  C_17 
REMARK    3  A    between atoms: C_17  and  C_16 
ROOT
ATOM      1  N   UNL d   1      58.041  -9.814  30.867  0.00  0.00    -0.304 N 
ATOM      2  C   UNL d   1      57.231  -9.817  31.008  0.00  0.00     0.064 A 
ATOM      3  C   UNL d   1      58.429  -9.814  31.592  0.00  0.00     0.064 A 
ATOM      4  C   UNL d   1      57.852  -9.816  32.181  0.00  0.00     0.018 A 
ATOM      5  C   UNL d   1      57.118  -9.818  31.821  0.00  0.00     0.019 A 
ATOM      6  C   UNL d   1      59.227  -9.812  31.788  0.00  0.00     0.018 A 
ATOM      7  C   UNL d   1      58.080  -9.817  32.982  0.00  0.00     0.003 A 
ATOM      8  C   UNL d   1      58.881  -9.815  33.180  0.00  0.00     0.019 A 
ATOM      9  C   UNL d   1      59.458  -9.813  32.580  0.00  0.00     0.003 A 
ATOM     10  C   UNL d   1      58.405  -9.813  30.128  0.00  0.00     0.099 C 
ATOM     11  C   UNL d   1      56.637  -9.817  30.437  0.00  0.00     0.019 C 
ENDROOT
BRANCH   8  12
ATOM     12  C   UNL d   1      59.110  -9.815  33.971  0.00  0.00     0.102 C 
BRANCH  12  13
ATOM     13  N   UNL d   1      59.319  -9.120  34.343  0.00  0.00    -0.206 NA
ATOM     14  C   UNL d   1      59.524  -9.110  35.134  0.00  0.00     0.285 C 
ATOM     15  O   UNL d   1      59.520  -9.813  35.564  0.00  0.00    -0.265 OA
BRANCH  14  16
ATOM     16  C   UNL d   1      59.735  -8.407  35.512  0.00  0.00     0.087 A 
ATOM     17  S   UNL d   1      60.473  -8.224  35.832  0.00  0.00    -0.082 SA
ATOM     18  C   UNL d   1      60.428  -7.467  36.149  0.00  0.00     0.036 A 
ATOM     19  C   UNL d   1      59.663  -7.171  36.030  0.00  0.00     0.008 A 
ATOM     20  C   UNL d   1      59.237  -7.757  35.635  0.00  0.00     0.012 A 
ENDBRANCH  14  16
ENDBRANCH  12  13
ENDBRANCH   8  12
TORSDOF 3
ENDMDL
MODEL 5
REMARK VINA RESULT:      -2.8      2.068      4.790
REMARK  3 active torsions:
REMARK  status: ('A' for Active; 'I' for Inactive)
REMARK       I    between atoms: C_6  and  N_9 
REMARK    1  A    between atoms: C_7  and  C_6 
REMARK    2  A    between atoms: N_9  and  C_17 
REMARK    3  A    between atoms: C_17  and  C_16 
ROOT
ATOM      1  N   UNL d   1      58.859  -0.328  29.277  0.00  0.00    -0.304 N 
ATOM      2  C   UNL d   1      59.595   0.036  29.266  0.00  0.00     0.064 A 
ATOM      3  C   UNL d   1      58.491  -0.144  29.989  0.00  0.00     0.064 A 
ATOM      4  C   UNL d   1      59.005   0.337  30.416  0.00  0.00     0.018 A 
ATOM      5  C   UNL d   1      59.682   0.447  29.972  0.00  0.00     0.019 A 
ATOM      6  C   UNL d   1      57.757  -0.352  30.298  0.00  0.00     0.018 A 
ATOM      7  C   UNL d   1      58.781   0.616  31.169  0.00  0.00     0.003 A 
ATOM      8  C   UNL d   1      58.046   0.408  31.481  0.00  0.00     0.019 A 
ATOM      9  C   UNL d   1      57.531  -0.078  31.043  0.00  0.00     0.003 A 
ATOM     10  C   UNL d   1      58.541  -0.799  28.680  0.00  0.00     0.099 C 
ATOM     11  C   UNL d   1      60.149  -0.002  28.658  0.00  0.00     0.019 C 
ENDROOT
BRANCH   8  12
ATOM     12  C   UNL d   1      57.822   0.682  32.223  0.00  0.00     0.102 C 
BRANCH  12  13
ATOM     13  N   UNL d   1      57.063   0.560  32.499  0.00  0.00    -0.206 NA
ATOM     14  C   UNL d   1      56.902   0.559  33.301  0.00  0.00     0.285 C 
ATOM     15  O   UNL d   1      57.513   0.681  33.840  0.00  0.00    -0.265 OA
BRANCH  14  16
ATOM     16  C   UNL d   1      56.135   0.436  33.581  0.00  0.00     0.087 A 
ATOM     17  S   UNL d   1      55.859   0.590  34.343  0.00  0.00    -0.082 SA
ATOM     18  C   UNL d   1      55.064   0.383  34.369  0.00  0.00     0.036 A 
ATOM     19  C   UNL d   1      54.836   0.099  33.625  0.00  0.00     0.008 A 
ATOM     20  C   UNL d   1      55.503   0.133  33.139  0.00  0.00     0.012 A 
ENDBRANCH  14  16
ENDBRANCH  12  13
ENDBRANCH   8  12
TORSDOF 3
ENDMDL
MODEL 6
REMARK VINA RESULT:      -2.4      1.265      1.843
REMARK  3 active torsions:
REMARK  status: ('A' for Active; 'I' for Inactive)
REMARK       I    between atoms: C_6  and  N_9 
REMARK    1  A    between atoms: C_7  and  C_6 
REMARK    2  A    between atoms: N_9  and  C_17 
REMARK    3  A    between atoms: C_17  and  C_16 
ROOT
ATOM      1  N   UNL d   1      55.809   0.504  34.525  0.00  0.00    -0.304 N 
ATOM      2  C   UNL d   1      56.528   0.560  34.917  0.00  0.00     0.064 A 
ATOM      3  C   UNL d   1      55.952   0.537  33.716  0.00  0.00     0.064 A 
ATOM      4  C   UNL d   1      56.766   0.614  33.613  0.00  0.00     0.018 A 
ATOM      5  C   UNL d   1      57.118   0.628  34.350  0.00  0.00     0.019 A 
ATOM      6  C   UNL d   1      55.448   0.508  33.067  0.00  0.00     0.018 A 
ATOM      7  C   UNL d   1      57.082   0.662  32.843  0.00  0.00     0.003 A 
ATOM      8  C   UNL d   1      56.578   0.633  32.190  0.00  0.00     0.019 A 
ATOM      9  C   UNL d   1      55.757   0.555  32.303  0.00  0.00     0.003 A 
ATOM     10  C   UNL d   1      55.068   0.427  34.878  0.00  0.00     0.099 C 
ATOM     11  C   UNL d   1      56.641   0.549  35.733  0.00  0.00     0.019 C 
ENDROOT
BRANCH   8  12
ATOM     12  C   UNL d   1      56.887   0.680  31.429  0.00  0.00     0.102 C 
BRANCH  12  13
ATOM     13  N   UNL d   1      57.398   0.108  31.153  0.00  0.00    -0.206 NA
ATOM     14  C   UNL d   1      57.639   0.100  30.371  0.00  0.00     0.285 C 
ATOM     15  O   UNL d   1      57.363   0.679  29.854  0.00  0.00    -0.265 OA
BRANCH  14  16
ATOM     16  C   UNL d   1      58.156  -0.479  30.090  0.00  0.00     0.087 A 
ATOM     17  S   UNL d   1      58.841  -0.353  29.647  0.00  0.00    -0.082 SA
ATOM     18  C   UNL d   1      59.178  -1.086  29.492  0.00  0.00     0.036 A 
ATOM     19  C   UNL d   1      58.708  -1.676  29.837  0.00  0.00     0.008 A 
ATOM     20  C   UNL d   1      58.076  -1.295  30.207  0.00  0.00     0.012 A 
ENDBRANCH  14  16
ENDBRANCH  12  13
ENDBRANCH   8  12
TORSDOF 3
ENDMDL
