MODEL 1
REMARK VINA RESULT:      -3.8      0.000      0.000
REMARK  2 active torsions:
REMARK  status: ('A' for Active; 'I' for Inactive)
REMARK    1  A    between atoms: C_11  and  N_1 
REMARK    2  A    between atoms: C_16  and  C_11 
ROOT
ATOM      1  C   UNL d   1      33.038  18.036 -23.974  0.00  0.00     0.086 C 
ENDROOT
BRANCH   1   2
ATOM      2  N   UNL d   1      32.323  17.633 -24.035  0.00  0.00    -0.240 N 
ATOM      3  C   UNL d   1      31.710  17.822 -24.552  0.00  0.00     0.267 A 
ATOM      4  C   UNL d   1      31.099  17.276 -24.428  0.00  0.00     0.061 A 
ATOM      5  O   UNL d   1      31.701  18.437 -25.093  0.00  0.00    -0.267 OA
ATOM      6  C   UNL d   1      30.363  17.190 -24.777  0.00  0.00     0.005 A 
ATOM      7  C   UNL d   1      31.338  16.754 -23.836  0.00  0.00     0.061 A 
ATOM      8  C   UNL d   1      29.865  16.581 -24.533  0.00  0.00     0.000 A 
ATOM      9  C   UNL d   1      30.102  16.061 -23.944  0.00  0.00     0.000 A 
ATOM     10  C   UNL d   1      30.846  16.152 -23.595  0.00  0.00     0.005 A 
ATOM     11  C   UNL d   1      32.095  16.978 -23.595  0.00  0.00     0.267 A 
ATOM     12  O   UNL d   1      32.546  16.601 -23.009  0.00  0.00    -0.267 OA
ENDBRANCH   1   2
BRANCH   1  13
ATOM     13  C   UNL d   1      33.078  18.769 -23.582  0.00  0.00     0.018 A 
ATOM     14  C   UNL d   1      33.086  18.789 -22.758  0.00  0.00     0.003 A 
ATOM     15  C   UNL d   1      33.127  19.532 -22.366  0.00  0.00     0.018 A 
ATOM     16  C   UNL d   1      33.144  19.733 -21.567  0.00  0.00     0.019 A 
ATOM     17  C   UNL d   1      33.158  20.230 -22.811  0.00  0.00     0.064 A 
ATOM     18  C   UNL d   1      33.186  20.555 -21.504  0.00  0.00     0.064 A 
ATOM     19  C   UNL d   1      33.213  20.989 -20.803  0.00  0.00     0.019 C 
ATOM     20  N   UNL d   1      33.195  20.856 -22.274  0.00  0.00    -0.304 N 
ATOM     21  C   UNL d   1      33.234  21.667 -22.474  0.00  0.00     0.099 C 
ATOM     22  C   UNL d   1      33.150  20.203 -23.637  0.00  0.00     0.018 A 
ATOM     23  C   UNL d   1      33.110  19.479 -24.023  0.00  0.00     0.003 A 
ENDBRANCH   1  13
TORSDOF 2
ENDMDL
MODEL 2
REMARK VINA RESULT:      -3.8      1.042      1.660
REMARK  2 active torsions:
REMARK  status: ('A' for Active; 'I' for Inactive)
REMARK    1  A    between atoms: C_11  and  N_1 
REMARK    2  A    between atoms: C_16  and  C_11 
ROOT
ATOM      1  C   UNL d   1      31.893  16.680 -24.298  0.00  0.00     0.086 C 
ENDROOT
BRANCH   1   2
ATOM      2  N   UNL d   1      31.135  16.461 -24.070  0.00  0.00    -0.240 N 
ATOM      3  C   UNL d   1      30.436  16.712 -24.428  0.00  0.00     0.267 A 
ATOM      4  C   UNL d   1      29.804  16.359 -24.023  0.00  0.00     0.061 A 
ATOM      5  O   UNL d   1      30.372  17.219 -25.069  0.00  0.00    -0.267 OA
ATOM      6  C   UNL d   1      28.994  16.404 -24.130  0.00  0.00     0.005 A 
ATOM      7  C   UNL d   1      30.116  15.893 -23.420  0.00  0.00     0.061 A 
ATOM      8  C   UNL d   1      28.493  15.981 -23.630  0.00  0.00     0.000 A 
ATOM      9  C   UNL d   1      28.802  15.517 -23.029  0.00  0.00     0.000 A 
ATOM     10  C   UNL d   1      29.622  15.475 -22.925  0.00  0.00     0.005 A 
ATOM     11  C   UNL d   1      30.939  15.958 -23.451  0.00  0.00     0.267 A 
ATOM     12  O   UNL d   1      31.472  15.578 -22.941  0.00  0.00    -0.267 OA
ENDBRANCH   1   2
BRANCH   1  13
ATOM     13  C   UNL d   1      32.177  17.447 -24.142  0.00  0.00     0.018 A 
ATOM     14  C   UNL d   1      32.290  17.688 -23.362  0.00  0.00     0.003 A 
ATOM     15  C   UNL d   1      32.576  18.464 -23.209  0.00  0.00     0.018 A 
ATOM     16  C   UNL d   1      32.743  18.862 -22.507  0.00  0.00     0.019 A 
ATOM     17  C   UNL d   1      32.741  18.973 -23.842  0.00  0.00     0.064 A 
ATOM     18  C   UNL d   1      33.013  19.619 -22.692  0.00  0.00     0.064 A 
ATOM     19  C   UNL d   1      33.241  20.200 -22.153  0.00  0.00     0.019 C 
ATOM     20  N   UNL d   1      33.009  19.683 -23.516  0.00  0.00    -0.304 N 
ATOM     21  C   UNL d   1      33.241  20.359 -23.949  0.00  0.00     0.099 C 
ATOM     22  C   UNL d   1      32.626  18.725 -24.622  0.00  0.00     0.018 A 
ATOM     23  C   UNL d   1      32.346  17.968 -24.774  0.00  0.00     0.003 A 
ENDBRANCH   1  13
TORSDOF 2
ENDMDL
MODEL 3
REMARK VINA RESULT:      -3.5      0.919      4.431
REMARK  2 active torsions:
REMARK  status: ('A' for Active; 'I' for Inactive)
REMARK    1  A    between atoms: C_11  and  N_1 
REMARK    2  A    between atoms: C_16  and  C_11 
ROOT
ATOM      1  C   UNL d   1      33.132  17.839 -23.972  0.00  0.00     0.086 C 
ENDROOT
BRANCH   1   2
ATOM      2  N   UNL d   1      33.157  18.553 -23.566  0.00  0.00    -0.240 N 
ATOM      3  C   UNL d   1      33.176  18.637 -22.745  0.00  0.00     0.267 A 
ATOM      4  C   UNL d   1      33.198  19.448 -22.576  0.00  0.00     0.061 A 
ATOM      5  O   UNL d   1      33.174  18.031 -22.194  0.00  0.00    -0.267 OA
ATOM      6  C   UNL d   1      33.222  19.857 -21.868  0.00  0.00     0.005 A 
ATOM      7  C   UNL d   1      33.193  19.859 -23.290  0.00  0.00     0.061 A 
ATOM      8  C   UNL d   1      33.241  20.681 -21.873  0.00  0.00     0.000 A 
ATOM      9  C   UNL d   1      33.235  21.092 -22.583  0.00  0.00     0.000 A 
ATOM     10  C   UNL d   1      33.211  20.673 -23.297  0.00  0.00     0.005 A 
ATOM     11  C   UNL d   1      33.167  19.303 -23.900  0.00  0.00     0.267 A 
ATOM     12  O   UNL d   1      33.154  19.477 -24.711  0.00  0.00    -0.267 OA
ENDBRANCH   1   2
BRANCH   1  13
ATOM     13  C   UNL d   1      32.430  17.392 -24.000  0.00  0.00     0.018 A 
ATOM     14  C   UNL d   1      31.787  17.672 -24.433  0.00  0.00     0.003 A 
ATOM     15  C   UNL d   1      31.080  17.218 -24.459  0.00  0.00     0.018 A 
ATOM     16  C   UNL d   1      30.357  17.345 -24.835  0.00  0.00     0.019 A 
ATOM     17  C   UNL d   1      31.039  16.499 -24.051  0.00  0.00     0.064 A 
ATOM     18  C   UNL d   1      29.859  16.709 -24.666  0.00  0.00     0.064 A 
ATOM     19  C   UNL d   1      29.084  16.613 -24.932  0.00  0.00     0.019 C 
ATOM     20  N   UNL d   1      30.284  16.190 -24.182  0.00  0.00    -0.304 N 
ATOM     21  C   UNL d   1      29.994  15.469 -23.876  0.00  0.00     0.099 C 
ATOM     22  C   UNL d   1      31.687  16.223 -23.618  0.00  0.00     0.018 A 
ATOM     23  C   UNL d   1      32.379  16.665 -23.591  0.00  0.00     0.003 A 
ENDBRANCH   1  13
TORSDOF 2
ENDMDL
MODEL 4
REMARK VINA RESULT:      -3.1      1.092      4.401
REMARK  2 active torsions:
REMARK  status: ('A' for Active; 'I' for Inactive)
REMARK    1  A    between atoms: C_11  and  N_1 
REMARK    2  A    between atoms: C_16  and  C_11 
ROOT
ATOM      1  C   UNL d   1      33.239  18.881 -23.391  0.00  0.00     0.086 C 
ENDROOT
BRANCH   1   2
ATOM      2  N   UNL d   1      33.138  19.557 -22.934  0.00  0.00    -0.240 N 
ATOM      3  C   UNL d   1      33.018  19.570 -22.118  0.00  0.00     0.267 A 
ATOM      4  C   UNL d   1      32.945  20.363 -21.887  0.00  0.00     0.061 A 
ATOM      5  O   UNL d   1      32.979  18.920 -21.621  0.00  0.00    -0.267 OA
ATOM      6  C   UNL d   1      32.821  20.709 -21.157  0.00  0.00     0.005 A 
ATOM      7  C   UNL d   1      33.019  20.833 -22.560  0.00  0.00     0.061 A 
ATOM      8  C   UNL d   1      32.771  21.530 -21.098  0.00  0.00     0.000 A 
ATOM      9  C   UNL d   1      32.845  21.999 -21.767  0.00  0.00     0.000 A 
ATOM     10  C   UNL d   1      32.970  21.644 -22.503  0.00  0.00     0.005 A 
ATOM     11  C   UNL d   1      33.138  20.332 -23.205  0.00  0.00     0.267 A 
ATOM     12  O   UNL d   1      33.241  20.574 -23.992  0.00  0.00    -0.267 OA
ENDBRANCH   1   2
BRANCH   1  13
ATOM     13  C   UNL d   1      32.578  18.471 -23.691  0.00  0.00     0.018 A 
ATOM     14  C   UNL d   1      32.380  17.734 -23.378  0.00  0.00     0.003 A 
ATOM     15  C   UNL d   1      31.713  17.325 -23.683  0.00  0.00     0.018 A 
ATOM     16  C   UNL d   1      31.379  16.595 -23.492  0.00  0.00     0.019 A 
ATOM     17  C   UNL d   1      31.266  17.664 -24.293  0.00  0.00     0.064 A 
ATOM     18  C   UNL d   1      30.723  16.472 -23.978  0.00  0.00     0.064 A 
ATOM     19  C   UNL d   1      30.228  15.812 -23.970  0.00  0.00     0.019 C 
ATOM     20  N   UNL d   1      30.658  17.134 -24.469  0.00  0.00    -0.304 N 
ATOM     21  C   UNL d   1      30.069  17.246 -25.052  0.00  0.00     0.099 C 
ATOM     22  C   UNL d   1      31.470  18.402 -24.603  0.00  0.00     0.018 A 
ATOM     23  C   UNL d   1      32.122  18.806 -24.306  0.00  0.00     0.003 A 
ENDBRANCH   1  13
TORSDOF 2
ENDMDL
MODEL 5
REMARK VINA RESULT:      -2.9      1.098      4.489
REMARK  2 active torsions:
REMARK  status: ('A' for Active; 'I' for Inactive)
REMARK    1  A    between atoms: C_11  and  N_1 
REMARK    2  A    between atoms: C_16  and  C_11 
ROOT
ATOM      1  C   UNL d   1      32.218  17.029 -24.376  0.00  0.00     0.086 C 
ENDROOT
BRANCH   1   2
ATOM      2  N   UNL d   1      32.441  17.704 -23.962  0.00  0.00    -0.240 N 
ATOM      3  C   UNL d   1      32.685  17.723 -23.175  0.00  0.00     0.267 A 
ATOM      4  C   UNL d   1      32.856  18.512 -22.984  0.00  0.00     0.061 A 
ATOM      5  O   UNL d   1      32.748  17.082 -22.668  0.00  0.00    -0.267 OA
ATOM      6  C   UNL d   1      33.117  18.862 -22.292  0.00  0.00     0.005 A 
ATOM      7  C   UNL d   1      32.717  18.973 -23.653  0.00  0.00     0.061 A 
ATOM      8  C   UNL d   1      33.241  19.676 -22.268  0.00  0.00     0.000 A 
ATOM      9  C   UNL d   1      33.103  20.136 -22.933  0.00  0.00     0.000 A 
ATOM     10  C   UNL d   1      32.839  19.778 -23.630  0.00  0.00     0.005 A 
ATOM     11  C   UNL d   1      32.461  18.471 -24.256  0.00  0.00     0.267 A 
ATOM     12  O   UNL d   1      32.259  18.705 -25.026  0.00  0.00    -0.267 OA
ENDBRANCH   1   2
BRANCH   1  13
ATOM     13  C   UNL d   1      31.428  16.766 -24.363  0.00  0.00     0.018 A 
ATOM     14  C   UNL d   1      31.102  16.495 -23.656  0.00  0.00     0.003 A 
ATOM     15  C   UNL d   1      30.304  16.230 -23.647  0.00  0.00     0.018 A 
ATOM     16  C   UNL d   1      29.829  15.934 -23.042  0.00  0.00     0.019 A 
ATOM     17  C   UNL d   1      29.859  16.246 -24.344  0.00  0.00     0.064 A 
ATOM     18  C   UNL d   1      29.085  15.761 -23.355  0.00  0.00     0.064 A 
ATOM     19  C   UNL d   1      28.441  15.454 -22.939  0.00  0.00     0.019 C 
ATOM     20  N   UNL d   1      29.108  15.956 -24.158  0.00  0.00    -0.304 N 
ATOM     21  C   UNL d   1      28.472  15.871 -24.693  0.00  0.00     0.099 C 
ATOM     22  C   UNL d   1      30.191  16.519 -25.050  0.00  0.00     0.018 A 
ATOM     23  C   UNL d   1      30.971  16.778 -25.062  0.00  0.00     0.003 A 
ENDBRANCH   1  13
TORSDOF 2
ENDMDL
