MODEL 1
REMARK VINA RESULT:      92.8      0.000      0.000
REMARK  5 active torsions:
REMARK  status: ('A' for Active; 'I' for Inactive)
REMARK    1  A    between atoms: C_3  and  C_1 
REMARK    2  A    between atoms: S_2  and  C_3 
REMARK    3  A    between atoms: C_8  and  S_2 
REMARK    4  A    between atoms: C_9  and  C_3 
REMARK    5  A    between atoms: N_7  and  C_4 
ROOT
ATOM      1  C   UNL d   1     -51.523  25.085  34.046  0.00  0.00     0.128 A 
ATOM      2  C   UNL d   1     -51.649  24.289  33.890  0.00  0.00     0.166 A 
ATOM      3  N   UNL d   1     -50.768  25.407  33.981  0.00  0.00    -0.240 NA
ATOM      4  N   UNL d   1     -51.021  23.809  33.667  0.00  0.00    -0.225 NA
ATOM      5  C   UNL d   1     -50.144  24.924  33.758  0.00  0.00     0.099 A 
ATOM      6  C   UNL d   1     -50.261  24.127  33.599  0.00  0.00     0.101 A 
ATOM      7  C   UNL d   1     -49.632  23.654  33.378  0.00  0.00     0.021 A 
ATOM      8  C   UNL d   1     -49.384  25.245  33.691  0.00  0.00     0.021 A 
ATOM      9  C   UNL d   1     -48.882  23.969  33.312  0.00  0.00     0.002 A 
ATOM     10  C   UNL d   1     -48.760  24.766  33.469  0.00  0.00     0.002 A 
ENDROOT
BRANCH   1  11
ATOM     11  C   UNL d   1     -52.147  25.569  34.270  0.00  0.00     0.129 C 
BRANCH  11  12
ATOM     12  S   UNL d   1     -52.002  26.168  34.910  0.00  0.00     0.213 S 
ATOM     13  O   UNL d   1     -51.788  26.992  34.658  0.00  0.00    -0.217 OA
ATOM     14  O   UNL d   1     -51.890  26.570  34.191  0.00  0.00    -0.217 OA
BRANCH  12  15
ATOM     15  C   UNL d   1     -52.023  26.130  35.741  0.00  0.00     0.088 A 
ATOM     16  C   UNL d   1     -51.421  26.498  36.182  0.00  0.00     0.011 A 
ATOM     17  C   UNL d   1     -51.447  26.457  37.008  0.00  0.00     0.001 A 
ATOM     18  C   UNL d   1     -50.858  26.817  37.452  0.00  0.00     0.000 C 
ATOM     19  C   UNL d   1     -52.061  26.055  37.392  0.00  0.00     0.000 A 
ATOM     20  C   UNL d   1     -52.659  25.690  36.939  0.00  0.00     0.001 A 
ATOM     21  C   UNL d   1     -52.629  25.733  36.116  0.00  0.00     0.011 A 
ENDBRANCH  12  15
ENDBRANCH  11  12
BRANCH  11  22
ATOM     22  C   UNL d   1     -52.961  25.598  33.975  0.00  0.00     0.135 C 
ATOM     23  N   UNL d   1     -53.285  26.079  33.307  0.00  0.00    -0.146 N 
ENDBRANCH  11  22
ENDBRANCH   1  11
BRANCH   2  24
ATOM     24  N   UNL d   1     -52.411  23.971  33.958  0.00  0.00    -0.284 N 
ATOM     25  C   UNL d   1     -52.651  23.623  34.679  0.00  0.00     0.108 A 
ATOM     26  C   UNL d   1     -53.423  23.305  34.737  0.00  0.00     0.142 A 
ATOM     27  O   UNL d   1     -53.944  23.335  34.087  0.00  0.00    -0.300 OA
ATOM     28  C   UNL d   1     -53.693  23.683  33.379  0.00  0.00     0.142 A 
ATOM     29  C   UNL d   1     -52.933  24.002  33.307  0.00  0.00     0.108 A 
ENDBRANCH   2  24
TORSDOF 5
ENDMDL
MODEL 2
REMARK VINA RESULT:      92.9      1.131      2.896
REMARK  5 active torsions:
REMARK  status: ('A' for Active; 'I' for Inactive)
REMARK    1  A    between atoms: C_3  and  C_1 
REMARK    2  A    between atoms: S_2  and  C_3 
REMARK    3  A    between atoms: C_8  and  S_2 
REMARK    4  A    between atoms: C_9  and  C_3 
REMARK    5  A    between atoms: N_7  and  C_4 
ROOT
ATOM      1  C   UNL d   1     -51.419  25.560  33.860  0.00  0.00     0.128 A 
ATOM      2  C   UNL d   1     -50.918  24.962  33.605  0.00  0.00     0.166 A 
ATOM      3  N   UNL d   1     -52.227  25.422  33.936  0.00  0.00    -0.240 NA
ATOM      4  N   UNL d   1     -51.221  24.220  33.422  0.00  0.00    -0.225 NA
ATOM      5  C   UNL d   1     -52.525  24.680  33.752  0.00  0.00     0.099 A 
ATOM      6  C   UNL d   1     -52.031  24.076  33.496  0.00  0.00     0.101 A 
ATOM      7  C   UNL d   1     -52.340  23.340  33.315  0.00  0.00     0.021 A 
ATOM      8  C   UNL d   1     -53.338  24.538  33.827  0.00  0.00     0.021 A 
ATOM      9  C   UNL d   1     -53.140  23.199  33.388  0.00  0.00     0.002 A 
ATOM     10  C   UNL d   1     -53.638  23.800  33.645  0.00  0.00     0.002 A 
ENDROOT
BRANCH   1  11
ATOM     11  C   UNL d   1     -51.121  26.302  34.044  0.00  0.00     0.129 C 
BRANCH  11  12
ATOM     12  S   UNL d   1     -51.489  26.744  34.722  0.00  0.00     0.213 S 
ATOM     13  O   UNL d   1     -52.173  27.279  34.537  0.00  0.00    -0.217 OA
ATOM     14  O   UNL d   1     -51.916  26.967  34.044  0.00  0.00    -0.217 OA
BRANCH  12  15
ATOM     15  C   UNL d   1     -51.328  26.771  35.538  0.00  0.00     0.088 A 
ATOM     16  C   UNL d   1     -51.946  26.638  36.080  0.00  0.00     0.011 A 
ATOM     17  C   UNL d   1     -51.781  26.667  36.890  0.00  0.00     0.001 A 
ATOM     18  C   UNL d   1     -52.383  26.537  37.433  0.00  0.00     0.000 C 
ATOM     19  C   UNL d   1     -51.013  26.825  37.159  0.00  0.00     0.000 A 
ATOM     20  C   UNL d   1     -50.403  26.956  36.607  0.00  0.00     0.001 A 
ATOM     21  C   UNL d   1     -50.572  26.927  35.800  0.00  0.00     0.011 A 
ENDBRANCH  12  15
ENDBRANCH  11  12
BRANCH  11  22
ATOM     22  C   UNL d   1     -50.479  26.750  33.674  0.00  0.00     0.135 C 
ATOM     23  N   UNL d   1     -49.978  27.386  34.032  0.00  0.00    -0.146 N 
ENDBRANCH  11  22
ENDBRANCH   1  11
BRANCH   2  24
ATOM     24  N   UNL d   1     -50.105  25.108  33.531  0.00  0.00    -0.284 N 
ATOM     25  C   UNL d   1     -49.837  25.886  33.386  0.00  0.00     0.108 A 
ATOM     26  C   UNL d   1     -49.015  26.023  33.314  0.00  0.00     0.142 A 
ATOM     27  O   UNL d   1     -48.473  25.393  33.385  0.00  0.00    -0.300 OA
ATOM     28  C   UNL d   1     -48.752  24.628  33.528  0.00  0.00     0.142 A 
ATOM     29  C   UNL d   1     -49.563  24.478  33.602  0.00  0.00     0.108 A 
ENDBRANCH   2  24
TORSDOF 5
ENDMDL
