MODEL 1
REMARK VINA RESULT:       2.6      0.000      0.000
REMARK  3 active torsions:
REMARK  status: ('A' for Active; 'I' for Inactive)
REMARK    1  A    between atoms: N_10  and  C_3 
REMARK    2  A    between atoms: C_13  and  C_5 
REMARK    3  A    between atoms: C_12  and  C_9 
ROOT
ATOM      1  N   UNL d   1      58.583  -1.321  30.111  0.00  0.00    -0.196 N 
ATOM      2  C   UNL d   1      59.237  -1.621  29.717  0.00  0.00     0.167 A 
ATOM      3  C   UNL d   1      58.558  -0.526  30.331  0.00  0.00     0.152 A 
ATOM      4  N   UNL d   1      58.044  -1.932  30.213  0.00  0.00    -0.163 NA
ATOM      5  C   UNL d   1      59.105  -2.419  29.573  0.00  0.00     0.055 A 
ATOM      6  N   UNL d   1      59.875  -1.132  29.535  0.00  0.00    -0.231 NA
ATOM      7  C   UNL d   1      59.197  -0.036  30.149  0.00  0.00     0.052 A 
ATOM      8  C   UNL d   1      58.371  -2.614  29.877  0.00  0.00     0.104 A 
ATOM      9  C   UNL d   1      59.850  -0.336  29.755  0.00  0.00     0.063 A 
ATOM     10  C   UNL d   1      58.028  -3.360  29.849  0.00  0.00     0.023 C 
ENDROOT
BRANCH   3  11
ATOM     11  N   UNL d   1      57.905  -0.226  30.725  0.00  0.00    -0.286 N 
ATOM     12  C   UNL d   1      57.722  -0.487  31.487  0.00  0.00     0.101 A 
ATOM     13  C   UNL d   1      57.064  -0.185  31.884  0.00  0.00     0.100 A 
ATOM     14  N   UNL d   1      56.587   0.379  31.521  0.00  0.00    -0.299 N 
ATOM     15  C   UNL d   1      56.766   0.641  30.762  0.00  0.00     0.100 A 
ATOM     16  C   UNL d   1      55.930   0.681  31.918  0.00  0.00     0.100 C 
ATOM     17  C   UNL d   1      57.423   0.339  30.365  0.00  0.00     0.101 A 
ENDBRANCH   3  11
BRANCH   9  18
ATOM     18  C   UNL d   1      60.496   0.176  29.576  0.00  0.00     0.036 C 
ATOM     19  C   UNL d   1      61.133   0.682  29.399  0.00  0.00     0.006 C 
ATOM     20  C   UNL d   1      60.781   0.089  30.354  0.00  0.00     0.006 C 
ATOM     21  C   UNL d   1      60.207   0.262  28.797  0.00  0.00     0.006 C 
ENDBRANCH   9  18
BRANCH   5  22
ATOM     22  C   UNL d   1      59.560  -2.998  29.201  0.00  0.00     0.004 A 
ATOM     23  C   UNL d   1      59.199  -3.658  28.851  0.00  0.00     0.000 A 
ATOM     24  C   UNL d   1      59.657  -4.234  28.482  0.00  0.00     0.000 A 
ATOM     25  C   UNL d   1      60.481  -4.162  28.456  0.00  0.00     0.000 A 
ATOM     26  C   UNL d   1      60.844  -3.498  28.807  0.00  0.00     0.000 A 
ATOM     27  C   UNL d   1      60.381  -2.923  29.176  0.00  0.00     0.000 A 
ENDBRANCH   5  22
TORSDOF 3
ENDMDL
MODEL 2
REMARK VINA RESULT:       4.2      8.673      9.078
REMARK  3 active torsions:
REMARK  status: ('A' for Active; 'I' for Inactive)
REMARK    1  A    between atoms: N_10  and  C_3 
REMARK    2  A    between atoms: C_13  and  C_5 
REMARK    3  A    between atoms: C_12  and  C_9 
ROOT
ATOM      1  N   UNL d   1      58.279  -9.748  30.961  0.00  0.00    -0.196 N 
ATOM      2  C   UNL d   1      58.992  -9.741  31.367  0.00  0.00     0.167 A 
ATOM      3  C   UNL d   1      58.269  -9.769  30.136  0.00  0.00     0.152 A 
ATOM      4  N   UNL d   1      57.672  -9.731  31.512  0.00  0.00    -0.163 NA
ATOM      5  C   UNL d   1      58.828  -9.719  32.171  0.00  0.00     0.055 A 
ATOM      6  N   UNL d   1      59.706  -9.754  30.955  0.00  0.00    -0.231 NA
ATOM      7  C   UNL d   1      58.985  -9.783  29.723  0.00  0.00     0.052 A 
ATOM      8  C   UNL d   1      58.016  -9.713  32.265  0.00  0.00     0.104 A 
ATOM      9  C   UNL d   1      59.697  -9.776  30.129  0.00  0.00     0.063 A 
ATOM     10  C   UNL d   1      57.621  -9.693  32.985  0.00  0.00     0.023 C 
ENDROOT
BRANCH   3  11
ATOM     11  N   UNL d   1      57.557  -9.776  29.730  0.00  0.00    -0.286 N 
ATOM     12  C   UNL d   1      57.547  -9.750  28.905  0.00  0.00     0.101 A 
ATOM     13  C   UNL d   1      56.830  -9.757  28.497  0.00  0.00     0.100 A 
ATOM     14  N   UNL d   1      56.120  -9.791  28.912  0.00  0.00    -0.299 N 
ATOM     15  C   UNL d   1      56.126  -9.817  29.734  0.00  0.00     0.100 A 
ATOM     16  C   UNL d   1      55.403  -9.798  28.504  0.00  0.00     0.100 C 
ATOM     17  C   UNL d   1      56.843  -9.810  30.142  0.00  0.00     0.101 A 
ENDBRANCH   3  11
BRANCH   9  18
ATOM     18  C   UNL d   1      60.420  -9.790  29.695  0.00  0.00     0.036 C 
ATOM     19  C   UNL d   1      61.133  -9.804  29.266  0.00  0.00     0.006 C 
ATOM     20  C   UNL d   1      60.848  -9.818  30.410  0.00  0.00     0.006 C 
ATOM     21  C   UNL d   1      59.987  -9.762  28.981  0.00  0.00     0.006 C 
ENDBRANCH   9  18
BRANCH   5  22
ATOM     22  C   UNL d   1      59.316  -9.704  32.836  0.00  0.00     0.004 A 
ATOM     23  C   UNL d   1      60.131  -9.576  32.759  0.00  0.00     0.000 A 
ATOM     24  C   UNL d   1      60.614  -9.562  33.426  0.00  0.00     0.000 A 
ATOM     25  C   UNL d   1      60.291  -9.675  34.180  0.00  0.00     0.000 A 
ATOM     26  C   UNL d   1      59.471  -9.804  34.258  0.00  0.00     0.000 A 
ATOM     27  C   UNL d   1      58.991  -9.817  33.587  0.00  0.00     0.000 A 
ENDBRANCH   5  22
TORSDOF 3
ENDMDL
