MODEL 1
REMARK VINA RESULT:      24.3      0.000      0.000
REMARK  3 active torsions:
REMARK  status: ('A' for Active; 'I' for Inactive)
REMARK       I    between atoms: C_2  and  N_1 
REMARK    1  A    between atoms: C_4  and  C_2 
REMARK    2  A    between atoms: C_6  and  C_4 
REMARK    3  A    between atoms: C_10  and  C_6 
ROOT
ATOM      1  N   UNL d   1      14.231  12.539  -1.672  0.00  0.00    -0.273 N 
ATOM      2  C   UNL d   1      13.710  12.734  -2.270  0.00  0.00     0.265 C 
ATOM      3  C   UNL d   1      14.599  13.068  -1.170  0.00  0.00     0.067 A 
ATOM      4  C   UNL d   1      14.474  11.779  -1.473  0.00  0.00     0.083 A 
ATOM      5  C   UNL d   1      15.076  12.638  -0.652  0.00  0.00     0.018 A 
ATOM      6  O   UNL d   1      13.514  13.521  -2.409  0.00  0.00    -0.267 OA
ATOM      7  C   UNL d   1      15.002  11.841  -0.837  0.00  0.00     0.021 A 
ATOM      8  C   UNL d   1      14.566  13.893  -1.110  0.00  0.00     0.018 A 
ATOM      9  C   UNL d   1      15.521  13.031  -0.075  0.00  0.00     0.002 A 
ATOM     10  C   UNL d   1      15.010  14.280  -0.535  0.00  0.00     0.002 A 
ATOM     11  C   UNL d   1      15.489  13.852  -0.015  0.00  0.00     0.000 A 
ENDROOT
BRANCH   2  12
ATOM     12  C   UNL d   1      13.377  12.143  -2.737  0.00  0.00     0.061 C 
BRANCH  12  13
ATOM     13  C   UNL d   1      12.817  12.330  -3.311  0.00  0.00     0.005 C 
BRANCH  13  14
ATOM     14  C   UNL d   1      13.051  12.425  -4.092  0.00  0.00     0.002 A 
ATOM     15  C   UNL d   1      12.992  13.163  -4.454  0.00  0.00     0.030 A 
ATOM     16  C   UNL d   1      13.227  13.263  -5.242  0.00  0.00     0.140 A 
ATOM     17  F   UNL d   1      13.168  13.999  -5.601  0.00  0.00    -0.204 F 
ATOM     18  C   UNL d   1      13.524  12.618  -5.667  0.00  0.00     0.030 A 
ATOM     19  C   UNL d   1      13.583  11.877  -5.301  0.00  0.00     0.002 A 
ATOM     20  C   UNL d   1      13.348  11.779  -4.517  0.00  0.00     0.000 A 
ENDBRANCH  13  14
ENDBRANCH  12  13
ENDBRANCH   2  12
TORSDOF 3
ENDMDL
MODEL 2
REMARK VINA RESULT:      26.6      1.534      4.177
REMARK  3 active torsions:
REMARK  status: ('A' for Active; 'I' for Inactive)
REMARK       I    between atoms: C_2  and  N_1 
REMARK    1  A    between atoms: C_4  and  C_2 
REMARK    2  A    between atoms: C_6  and  C_4 
REMARK    3  A    between atoms: C_10  and  C_6 
ROOT
ATOM      1  N   UNL d   1      13.407  12.561  -3.630  0.00  0.00    -0.273 N 
ATOM      2  C   UNL d   1      13.545  12.738  -2.844  0.00  0.00     0.265 C 
ATOM      3  C   UNL d   1      13.199  13.098  -4.210  0.00  0.00     0.067 A 
ATOM      4  C   UNL d   1      13.455  11.815  -3.972  0.00  0.00     0.083 A 
ATOM      5  C   UNL d   1      13.115  12.688  -4.920  0.00  0.00     0.018 A 
ATOM      6  O   UNL d   1      13.478  13.512  -2.575  0.00  0.00    -0.267 OA
ATOM      7  C   UNL d   1      13.272  11.894  -4.777  0.00  0.00     0.021 A 
ATOM      8  C   UNL d   1      13.072  13.916  -4.189  0.00  0.00     0.018 A 
ATOM      9  C   UNL d   1      12.904  13.092  -5.611  0.00  0.00     0.002 A 
ATOM     10  C   UNL d   1      12.863  14.315  -4.878  0.00  0.00     0.002 A 
ATOM     11  C   UNL d   1      12.778  13.906  -5.592  0.00  0.00     0.000 A 
ENDROOT
BRANCH   2  12
ATOM     12  C   UNL d   1      13.752  12.139  -2.317  0.00  0.00     0.061 C 
BRANCH  12  13
ATOM     13  C   UNL d   1      13.645  12.242  -1.507  0.00  0.00     0.005 C 
BRANCH  13  14
ATOM     14  C   UNL d   1      14.292  12.410  -1.030  0.00  0.00     0.002 A 
ATOM     15  C   UNL d   1      14.418  13.180  -0.763  0.00  0.00     0.030 A 
ATOM     16  C   UNL d   1      15.069  13.354  -0.281  0.00  0.00     0.140 A 
ATOM     17  F   UNL d   1      15.193  14.122  -0.016  0.00  0.00    -0.204 F 
ATOM     18  C   UNL d   1      15.595  12.752  -0.068  0.00  0.00     0.030 A 
ATOM     19  C   UNL d   1      15.467  11.979  -0.338  0.00  0.00     0.002 A 
ATOM     20  C   UNL d   1      14.818  11.808  -0.817  0.00  0.00     0.000 A 
ENDBRANCH  13  14
ENDBRANCH  12  13
ENDBRANCH   2  12
TORSDOF 3
ENDMDL
