MODEL 1
REMARK VINA RESULT:      -8.3      0.000      0.000
REMARK  6 active torsions:
REMARK  status: ('A' for Active; 'I' for Inactive)
REMARK    1  A    between atoms: C_3  and  C_2 
REMARK    2  A    between atoms: O_5  and  C_3 
REMARK    3  A    between atoms: C_9  and  O_5 
REMARK    4  A    between atoms: C_6  and  C_9 
REMARK    5  A    between atoms: C_7  and  C_6 
REMARK    6  A    between atoms: O_19  and  C_16 
ROOT
ATOM      1  C   UNL d   1      51.297  33.243  53.255  0.00  0.00     0.318 C 
ATOM      2  O   UNL d   1      50.724  32.768  53.613  0.00  0.00    -0.257 OA
ENDROOT
BRANCH   1   3
ATOM      3  C   UNL d   1      52.095  33.139  53.435  0.00  0.00     0.145 A 
ATOM      4  N   UNL d   1      52.443  33.586  54.050  0.00  0.00    -0.240 NA
ATOM      5  C   UNL d   1      53.240  33.485  54.233  0.00  0.00     0.082 A 
ATOM      6  C   UNL d   1      53.703  32.936  53.802  0.00  0.00     0.018 A 
ATOM      7  C   UNL d   1      53.583  33.923  54.837  0.00  0.00     0.019 A 
ATOM      8  C   UNL d   1      53.358  32.491  53.188  0.00  0.00     0.003 A 
ATOM      9  C   UNL d   1      54.499  32.836  53.984  0.00  0.00     0.002 A 
ATOM     10  C   UNL d   1      52.556  32.593  53.006  0.00  0.00     0.025 A 
ATOM     11  C   UNL d   1      54.836  33.282  54.595  0.00  0.00     0.000 A 
ATOM     12  C   UNL d   1      54.380  33.822  55.019  0.00  0.00     0.002 A 
ENDBRANCH   1   3
BRANCH   1  13
ATOM     13  O   UNL d   1      51.067  33.827  52.712  0.00  0.00    -0.266 OA
BRANCH  13  14
ATOM     14  C   UNL d   1      50.286  34.086  52.688  0.00  0.00     0.168 C 
BRANCH  14  15
ATOM     15  C   UNL d   1      49.994  34.472  52.023  0.00  0.00     0.220 C 
ATOM     16  O   UNL d   1      50.436  34.470  51.326  0.00  0.00    -0.284 OA
BRANCH  15  17
ATOM     17  C   UNL d   1      49.264  34.857  52.052  0.00  0.00     0.041 A 
ATOM     18  C   UNL d   1      49.063  35.295  52.722  0.00  0.00     0.005 A 
ATOM     19  C   UNL d   1      48.335  35.678  52.747  0.00  0.00     0.024 A 
ATOM     20  C   UNL d   1      47.811  35.622  52.106  0.00  0.00     0.094 A 
ATOM     21  C   UNL d   1      48.023  35.181  51.441  0.00  0.00     0.024 A 
ATOM     22  C   UNL d   1      48.751  34.798  51.415  0.00  0.00     0.005 A 
BRANCH  20  23
ATOM     23  O   UNL d   1      47.090  36.003  52.134  0.00  0.00    -0.328 OA
ATOM     24  C   UNL d   1      46.414  35.633  51.825  0.00  0.00     0.181 C 
ENDBRANCH  20  23
ENDBRANCH  15  17
ENDBRANCH  14  15
ENDBRANCH  13  14
ENDBRANCH   1  13
TORSDOF 6
ENDMDL
MODEL 2
REMARK VINA RESULT:      -8.1      1.410      5.594
REMARK  6 active torsions:
REMARK  status: ('A' for Active; 'I' for Inactive)
REMARK    1  A    between atoms: C_3  and  C_2 
REMARK    2  A    between atoms: O_5  and  C_3 
REMARK    3  A    between atoms: C_9  and  O_5 
REMARK    4  A    between atoms: C_6  and  C_9 
REMARK    5  A    between atoms: C_7  and  C_6 
REMARK    6  A    between atoms: O_19  and  C_16 
ROOT
ATOM      1  C   UNL d   1      50.284  34.120  52.843  0.00  0.00     0.318 C 
ATOM      2  O   UNL d   1      50.178  33.361  53.148  0.00  0.00    -0.257 OA
ENDROOT
BRANCH   1   3
ATOM      3  C   UNL d   1      49.639  34.552  52.565  0.00  0.00     0.145 A 
ATOM      4  N   UNL d   1      49.235  35.073  53.081  0.00  0.00    -0.240 NA
ATOM      5  C   UNL d   1      48.590  35.506  52.808  0.00  0.00     0.082 A 
ATOM      6  C   UNL d   1      48.337  35.425  52.013  0.00  0.00     0.018 A 
ATOM      7  C   UNL d   1      48.194  36.018  53.313  0.00  0.00     0.019 A 
ATOM      8  C   UNL d   1      48.737  34.907  51.498  0.00  0.00     0.003 A 
ATOM      9  C   UNL d   1      47.693  35.858  51.740  0.00  0.00     0.002 A 
ATOM     10  C   UNL d   1      49.387  34.472  51.775  0.00  0.00     0.025 A 
ATOM     11  C   UNL d   1      47.300  36.371  52.257  0.00  0.00     0.000 A 
ATOM     12  C   UNL d   1      47.549  36.451  53.039  0.00  0.00     0.002 A 
ENDBRANCH   1   3
BRANCH   1  13
ATOM     13  O   UNL d   1      51.046  34.450  52.816  0.00  0.00    -0.266 OA
BRANCH  13  14
ATOM     14  C   UNL d   1      51.672  34.081  53.203  0.00  0.00     0.168 C 
BRANCH  14  15
ATOM     15  C   UNL d   1      52.427  34.405  53.179  0.00  0.00     0.220 C 
ATOM     16  O   UNL d   1      52.594  35.005  52.638  0.00  0.00    -0.284 OA
BRANCH  15  17
ATOM     17  C   UNL d   1      53.014  34.131  53.692  0.00  0.00     0.041 A 
ATOM     18  C   UNL d   1      53.134  34.515  54.412  0.00  0.00     0.005 A 
ATOM     19  C   UNL d   1      53.720  34.238  54.920  0.00  0.00     0.024 A 
ATOM     20  C   UNL d   1      54.182  33.583  54.708  0.00  0.00     0.094 A 
ATOM     21  C   UNL d   1      54.052  33.207  53.985  0.00  0.00     0.024 A 
ATOM     22  C   UNL d   1      53.467  33.483  53.476  0.00  0.00     0.005 A 
BRANCH  20  23
ATOM     23  O   UNL d   1      54.762  33.312  55.214  0.00  0.00    -0.328 OA
ATOM     24  C   UNL d   1      55.486  33.714  55.268  0.00  0.00     0.181 C 
ENDBRANCH  20  23
ENDBRANCH  15  17
ENDBRANCH  14  15
ENDBRANCH  13  14
ENDBRANCH   1  13
TORSDOF 6
ENDMDL
MODEL 3
REMARK VINA RESULT:      -8.1      0.938      1.585
REMARK  6 active torsions:
REMARK  status: ('A' for Active; 'I' for Inactive)
REMARK    1  A    between atoms: C_3  and  C_2 
REMARK    2  A    between atoms: O_5  and  C_3 
REMARK    3  A    between atoms: C_9  and  O_5 
REMARK    4  A    between atoms: C_6  and  C_9 
REMARK    5  A    between atoms: C_7  and  C_6 
REMARK    6  A    between atoms: O_19  and  C_16 
ROOT
ATOM      1  C   UNL d   1      51.129  34.265  52.420  0.00  0.00     0.318 C 
ATOM      2  O   UNL d   1      51.061  34.198  51.600  0.00  0.00    -0.257 OA
ENDROOT
BRANCH   1   3
ATOM      3  C   UNL d   1      51.821  34.027  52.801  0.00  0.00     0.145 A 
ATOM      4  N   UNL d   1      52.017  33.214  52.836  0.00  0.00    -0.240 NA
ATOM      5  C   UNL d   1      52.706  32.972  53.216  0.00  0.00     0.082 A 
ATOM      6  C   UNL d   1      53.212  33.539  53.568  0.00  0.00     0.018 A 
ATOM      7  C   UNL d   1      52.899  32.175  53.251  0.00  0.00     0.019 A 
ATOM      8  C   UNL d   1      53.019  34.348  53.534  0.00  0.00     0.003 A 
ATOM      9  C   UNL d   1      53.901  33.297  53.948  0.00  0.00     0.002 A 
ATOM     10  C   UNL d   1      52.324  34.590  53.151  0.00  0.00     0.025 A 
ATOM     11  C   UNL d   1      54.087  32.491  53.978  0.00  0.00     0.000 A 
ATOM     12  C   UNL d   1      53.589  31.933  53.632  0.00  0.00     0.002 A 
ENDBRANCH   1   3
BRANCH   1  13
ATOM     13  O   UNL d   1      50.498  34.574  52.862  0.00  0.00    -0.266 OA
BRANCH  13  14
ATOM     14  C   UNL d   1      49.794  34.782  52.489  0.00  0.00     0.168 C 
BRANCH  14  15
ATOM     15  C   UNL d   1      49.216  35.203  52.894  0.00  0.00     0.220 C 
ATOM     16  O   UNL d   1      49.339  35.403  53.685  0.00  0.00    -0.284 OA
BRANCH  15  17
ATOM     17  C   UNL d   1      48.518  35.425  52.512  0.00  0.00     0.041 A 
ATOM     18  C   UNL d   1      48.313  35.062  51.800  0.00  0.00     0.005 A 
ATOM     19  C   UNL d   1      47.616  35.285  51.422  0.00  0.00     0.024 A 
ATOM     20  C   UNL d   1      47.129  35.868  51.755  0.00  0.00     0.094 A 
ATOM     21  C   UNL d   1      47.345  36.224  52.468  0.00  0.00     0.024 A 
ATOM     22  C   UNL d   1      48.041  36.001  52.847  0.00  0.00     0.005 A 
BRANCH  20  23
ATOM     23  O   UNL d   1      46.439  36.087  51.378  0.00  0.00    -0.328 OA
ATOM     24  C   UNL d   1      45.732  35.685  51.542  0.00  0.00     0.181 C 
ENDBRANCH  20  23
ENDBRANCH  15  17
ENDBRANCH  14  15
ENDBRANCH  13  14
ENDBRANCH   1  13
TORSDOF 6
ENDMDL
MODEL 4
REMARK VINA RESULT:      -7.5      1.888      2.987
REMARK  6 active torsions:
REMARK  status: ('A' for Active; 'I' for Inactive)
REMARK    1  A    between atoms: C_3  and  C_2 
REMARK    2  A    between atoms: O_5  and  C_3 
REMARK    3  A    between atoms: C_9  and  O_5 
REMARK    4  A    between atoms: C_6  and  C_9 
REMARK    5  A    between atoms: C_7  and  C_6 
REMARK    6  A    between atoms: O_19  and  C_16 
ROOT
ATOM      1  C   UNL d   1      53.787  32.969  53.542  0.00  0.00     0.318 C 
ATOM      2  O   UNL d   1      54.489  33.204  53.179  0.00  0.00    -0.257 OA
ENDROOT
BRANCH   1   3
ATOM      3  C   UNL d   1      53.670  32.180  53.753  0.00  0.00     0.145 A 
ATOM      4  N   UNL d   1      53.397  31.633  53.182  0.00  0.00    -0.240 NA
ATOM      5  C   UNL d   1      53.279  30.845  53.389  0.00  0.00     0.082 A 
ATOM      6  C   UNL d   1      53.433  30.589  54.172  0.00  0.00     0.018 A 
ATOM      7  C   UNL d   1      53.011  30.308  52.829  0.00  0.00     0.019 A 
ATOM      8  C   UNL d   1      53.706  31.132  54.742  0.00  0.00     0.003 A 
ATOM      9  C   UNL d   1      53.316  29.801  54.378  0.00  0.00     0.002 A 
ATOM     10  C   UNL d   1      53.823  31.925  54.532  0.00  0.00     0.025 A 
ATOM     11  C   UNL d   1      53.045  29.267  53.806  0.00  0.00     0.000 A 
ATOM     12  C   UNL d   1      52.894  29.519  53.036  0.00  0.00     0.002 A 
ENDBRANCH   1   3
BRANCH   1  13
ATOM     13  O   UNL d   1      53.194  33.530  53.696  0.00  0.00    -0.266 OA
BRANCH  13  14
ATOM     14  C   UNL d   1      52.871  33.970  53.079  0.00  0.00     0.168 C 
BRANCH  14  15
ATOM     15  C   UNL d   1      52.265  34.507  53.223  0.00  0.00     0.220 C 
ATOM     16  O   UNL d   1      52.373  35.098  53.789  0.00  0.00    -0.284 OA
BRANCH  15  17
ATOM     17  C   UNL d   1      51.555  34.456  52.804  0.00  0.00     0.041 A 
ATOM     18  C   UNL d   1      51.574  34.343  51.987  0.00  0.00     0.005 A 
ATOM     19  C   UNL d   1      50.864  34.292  51.573  0.00  0.00     0.024 A 
ATOM     20  C   UNL d   1      50.141  34.353  51.975  0.00  0.00     0.094 A 
ATOM     21  C   UNL d   1      50.135  34.466  52.792  0.00  0.00     0.024 A 
ATOM     22  C   UNL d   1      50.844  34.517  53.207  0.00  0.00     0.005 A 
BRANCH  20  23
ATOM     23  O   UNL d   1      49.439  34.302  51.561  0.00  0.00    -0.328 OA
ATOM     24  C   UNL d   1      48.783  34.749  51.802  0.00  0.00     0.181 C 
ENDBRANCH  20  23
ENDBRANCH  15  17
ENDBRANCH  14  15
ENDBRANCH  13  14
ENDBRANCH   1  13
TORSDOF 6
ENDMDL
MODEL 5
REMARK VINA RESULT:      -7.4      1.889      6.068
REMARK  6 active torsions:
REMARK  status: ('A' for Active; 'I' for Inactive)
REMARK    1  A    between atoms: C_3  and  C_2 
REMARK    2  A    between atoms: O_5  and  C_3 
REMARK    3  A    between atoms: C_9  and  O_5 
REMARK    4  A    between atoms: C_6  and  C_9 
REMARK    5  A    between atoms: C_7  and  C_6 
REMARK    6  A    between atoms: O_19  and  C_16 
ROOT
ATOM      1  C   UNL d   1      48.458  35.889  53.292  0.00  0.00     0.318 C 
ATOM      2  O   UNL d   1      48.893  36.287  53.869  0.00  0.00    -0.257 OA
ENDROOT
BRANCH   1   3
ATOM      3  C   UNL d   1      47.658  36.058  53.182  0.00  0.00     0.145 A 
ATOM      4  N   UNL d   1      47.105  35.849  53.773  0.00  0.00    -0.240 NA
ATOM      5  C   UNL d   1      46.305  36.015  53.668  0.00  0.00     0.082 A 
ATOM      6  C   UNL d   1      46.045  36.395  52.967  0.00  0.00     0.018 A 
ATOM      7  C   UNL d   1      45.762  35.811  54.247  0.00  0.00     0.019 A 
ATOM      8  C   UNL d   1      46.594  36.603  52.377  0.00  0.00     0.003 A 
ATOM      9  C   UNL d   1      45.246  36.561  52.862  0.00  0.00     0.002 A 
ATOM     10  C   UNL d   1      47.399  36.435  52.485  0.00  0.00     0.025 A 
ATOM     11  C   UNL d   1      44.706  36.351  53.452  0.00  0.00     0.000 A 
ATOM     12  C   UNL d   1      44.962  35.978  54.141  0.00  0.00     0.002 A 
ENDBRANCH   1   3
BRANCH   1  13
ATOM     13  O   UNL d   1      48.829  35.315  52.819  0.00  0.00    -0.266 OA
BRANCH  13  14
ATOM     14  C   UNL d   1      49.565  35.015  53.033  0.00  0.00     0.168 C 
BRANCH  14  15
ATOM     15  C   UNL d   1      49.968  34.501  52.533  0.00  0.00     0.220 C 
ATOM     16  O   UNL d   1      49.656  34.332  51.788  0.00  0.00    -0.284 OA
BRANCH  15  17
ATOM     17  C   UNL d   1      50.679  34.157  52.775  0.00  0.00     0.041 A 
ATOM     18  C   UNL d   1      51.393  34.514  52.569  0.00  0.00     0.005 A 
ATOM     19  C   UNL d   1      52.099  34.168  52.812  0.00  0.00     0.024 A 
ATOM     20  C   UNL d   1      52.089  33.469  53.259  0.00  0.00     0.094 A 
ATOM     21  C   UNL d   1      51.369  33.121  53.459  0.00  0.00     0.024 A 
ATOM     22  C   UNL d   1      50.662  33.466  53.217  0.00  0.00     0.005 A 
BRANCH  20  23
ATOM     23  O   UNL d   1      52.792  33.128  53.498  0.00  0.00    -0.328 OA
ATOM     24  C   UNL d   1      53.065  32.438  53.128  0.00  0.00     0.181 C 
ENDBRANCH  20  23
ENDBRANCH  15  17
ENDBRANCH  14  15
ENDBRANCH  13  14
ENDBRANCH   1  13
TORSDOF 6
ENDMDL
MODEL 6
REMARK VINA RESULT:      -7.1      1.961      5.514
REMARK  6 active torsions:
REMARK  status: ('A' for Active; 'I' for Inactive)
REMARK    1  A    between atoms: C_3  and  C_2 
REMARK    2  A    between atoms: O_5  and  C_3 
REMARK    3  A    between atoms: C_9  and  O_5 
REMARK    4  A    between atoms: C_6  and  C_9 
REMARK    5  A    between atoms: C_7  and  C_6 
REMARK    6  A    between atoms: O_19  and  C_16 
ROOT
ATOM      1  C   UNL d   1      52.362  34.032  53.244  0.00  0.00     0.318 C 
ATOM      2  O   UNL d   1      52.553  34.502  53.894  0.00  0.00    -0.257 OA
ENDROOT
BRANCH   1   3
ATOM      3  C   UNL d   1      51.676  34.178  52.811  0.00  0.00     0.145 A 
ATOM      4  N   UNL d   1      50.976  34.408  53.207  0.00  0.00    -0.240 NA
ATOM      5  C   UNL d   1      50.288  34.556  52.778  0.00  0.00     0.082 A 
ATOM      6  C   UNL d   1      50.289  34.475  51.944  0.00  0.00     0.018 A 
ATOM      7  C   UNL d   1      49.601  34.781  53.166  0.00  0.00     0.019 A 
ATOM      8  C   UNL d   1      50.985  34.246  51.548  0.00  0.00     0.003 A 
ATOM      9  C   UNL d   1      49.602  34.622  51.516  0.00  0.00     0.002 A 
ATOM     10  C   UNL d   1      51.676  34.098  51.981  0.00  0.00     0.025 A 
ATOM     11  C   UNL d   1      48.914  34.850  51.916  0.00  0.00     0.000 A 
ATOM     12  C   UNL d   1      48.914  34.929  52.737  0.00  0.00     0.002 A 
ENDBRANCH   1   3
BRANCH   1  13
ATOM     13  O   UNL d   1      52.864  33.407  53.025  0.00  0.00    -0.266 OA
BRANCH  13  14
ATOM     14  C   UNL d   1      53.098  32.848  53.583  0.00  0.00     0.168 C 
BRANCH  14  15
ATOM     15  C   UNL d   1      53.652  32.273  53.391  0.00  0.00     0.220 C 
ATOM     16  O   UNL d   1      54.364  32.497  53.040  0.00  0.00    -0.284 OA
BRANCH  15  17
ATOM     17  C   UNL d   1      53.498  31.477  53.549  0.00  0.00     0.041 A 
ATOM     18  C   UNL d   1      53.240  30.985  52.938  0.00  0.00     0.005 A 
ATOM     19  C   UNL d   1      53.087  30.192  53.099  0.00  0.00     0.024 A 
ATOM     20  C   UNL d   1      53.192  29.895  53.866  0.00  0.00     0.094 A 
ATOM     21  C   UNL d   1      53.450  30.396  54.469  0.00  0.00     0.024 A 
ATOM     22  C   UNL d   1      53.603  31.189  54.309  0.00  0.00     0.005 A 
BRANCH  20  23
ATOM     23  O   UNL d   1      53.039  29.108  54.022  0.00  0.00    -0.328 OA
ATOM     24  C   UNL d   1      53.331  28.759  54.716  0.00  0.00     0.181 C 
ENDBRANCH  20  23
ENDBRANCH  15  17
ENDBRANCH  14  15
ENDBRANCH  13  14
ENDBRANCH   1  13
TORSDOF 6
ENDMDL
MODEL 7
REMARK VINA RESULT:      -5.7     10.003     11.123
REMARK  6 active torsions:
REMARK  status: ('A' for Active; 'I' for Inactive)
REMARK    1  A    between atoms: C_3  and  C_2 
REMARK    2  A    between atoms: O_5  and  C_3 
REMARK    3  A    between atoms: C_9  and  O_5 
REMARK    4  A    between atoms: C_6  and  C_9 
REMARK    5  A    between atoms: C_7  and  C_6 
REMARK    6  A    between atoms: O_19  and  C_16 
ROOT
ATOM      1  C   UNL d   1      45.406  27.554  57.343  0.00  0.00     0.318 C 
ATOM      2  O   UNL d   1      45.991  27.198  57.804  0.00  0.00    -0.257 OA
ENDROOT
BRANCH   1   3
ATOM      3  C   UNL d   1      45.221  28.351  57.447  0.00  0.00     0.145 A 
ATOM      4  N   UNL d   1      45.257  28.689  58.212  0.00  0.00    -0.240 NA
ATOM      5  C   UNL d   1      45.072  29.484  58.320  0.00  0.00     0.082 A 
ATOM      6  C   UNL d   1      44.849  29.956  57.665  0.00  0.00     0.018 A 
ATOM      7  C   UNL d   1      45.107  29.816  59.070  0.00  0.00     0.019 A 
ATOM      8  C   UNL d   1      44.812  29.621  56.903  0.00  0.00     0.003 A 
ATOM      9  C   UNL d   1      44.665  30.750  57.773  0.00  0.00     0.002 A 
ATOM     10  C   UNL d   1      44.998  28.820  56.796  0.00  0.00     0.025 A 
ATOM     11  C   UNL d   1      44.703  31.076  58.533  0.00  0.00     0.000 A 
ATOM     12  C   UNL d   1      44.923  30.612  59.178  0.00  0.00     0.002 A 
ENDBRANCH   1   3
BRANCH   1  13
ATOM     13  O   UNL d   1      45.002  27.106  56.772  0.00  0.00    -0.266 OA
BRANCH  13  14
ATOM     14  C   UNL d   1      45.047  26.284  56.782  0.00  0.00     0.168 C 
BRANCH  14  15
ATOM     15  C   UNL d   1      44.684  25.838  56.194  0.00  0.00     0.220 C 
ATOM     16  O   UNL d   1      44.314  26.223  55.565  0.00  0.00    -0.284 OA
BRANCH  15  17
ATOM     17  C   UNL d   1      44.689  25.013  56.234  0.00  0.00     0.041 A 
ATOM     18  C   UNL d   1      44.331  24.636  56.875  0.00  0.00     0.005 A 
ATOM     19  C   UNL d   1      44.338  23.814  56.911  0.00  0.00     0.024 A 
ATOM     20  C   UNL d   1      44.702  23.373  56.309  0.00  0.00     0.094 A 
ATOM     21  C   UNL d   1      45.056  23.761  55.674  0.00  0.00     0.024 A 
ATOM     22  C   UNL d   1      45.050  24.584  55.637  0.00  0.00     0.005 A 
BRANCH  20  23
ATOM     23  O   UNL d   1      44.707  22.557  56.349  0.00  0.00    -0.328 OA
ATOM     24  C   UNL d   1      45.338  22.165  56.718  0.00  0.00     0.181 C 
ENDBRANCH  20  23
ENDBRANCH  15  17
ENDBRANCH  14  15
ENDBRANCH  13  14
ENDBRANCH   1  13
TORSDOF 6
ENDMDL
MODEL 8
REMARK VINA RESULT:      -5.6     10.405     11.253
REMARK  6 active torsions:
REMARK  status: ('A' for Active; 'I' for Inactive)
REMARK    1  A    between atoms: C_3  and  C_2 
REMARK    2  A    between atoms: O_5  and  C_3 
REMARK    3  A    between atoms: C_9  and  O_5 
REMARK    4  A    between atoms: C_6  and  C_9 
REMARK    5  A    between atoms: C_7  and  C_6 
REMARK    6  A    between atoms: O_19  and  C_16 
ROOT
ATOM      1  C   UNL d   1      44.708  25.248  56.480  0.00  0.00     0.318 C 
ATOM      2  O   UNL d   1      44.314  25.069  57.182  0.00  0.00    -0.257 OA
ENDROOT
BRANCH   1   3
ATOM      3  C   UNL d   1      44.711  24.709  55.855  0.00  0.00     0.145 A 
ATOM      4  N   UNL d   1      45.115  23.981  55.936  0.00  0.00    -0.240 NA
ATOM      5  C   UNL d   1      45.121  23.441  55.315  0.00  0.00     0.082 A 
ATOM      6  C   UNL d   1      44.721  23.619  54.600  0.00  0.00     0.018 A 
ATOM      7  C   UNL d   1      45.517  22.726  55.394  0.00  0.00     0.019 A 
ATOM      8  C   UNL d   1      44.318  24.343  54.517  0.00  0.00     0.003 A 
ATOM      9  C   UNL d   1      44.727  23.079  53.980  0.00  0.00     0.002 A 
ATOM     10  C   UNL d   1      44.314  24.886  55.144  0.00  0.00     0.025 A 
ATOM     11  C   UNL d   1      45.129  22.361  54.069  0.00  0.00     0.000 A 
ATOM     12  C   UNL d   1      45.522  22.186  54.772  0.00  0.00     0.002 A 
ENDBRANCH   1   3
BRANCH   1  13
ATOM     13  O   UNL d   1      45.104  25.974  56.402  0.00  0.00    -0.266 OA
BRANCH  13  14
ATOM     14  C   UNL d   1      45.022  26.554  56.981  0.00  0.00     0.168 C 
BRANCH  14  15
ATOM     15  C   UNL d   1      45.528  27.202  56.997  0.00  0.00     0.220 C 
ATOM     16  O   UNL d   1      46.276  27.140  56.655  0.00  0.00    -0.284 OA
BRANCH  15  17
ATOM     17  C   UNL d   1      45.290  27.908  57.354  0.00  0.00     0.041 A 
ATOM     18  C   UNL d   1      45.328  27.980  58.175  0.00  0.00     0.005 A 
ATOM     19  C   UNL d   1      45.089  28.685  58.527  0.00  0.00     0.024 A 
ATOM     20  C   UNL d   1      44.815  29.313  58.059  0.00  0.00     0.094 A 
ATOM     21  C   UNL d   1      44.781  29.228  57.239  0.00  0.00     0.024 A 
ATOM     22  C   UNL d   1      45.020  28.524  56.886  0.00  0.00     0.005 A 
BRANCH  20  23
ATOM     23  O   UNL d   1      44.579  30.011  58.411  0.00  0.00    -0.328 OA
ATOM     24  C   UNL d   1      45.105  30.427  58.898  0.00  0.00     0.181 C 
ENDBRANCH  20  23
ENDBRANCH  15  17
ENDBRANCH  14  15
ENDBRANCH  13  14
ENDBRANCH   1  13
TORSDOF 6
ENDMDL
