MODEL 1
REMARK VINA RESULT:      -3.7      0.000      0.000
REMARK  4 active torsions:
REMARK  status: ('A' for Active; 'I' for Inactive)
REMARK    1  A    between atoms: C_13  and  C_2 
REMARK       I    between atoms: N_7  and  C_8 
REMARK    2  A    between atoms: C_8  and  C_15 
REMARK    3  A    between atoms: S_14  and  C_10 
REMARK    4  A    between atoms: C_15  and  S_14 
ROOT
ATOM      1  N   UNL d   1      59.603  -0.691  29.595  0.00  0.00    -0.191 N 
ATOM      2  C   UNL d   1      60.093  -1.240  29.234  0.00  0.00     0.187 A 
ATOM      3  N   UNL d   1      60.801  -0.866  29.056  0.00  0.00    -0.127 NA
ATOM      4  C   UNL d   1      59.995   0.026  29.646  0.00  0.00     0.187 A 
ATOM      5  N   UNL d   1      58.822  -0.754  29.893  0.00  0.00    -0.156 NA
ATOM      6  N   UNL d   1      60.748  -0.081  29.308  0.00  0.00    -0.127 NA
ATOM      7  C   UNL d   1      58.454  -0.099  30.235  0.00  0.00     0.131 A 
ATOM      8  C   UNL d   1      59.628   0.682  29.988  0.00  0.00     0.043 A 
ATOM      9  C   UNL d   1      58.859   0.619  30.282  0.00  0.00     0.031 A 
ENDROOT
BRANCH   7  10
ATOM     10  S   UNL d   1      57.685  -0.161  30.530  0.00  0.00    -0.061 SA
BRANCH  10  11
ATOM     11  C   UNL d   1      57.560  -0.433  31.297  0.00  0.00     0.098 C 
BRANCH  11  12
ATOM     12  C   UNL d   1      56.896  -0.868  31.468  0.00  0.00     0.271 C 
ATOM     13  N   UNL d   1      56.550  -0.810  32.213  0.00  0.00    -0.273 N 
ATOM     14  C   UNL d   1      56.876  -0.315  32.776  0.00  0.00     0.067 A 
ATOM     15  C   UNL d   1      55.878  -1.254  32.379  0.00  0.00     0.083 A 
ATOM     16  C   UNL d   1      56.529  -0.262  33.512  0.00  0.00     0.016 A 
ATOM     17  C   UNL d   1      57.548   0.124  32.601  0.00  0.00     0.018 A 
ATOM     18  C   UNL d   1      56.850   0.235  34.090  0.00  0.00     0.001 A 
ATOM     19  C   UNL d   1      55.860  -0.695  33.698  0.00  0.00     0.003 A 
ATOM     20  C   UNL d   1      57.526   0.682  33.924  0.00  0.00     0.000 A 
ATOM     21  C   UNL d   1      57.878   0.624  33.171  0.00  0.00     0.002 A 
ATOM     22  C   UNL d   1      55.538  -1.195  33.117  0.00  0.00     0.019 A 
ATOM     23  O   UNL d   1      56.567  -1.368  30.899  0.00  0.00    -0.266 OA
ENDBRANCH  11  12
ENDBRANCH  10  11
ENDBRANCH   7  10
BRANCH   2  24
ATOM     24  C   UNL d   1      59.915  -2.024  29.075  0.00  0.00     0.038 A 
ATOM     25  C   UNL d   1      59.254  -2.219  28.633  0.00  0.00     0.003 A 
ATOM     26  C   UNL d   1      59.073  -3.010  28.472  0.00  0.00     0.000 A 
ATOM     27  C   UNL d   1      59.569  -3.605  28.763  0.00  0.00     0.000 A 
ATOM     28  C   UNL d   1      60.236  -3.414  29.209  0.00  0.00     0.000 A 
ATOM     29  C   UNL d   1      60.411  -2.620  29.366  0.00  0.00     0.003 A 
ENDBRANCH   2  24
TORSDOF 4
ENDMDL
MODEL 2
REMARK VINA RESULT:      -1.0      1.591      2.475
REMARK  4 active torsions:
REMARK  status: ('A' for Active; 'I' for Inactive)
REMARK    1  A    between atoms: C_13  and  C_2 
REMARK       I    between atoms: N_7  and  C_8 
REMARK    2  A    between atoms: C_8  and  C_15 
REMARK    3  A    between atoms: S_14  and  C_10 
REMARK    4  A    between atoms: C_15  and  S_14 
ROOT
ATOM      1  N   UNL d   1      58.523  -0.823  30.033  0.00  0.00    -0.191 N 
ATOM      2  C   UNL d   1      59.112  -0.973  29.483  0.00  0.00     0.187 A 
ATOM      3  N   UNL d   1      58.930  -1.680  29.109  0.00  0.00    -0.127 NA
ATOM      4  C   UNL d   1      57.972  -1.428  30.009  0.00  0.00     0.187 A 
ATOM      5  N   UNL d   1      58.414  -0.189  30.572  0.00  0.00    -0.156 NA
ATOM      6  N   UNL d   1      58.226  -1.969  29.429  0.00  0.00    -0.127 NA
ATOM      7  C   UNL d   1      57.757  -0.179  31.072  0.00  0.00     0.131 A 
ATOM      8  C   UNL d   1      57.315  -1.418  30.509  0.00  0.00     0.043 A 
ATOM      9  C   UNL d   1      57.208  -0.794  31.040  0.00  0.00     0.031 A 
ENDROOT
BRANCH   7  10
ATOM     10  S   UNL d   1      57.650   0.445  31.602  0.00  0.00    -0.061 SA
BRANCH  10  11
ATOM     11  C   UNL d   1      57.249   0.317  32.310  0.00  0.00     0.098 C 
BRANCH  11  12
ATOM     12  C   UNL d   1      57.628   0.447  33.017  0.00  0.00     0.271 C 
ATOM     13  N   UNL d   1      57.189   0.499  33.712  0.00  0.00    -0.273 N 
ATOM     14  C   UNL d   1      56.375   0.420  33.687  0.00  0.00     0.067 A 
ATOM     15  C   UNL d   1      57.579   0.630  34.425  0.00  0.00     0.083 A 
ATOM     16  C   UNL d   1      55.946   0.472  34.379  0.00  0.00     0.016 A 
ATOM     17  C   UNL d   1      55.995   0.289  32.971  0.00  0.00     0.018 A 
ATOM     18  C   UNL d   1      55.123   0.394  34.366  0.00  0.00     0.001 A 
ATOM     19  C   UNL d   1      56.315   0.602  35.098  0.00  0.00     0.003 A 
ATOM     20  C   UNL d   1      54.730   0.262  33.650  0.00  0.00     0.000 A 
ATOM     21  C   UNL d   1      55.172   0.209  32.946  0.00  0.00     0.002 A 
ATOM     22  C   UNL d   1      57.142   0.681  35.111  0.00  0.00     0.019 A 
ATOM     23  O   UNL d   1      58.449   0.526  33.042  0.00  0.00    -0.266 OA
ENDBRANCH  11  12
ENDBRANCH  10  11
ENDBRANCH   7  10
BRANCH   2  24
ATOM     24  C   UNL d   1      59.768  -0.507  29.329  0.00  0.00     0.038 A 
ATOM     25  C   UNL d   1      60.459  -0.608  29.756  0.00  0.00     0.003 A 
ATOM     26  C   UNL d   1      61.122  -0.138  29.602  0.00  0.00     0.000 A 
ATOM     27  C   UNL d   1      61.081   0.437  29.009  0.00  0.00     0.000 A 
ATOM     28  C   UNL d   1      60.387   0.543  28.575  0.00  0.00     0.000 A 
ATOM     29  C   UNL d   1      59.726   0.069  28.736  0.00  0.00     0.003 A 
ENDBRANCH   2  24
TORSDOF 4
ENDMDL
