MODEL 1
REMARK VINA RESULT:      -1.0      0.000      0.000
REMARK  5 active torsions:
REMARK  status: ('A' for Active; 'I' for Inactive)
REMARK    1  A    between atoms: N_7  and  S_1 
REMARK    2  A    between atoms: C_10  and  S_1 
REMARK    3  A    between atoms: C_2  and  N_4 
REMARK       I    between atoms: N_4  and  C_8 
REMARK    4  A    between atoms: C_8  and  C_13 
REMARK    5  A    between atoms: O_23  and  C_14 
ROOT
ATOM      1  C   UNL d   1      32.799  21.948 -19.966  0.00  0.00     0.104 A 
ATOM      2  C   UNL d   1      32.947  21.058 -21.329  0.00  0.00     0.058 A 
ATOM      3  C   UNL d   1      32.528  21.194 -19.973  0.00  0.00     0.013 A 
ATOM      4  C   UNL d   1      33.157  22.292 -20.645  0.00  0.00     0.013 A 
ATOM      5  C   UNL d   1      32.597  20.735 -20.655  0.00  0.00     0.005 A 
ATOM      6  C   UNL d   1      33.228  21.836 -21.327  0.00  0.00     0.005 A 
ENDROOT
BRANCH   2   7
ATOM      7  C   UNL d   1      33.016  20.598 -22.011  0.00  0.00     0.281 C 
ATOM      8  N   UNL d   1      32.859  19.785 -21.976  0.00  0.00    -0.183 NA
ATOM      9  O   UNL d   1      33.241  20.948 -22.727  0.00  0.00    -0.265 OA
BRANCH   8  10
ATOM     10  C   UNL d   1      32.933  19.333 -22.673  0.00  0.00     0.197 A 
ATOM     11  N   UNL d   1      32.866  18.532 -22.723  0.00  0.00    -0.219 NA
ATOM     12  C   UNL d   1      32.976  18.300 -23.513  0.00  0.00     0.112 A 
ATOM     13  C   UNL d   1      32.967  17.581 -23.867  0.00  0.00     0.112 A 
ATOM     14  C   UNL d   1      33.109  18.980 -23.923  0.00  0.00     0.052 A 
ATOM     15  C   UNL d   1      33.099  17.535 -24.683  0.00  0.00     0.026 A 
ATOM     16  C   UNL d   1      33.232  18.211 -25.097  0.00  0.00     0.003 A 
ATOM     17  C   UNL d   1      33.241  18.935 -24.738  0.00  0.00     0.008 A 
ATOM     18  S   UNL d   1      33.085  19.626 -23.417  0.00  0.00    -0.047 SA
BRANCH  13  19
ATOM     19  O   UNL d   1      32.830  16.901 -23.432  0.00  0.00    -0.327 OA
ATOM     20  C   UNL d   1      32.786  16.185 -23.796  0.00  0.00     0.181 C 
ENDBRANCH  13  19
ENDBRANCH   8  10
ENDBRANCH   2   7
BRANCH   1  21
ATOM     21  S   UNL d   1      32.718  22.390 -19.267  0.00  0.00     0.272 S 
ATOM     22  O   UNL d   1      32.980  21.734 -18.824  0.00  0.00    -0.200 OA
ATOM     23  O   UNL d   1      32.457  23.043 -19.710  0.00  0.00    -0.200 OA
BRANCH  21  24
ATOM     24  N   UNL d   1      32.637  22.833 -18.565  0.00  0.00    -0.225 N 
ATOM     25  C   UNL d   1      31.934  23.270 -18.423  0.00  0.00     0.118 A 
ATOM     26  C   UNL d   1      31.864  23.700 -17.734  0.00  0.00     0.142 A 
ATOM     27  O   UNL d   1      32.481  23.702 -17.181  0.00  0.00    -0.300 OA
ATOM     28  C   UNL d   1      33.171  23.280 -17.308  0.00  0.00     0.142 A 
ATOM     29  C   UNL d   1      33.241  22.851 -17.997  0.00  0.00     0.118 A 
ENDBRANCH  21  24
ENDBRANCH   1  21
TORSDOF 5
ENDMDL
