MODEL 1
REMARK VINA RESULT:      -3.3      0.000      0.000
REMARK  3 active torsions:
REMARK  status: ('A' for Active; 'I' for Inactive)
REMARK    1  A    between atoms: C_9  and  N_1 
REMARK       I    between atoms: C_8  and  N_2 
REMARK    2  A    between atoms: C_3  and  C_9 
REMARK    3  A    between atoms: C_13  and  C_8 
ROOT
ATOM      1  N   UNL d   1      31.530  16.714 -23.963  0.00  0.00    -0.193 N 
ATOM      2  C   UNL d   1      32.464  17.666 -24.054  0.00  0.00     0.055 A 
ATOM      3  N   UNL d   1      31.242  17.317 -24.469  0.00  0.00    -0.163 NA
ATOM      4  C   UNL d   1      32.276  16.939 -23.716  0.00  0.00     0.089 A 
ATOM      5  C   UNL d   1      31.124  16.028 -23.761  0.00  0.00     0.303 C 
ATOM      6  C   UNL d   1      31.827  17.901 -24.519  0.00  0.00     0.104 A 
ATOM      7  O   UNL d   1      31.487  15.481 -23.249  0.00  0.00    -0.263 OA
ATOM      8  C   UNL d   1      32.759  16.499 -23.207  0.00  0.00     0.021 C 
ATOM      9  C   UNL d   1      31.772  18.598 -24.962  0.00  0.00     0.023 C 
ENDROOT
BRANCH   2  10
ATOM     10  C   UNL d   1      33.174  18.087 -23.943  0.00  0.00     0.089 C 
BRANCH  10  11
ATOM     11  N   UNL d   1      33.186  18.765 -23.469  0.00  0.00    -0.240 N 
ATOM     12  C   UNL d   1      33.171  18.778 -22.651  0.00  0.00     0.267 A 
ATOM     13  C   UNL d   1      33.191  19.572 -22.418  0.00  0.00     0.061 A 
ATOM     14  O   UNL d   1      33.143  18.120 -22.153  0.00  0.00    -0.267 OA
ATOM     15  C   UNL d   1      33.188  19.918 -21.671  0.00  0.00     0.005 A 
ATOM     16  C   UNL d   1      33.217  20.042 -23.087  0.00  0.00     0.061 A 
ATOM     17  C   UNL d   1      33.211  20.737 -21.596  0.00  0.00     0.000 A 
ATOM     18  C   UNL d   1      33.238  21.213 -22.270  0.00  0.00     0.000 A 
ATOM     19  C   UNL d   1      33.241  20.867 -23.017  0.00  0.00     0.005 A 
ATOM     20  C   UNL d   1      33.214  19.547 -23.748  0.00  0.00     0.267 A 
ATOM     21  O   UNL d   1      33.236  19.789 -24.539  0.00  0.00    -0.267 OA
ENDBRANCH  10  11
ENDBRANCH   2  10
BRANCH   5  22
ATOM     22  C   UNL d   1      30.370  15.891 -24.064  0.00  0.00     0.158 A 
ATOM     23  O   UNL d   1      30.177  15.817 -24.863  0.00  0.00    -0.300 OA
ATOM     24  C   UNL d   1      29.365  15.684 -24.914  0.00  0.00     0.123 A 
ATOM     25  C   UNL d   1      29.058  15.675 -24.158  0.00  0.00     0.029 A 
ATOM     26  C   UNL d   1      29.682  15.804 -23.626  0.00  0.00     0.032 A 
ENDBRANCH   5  22
TORSDOF 3
ENDMDL
MODEL 2
REMARK VINA RESULT:      -3.2      1.312      4.641
REMARK  3 active torsions:
REMARK  status: ('A' for Active; 'I' for Inactive)
REMARK    1  A    between atoms: C_9  and  N_1 
REMARK       I    between atoms: C_8  and  N_2 
REMARK    2  A    between atoms: C_3  and  C_9 
REMARK    3  A    between atoms: C_13  and  C_8 
ROOT
ATOM      1  N   UNL d   1      32.951  20.052 -22.273  0.00  0.00    -0.193 N 
ATOM      2  C   UNL d   1      33.105  19.240 -23.324  0.00  0.00     0.055 A 
ATOM      3  N   UNL d   1      32.851  20.504 -22.972  0.00  0.00    -0.163 NA
ATOM      4  C   UNL d   1      33.106  19.282 -22.501  0.00  0.00     0.089 A 
ATOM      5  C   UNL d   1      32.901  20.345 -21.507  0.00  0.00     0.303 C 
ATOM      6  C   UNL d   1      32.948  19.992 -23.616  0.00  0.00     0.104 A 
ATOM      7  O   UNL d   1      33.015  19.822 -20.868  0.00  0.00    -0.263 OA
ATOM      8  C   UNL d   1      33.241  18.653 -21.981  0.00  0.00     0.021 C 
ATOM      9  C   UNL d   1      32.894  20.209 -24.413  0.00  0.00     0.023 C 
ENDROOT
BRANCH   2  10
ATOM     10  C   UNL d   1      33.240  18.554 -23.777  0.00  0.00     0.089 C 
BRANCH  10  11
ATOM     11  N   UNL d   1      32.633  18.003 -23.888  0.00  0.00    -0.240 N 
ATOM     12  C   UNL d   1      32.008  18.079 -24.411  0.00  0.00     0.267 A 
ATOM     13  C   UNL d   1      31.541  17.399 -24.335  0.00  0.00     0.061 A 
ATOM     14  O   UNL d   1      31.871  18.715 -24.919  0.00  0.00    -0.267 OA
ATOM     15  C   UNL d   1      30.848  17.173 -24.717  0.00  0.00     0.005 A 
ATOM     16  C   UNL d   1      31.876  16.912 -23.771  0.00  0.00     0.061 A 
ATOM     17  C   UNL d   1      30.492  16.454 -24.532  0.00  0.00     0.000 A 
ATOM     18  C   UNL d   1      30.829  15.961 -23.963  0.00  0.00     0.000 A 
ATOM     19  C   UNL d   1      31.522  16.188 -23.580  0.00  0.00     0.005 A 
ATOM     20  C   UNL d   1      32.559  17.280 -23.486  0.00  0.00     0.267 A 
ATOM     21  O   UNL d   1      33.070  16.981 -22.908  0.00  0.00    -0.267 OA
ENDBRANCH  10  11
ENDBRANCH   2  10
BRANCH   5  22
ATOM     22  C   UNL d   1      32.739  21.142 -21.379  0.00  0.00     0.158 A 
ATOM     23  O   UNL d   1      33.229  21.773 -21.588  0.00  0.00    -0.300 OA
ATOM     24  C   UNL d   1      32.852  22.470 -21.358  0.00  0.00     0.123 A 
ATOM     25  C   UNL d   1      32.139  22.275 -21.012  0.00  0.00     0.029 A 
ATOM     26  C   UNL d   1      32.066  21.448 -21.024  0.00  0.00     0.032 A 
ENDBRANCH   5  22
TORSDOF 3
ENDMDL
