MODEL 1
REMARK VINA RESULT:      87.7      0.000      0.000
REMARK  6 active torsions:
REMARK  status: ('A' for Active; 'I' for Inactive)
REMARK    1  A    between atoms: C_4  and  C_1 
REMARK    2  A    between atoms: N_7  and  C_2 
REMARK    3  A    between atoms: C_6  and  C_4 
REMARK    4  A    between atoms: C_8  and  C_4 
REMARK    5  A    between atoms: O_13  and  C_6 
REMARK    6  A    between atoms: C_19  and  O_13 
ROOT
ATOM      1  C   UNL d   1     -49.984  26.272  33.836  0.00  0.00     0.122 A 
ATOM      2  C   UNL d   1     -50.691  25.914  33.605  0.00  0.00     0.166 A 
ATOM      3  N   UNL d   1     -50.705  25.101  33.442  0.00  0.00    -0.225 NA
ATOM      4  N   UNL d   1     -49.289  25.827  33.905  0.00  0.00    -0.241 NA
ATOM      5  C   UNL d   1     -50.013  24.654  33.511  0.00  0.00     0.101 A 
ATOM      6  C   UNL d   1     -49.305  25.022  33.743  0.00  0.00     0.099 A 
ATOM      7  C   UNL d   1     -50.027  23.846  33.349  0.00  0.00     0.021 A 
ATOM      8  C   UNL d   1     -48.617  24.572  33.810  0.00  0.00     0.021 A 
ATOM      9  C   UNL d   1     -48.631  23.764  33.648  0.00  0.00     0.002 A 
ATOM     10  C   UNL d   1     -49.332  23.400  33.418  0.00  0.00     0.002 A 
ENDROOT
BRANCH   1  11
ATOM     11  C   UNL d   1     -49.961  27.090  34.002  0.00  0.00     0.105 C 
BRANCH  11  12
ATOM     12  C   UNL d   1     -49.652  27.367  34.712  0.00  0.00     0.303 C 
ATOM     13  O   UNL d   1     -50.036  27.194  35.422  0.00  0.00    -0.259 OA
BRANCH  12  14
ATOM     14  O   UNL d   1     -48.960  27.816  34.716  0.00  0.00    -0.273 OA
BRANCH  14  15
ATOM     15  C   UNL d   1     -48.453  28.335  35.105  0.00  0.00     0.103 A 
ATOM     16  C   UNL d   1     -48.629  28.569  35.873  0.00  0.00     0.025 A 
ATOM     17  C   UNL d   1     -48.126  29.085  36.261  0.00  0.00     0.002 A 
ATOM     18  C   UNL d   1     -47.446  29.373  35.894  0.00  0.00     0.000 A 
ATOM     19  C   UNL d   1     -47.280  29.130  35.121  0.00  0.00     0.002 A 
ATOM     20  C   UNL d   1     -47.783  28.612  34.728  0.00  0.00     0.025 A 
ENDBRANCH  14  15
ENDBRANCH  12  14
ENDBRANCH  11  12
BRANCH  11  21
ATOM     21  C   UNL d   1     -50.256  27.638  33.441  0.00  0.00     0.129 C 
ATOM     22  N   UNL d   1     -50.251  28.581  33.590  0.00  0.00    -0.146 N 
ENDBRANCH  11  21
ENDBRANCH   1  11
BRANCH   2  23
ATOM     23  N   UNL d   1     -51.380  26.363  33.538  0.00  0.00    -0.285 N 
ATOM     24  C   UNL d   1     -51.328  27.192  33.518  0.00  0.00     0.101 A 
ATOM     25  C   UNL d   1     -52.008  27.648  33.451  0.00  0.00     0.100 A 
ATOM     26  N   UNL d   1     -52.747  27.277  33.404  0.00  0.00    -0.299 N 
ATOM     27  C   UNL d   1     -52.799  26.448  33.423  0.00  0.00     0.100 A 
ATOM     28  C   UNL d   1     -53.444  27.734  33.335  0.00  0.00     0.100 C 
ATOM     29  C   UNL d   1     -52.111  25.991  33.491  0.00  0.00     0.101 A 
ENDBRANCH   2  23
TORSDOF 6
ENDMDL
MODEL 2
REMARK VINA RESULT:      90.1      2.602      6.057
REMARK  6 active torsions:
REMARK  status: ('A' for Active; 'I' for Inactive)
REMARK    1  A    between atoms: C_4  and  C_1 
REMARK    2  A    between atoms: N_7  and  C_2 
REMARK    3  A    between atoms: C_6  and  C_4 
REMARK    4  A    between atoms: C_8  and  C_4 
REMARK    5  A    between atoms: O_13  and  C_6 
REMARK    6  A    between atoms: C_19  and  O_13 
ROOT
ATOM      1  C   UNL d   1     -47.745  30.256  34.988  0.00  0.00     0.122 A 
ATOM      2  C   UNL d   1     -47.392  30.760  35.540  0.00  0.00     0.166 A 
ATOM      3  N   UNL d   1     -47.394  31.578  35.406  0.00  0.00    -0.225 NA
ATOM      4  N   UNL d   1     -48.099  30.561  34.304  0.00  0.00    -0.241 NA
ATOM      5  C   UNL d   1     -47.747  31.885  34.724  0.00  0.00     0.101 A 
ATOM      6  C   UNL d   1     -48.099  31.372  34.174  0.00  0.00     0.099 A 
ATOM      7  C   UNL d   1     -47.748  32.700  34.592  0.00  0.00     0.021 A 
ATOM      8  C   UNL d   1     -48.450  31.682  33.496  0.00  0.00     0.021 A 
ATOM      9  C   UNL d   1     -48.451  32.496  33.363  0.00  0.00     0.002 A 
ATOM     10  C   UNL d   1     -48.103  33.004  33.908  0.00  0.00     0.002 A 
ENDROOT
BRANCH   1  11
ATOM     11  C   UNL d   1     -47.747  29.431  35.115  0.00  0.00     0.105 C 
BRANCH  11  12
ATOM     12  C   UNL d   1     -48.455  29.011  35.138  0.00  0.00     0.303 C 
ATOM     13  O   UNL d   1     -48.862  28.932  35.852  0.00  0.00    -0.259 OA
BRANCH  12  14
ATOM     14  O   UNL d   1     -48.757  28.669  34.451  0.00  0.00    -0.273 OA
BRANCH  14  15
ATOM     15  C   UNL d   1     -49.289  28.158  34.088  0.00  0.00     0.103 A 
ATOM     16  C   UNL d   1     -49.176  27.346  34.153  0.00  0.00     0.025 A 
ATOM     17  C   UNL d   1     -49.705  26.837  33.793  0.00  0.00     0.002 A 
ATOM     18  C   UNL d   1     -50.349  27.124  33.366  0.00  0.00     0.000 A 
ATOM     19  C   UNL d   1     -50.452  27.942  33.307  0.00  0.00     0.002 A 
ATOM     20  C   UNL d   1     -49.923  28.457  33.668  0.00  0.00     0.025 A 
ENDBRANCH  14  15
ENDBRANCH  12  14
ENDBRANCH  11  12
BRANCH  11  21
ATOM     21  C   UNL d   1     -47.024  29.023  35.221  0.00  0.00     0.129 C 
ATOM     22  N   UNL d   1     -46.812  28.220  34.750  0.00  0.00    -0.146 N 
ENDBRANCH  11  21
ENDBRANCH   1  11
BRANCH   2  23
ATOM     23  N   UNL d   1     -47.042  30.451  36.219  0.00  0.00    -0.285 N 
ATOM     24  C   UNL d   1     -47.505  30.318  36.895  0.00  0.00     0.101 A 
ATOM     25  C   UNL d   1     -47.165  30.010  37.577  0.00  0.00     0.100 A 
ATOM     26  N   UNL d   1     -46.356  29.832  37.586  0.00  0.00    -0.299 N 
ATOM     27  C   UNL d   1     -45.892  29.966  36.910  0.00  0.00     0.100 A 
ATOM     28  C   UNL d   1     -46.002  29.519  38.276  0.00  0.00     0.100 C 
ATOM     29  C   UNL d   1     -46.239  30.277  36.224  0.00  0.00     0.101 A 
ENDBRANCH   2  23
TORSDOF 6
ENDMDL
