MODEL 1
REMARK VINA RESULT:      -8.4      0.000      0.000
REMARK  1 active torsions:
REMARK  status: ('A' for Active; 'I' for Inactive)
REMARK    1  A    between atoms: C_12  and  N_4 
ROOT
ATOM      1  C   UNL d   1     -48.498  12.807  23.205  0.00  0.00     0.081 A 
ATOM      2  C   UNL d   1     -48.479  12.049  23.433  0.00  0.00     0.118 A 
ATOM      3  C   UNL d   1     -49.224  13.204  23.134  0.00  0.00     0.268 A 
ATOM      4  N   UNL d   1     -49.916  12.798  23.303  0.00  0.00    -0.249 N 
ATOM      5  N   UNL d   1     -49.166  11.651  23.600  0.00  0.00    -0.212 NA
ATOM      6  C   UNL d   1     -49.911  12.043  23.532  0.00  0.00     0.209 A 
ATOM      7  S   UNL d   1     -47.705  11.761  23.468  0.00  0.00    -0.068 SA
ATOM      8  C   UNL d   1     -47.706  13.037  23.082  0.00  0.00     0.013 A 
ATOM      9  C   UNL d   1     -47.205  12.383  23.246  0.00  0.00     0.031 A 
ATOM     10  S   UNL d   1     -50.635  11.669  23.694  0.00  0.00    -0.038 SA
ATOM     11  O   UNL d   1     -49.269  13.995  22.897  0.00  0.00    -0.267 OA
ATOM     12  C   UNL d   1     -47.554  13.790  22.843  0.00  0.00     0.001 A 
ATOM     13  C   UNL d   1     -46.387  12.389  23.189  0.00  0.00     0.006 A 
ATOM     14  C   UNL d   1     -46.794  14.119  22.692  0.00  0.00     0.000 A 
ATOM     15  C   UNL d   1     -45.879  12.986  22.974  0.00  0.00     0.001 A 
ATOM     16  C   UNL d   1     -46.053  13.760  22.751  0.00  0.00     0.000 A 
ENDROOT
BRANCH   4  17
ATOM     17  C   UNL d   1     -50.663  13.196  23.233  0.00  0.00     0.085 C 
ATOM     18  C   UNL d   1     -51.064  13.182  22.518  0.00  0.00     0.021 C 
ENDBRANCH   4  17
TORSDOF 1
ENDMDL
MODEL 2
REMARK VINA RESULT:      -8.3      1.396      1.909
REMARK  1 active torsions:
REMARK  status: ('A' for Active; 'I' for Inactive)
REMARK    1  A    between atoms: C_12  and  N_4 
ROOT
ATOM      1  C   UNL d   1     -48.434  13.278  23.198  0.00  0.00     0.081 A 
ATOM      2  C   UNL d   1     -48.114  13.955  22.939  0.00  0.00     0.118 A 
ATOM      3  C   UNL d   1     -49.254  13.220  23.313  0.00  0.00     0.268 A 
ATOM      4  N   UNL d   1     -49.724  13.873  23.154  0.00  0.00    -0.249 N 
ATOM      5  N   UNL d   1     -48.582  14.598  22.783  0.00  0.00    -0.212 NA
ATOM      6  C   UNL d   1     -49.418  14.553  22.895  0.00  0.00     0.209 A 
ATOM      7  S   UNL d   1     -47.293  13.894  22.863  0.00  0.00    -0.068 SA
ATOM      8  C   UNL d   1     -47.802  12.743  23.300  0.00  0.00     0.013 A 
ATOM      9  C   UNL d   1     -47.085  13.125  23.091  0.00  0.00     0.031 A 
ATOM     10  S   UNL d   1     -49.930  15.191  22.746  0.00  0.00    -0.038 SA
ATOM     11  O   UNL d   1     -49.610  12.524  23.583  0.00  0.00    -0.267 OA
ATOM     12  C   UNL d   1     -47.964  11.999  23.563  0.00  0.00     0.001 A 
ATOM     13  C   UNL d   1     -46.341  12.781  23.117  0.00  0.00     0.006 A 
ATOM     14  C   UNL d   1     -47.402  11.388  23.698  0.00  0.00     0.000 A 
ATOM     15  C   UNL d   1     -46.116  12.032  23.336  0.00  0.00     0.001 A 
ATOM     16  C   UNL d   1     -46.583  11.404  23.597  0.00  0.00     0.000 A 
ENDROOT
BRANCH   4  17
ATOM     17  C   UNL d   1     -50.564  13.823  23.268  0.00  0.00     0.085 C 
ATOM     18  C   UNL d   1     -51.042  13.570  22.653  0.00  0.00     0.021 C 
ENDBRANCH   4  17
TORSDOF 1
ENDMDL
MODEL 3
REMARK VINA RESULT:      -8.1      1.106      3.177
REMARK  1 active torsions:
REMARK  status: ('A' for Active; 'I' for Inactive)
REMARK    1  A    between atoms: C_12  and  N_4 
ROOT
ATOM      1  C   UNL d   1     -48.524  13.003  22.821  0.00  0.00     0.081 A 
ATOM      2  C   UNL d   1     -48.589  12.241  23.027  0.00  0.00     0.118 A 
ATOM      3  C   UNL d   1     -47.793  13.392  22.883  0.00  0.00     0.268 A 
ATOM      4  N   UNL d   1     -47.144  12.975  23.160  0.00  0.00    -0.249 N 
ATOM      5  N   UNL d   1     -47.944  11.832  23.301  0.00  0.00    -0.212 NA
ATOM      6  C   UNL d   1     -47.195  12.216  23.369  0.00  0.00     0.209 A 
ATOM      7  S   UNL d   1     -49.360  11.963  22.924  0.00  0.00    -0.068 SA
ATOM      8  C   UNL d   1     -49.282  13.245  22.569  0.00  0.00     0.013 A 
ATOM      9  C   UNL d   1     -49.809  12.595  22.632  0.00  0.00     0.031 A 
ATOM     10  S   UNL d   1     -46.512  11.830  23.644  0.00  0.00    -0.038 SA
ATOM     11  O   UNL d   1     -47.701  14.187  22.673  0.00  0.00    -0.267 OA
ATOM     12  C   UNL d   1     -49.384  14.005  22.323  0.00  0.00     0.001 A 
ATOM     13  C   UNL d   1     -50.606  12.612  22.436  0.00  0.00     0.006 A 
ATOM     14  C   UNL d   1     -50.103  14.345  22.052  0.00  0.00     0.000 A 
ATOM     15  C   UNL d   1     -51.063  13.218  22.150  0.00  0.00     0.001 A 
ATOM     16  C   UNL d   1     -50.847  13.995  21.976  0.00  0.00     0.000 A 
ENDROOT
BRANCH   4  17
ATOM     17  C   UNL d   1     -46.392  13.365  23.226  0.00  0.00     0.085 C 
ATOM     18  C   UNL d   1     -45.896  13.402  22.575  0.00  0.00     0.021 C 
ENDBRANCH   4  17
TORSDOF 1
ENDMDL
MODEL 4
REMARK VINA RESULT:      -7.9      1.533      3.578
REMARK  1 active torsions:
REMARK  status: ('A' for Active; 'I' for Inactive)
REMARK    1  A    between atoms: C_12  and  N_4 
ROOT
ATOM      1  C   UNL d   1     -48.433  12.985  23.136  0.00  0.00     0.081 A 
ATOM      2  C   UNL d   1     -48.381  13.709  22.819  0.00  0.00     0.118 A 
ATOM      3  C   UNL d   1     -47.747  12.578  23.365  0.00  0.00     0.268 A 
ATOM      4  N   UNL d   1     -47.018  12.938  23.259  0.00  0.00    -0.249 N 
ATOM      5  N   UNL d   1     -47.657  14.061  22.716  0.00  0.00    -0.212 NA
ATOM      6  C   UNL d   1     -46.951  13.659  22.945  0.00  0.00     0.209 A 
ATOM      7  S   UNL d   1     -49.126  14.013  22.631  0.00  0.00    -0.068 SA
ATOM      8  C   UNL d   1     -49.246  12.796  23.160  0.00  0.00     0.013 A 
ATOM      9  C   UNL d   1     -49.683  13.439  22.844  0.00  0.00     0.031 A 
ATOM     10  S   UNL d   1     -46.193  13.988  22.855  0.00  0.00    -0.038 SA
ATOM     11  O   UNL d   1     -47.777  11.821  23.698  0.00  0.00    -0.267 OA
ATOM     12  C   UNL d   1     -49.469  12.083  23.459  0.00  0.00     0.001 A 
ATOM     13  C   UNL d   1     -50.500  13.465  22.773  0.00  0.00     0.006 A 
ATOM     14  C   UNL d   1     -50.257  11.799  23.527  0.00  0.00     0.000 A 
ATOM     15  C   UNL d   1     -51.063  12.916  22.975  0.00  0.00     0.001 A 
ATOM     16  C   UNL d   1     -50.963  12.169  23.312  0.00  0.00     0.000 A 
ENDROOT
BRANCH   4  17
ATOM     17  C   UNL d   1     -46.311  12.529  23.491  0.00  0.00     0.085 C 
ATOM     18  C   UNL d   1     -45.908  12.073  22.942  0.00  0.00     0.021 C 
ENDBRANCH   4  17
TORSDOF 1
ENDMDL
MODEL 5
REMARK VINA RESULT:      -5.9      9.238      9.873
REMARK  1 active torsions:
REMARK  status: ('A' for Active; 'I' for Inactive)
REMARK    1  A    between atoms: C_12  and  N_4 
ROOT
ATOM      1  C   UNL d   1     -40.049  14.894  19.314  0.00  0.00     0.081 A 
ATOM      2  C   UNL d   1     -40.519  15.522  19.204  0.00  0.00     0.118 A 
ATOM      3  C   UNL d   1     -39.830  14.418  18.670  0.00  0.00     0.268 A 
ATOM      4  N   UNL d   1     -40.107  14.610  17.922  0.00  0.00    -0.249 N 
ATOM      5  N   UNL d   1     -40.791  15.708  18.463  0.00  0.00    -0.212 NA
ATOM      6  C   UNL d   1     -40.576  15.233  17.799  0.00  0.00     0.209 A 
ATOM      7  S   UNL d   1     -40.669  15.917  19.914  0.00  0.00    -0.068 SA
ATOM      8  C   UNL d   1     -39.878  14.867  20.130  0.00  0.00     0.013 A 
ATOM      9  C   UNL d   1     -40.265  15.507  20.510  0.00  0.00     0.031 A 
ATOM     10  S   UNL d   1     -40.834  15.392  17.025  0.00  0.00    -0.038 SA
ATOM     11  O   UNL d   1     -39.340  13.758  18.760  0.00  0.00    -0.267 OA
ATOM     12  C   UNL d   1     -39.404  14.278  20.407  0.00  0.00     0.001 A 
ATOM     13  C   UNL d   1     -40.231  15.670  21.313  0.00  0.00     0.006 A 
ATOM     14  C   UNL d   1     -39.172  14.163  21.207  0.00  0.00     0.000 A 
ATOM     15  C   UNL d   1     -39.842  15.283  21.912  0.00  0.00     0.001 A 
ATOM     16  C   UNL d   1     -39.368  14.610  21.873  0.00  0.00     0.000 A 
ENDROOT
BRANCH   4  17
ATOM     17  C   UNL d   1     -39.887  14.129  17.257  0.00  0.00     0.085 C 
ATOM     18  C   UNL d   1     -39.209  14.310  16.834  0.00  0.00     0.021 C 
ENDBRANCH   4  17
TORSDOF 1
ENDMDL
