MODEL 1
REMARK VINA RESULT:      50.4      0.000      0.000
REMARK  4 active torsions:
REMARK  status: ('A' for Active; 'I' for Inactive)
REMARK    1  A    between atoms: C_21  and  N_5 
REMARK    2  A    between atoms: C_11  and  C_6 
REMARK       I    between atoms: N_15  and  C_11 
REMARK    3  A    between atoms: C_23  and  N_15 
REMARK    4  A    between atoms: C_22  and  C_23 
ROOT
ATOM      1  C   UNL d   1      46.201 -17.424  42.986  0.00  0.00     0.155 A 
ATOM      2  C   UNL d   1      46.118 -17.530  43.805  0.00  0.00     0.091 A 
ATOM      3  N   UNL d   1      46.349 -18.071  42.505  0.00  0.00    -0.210 NA
ATOM      4  N   UNL d   1      46.334 -18.929  43.638  0.00  0.00    -0.258 N 
ATOM      5  N   UNL d   1      46.134 -16.672  42.664  0.00  0.00    -0.274 N 
ATOM      6  C   UNL d   1      45.903 -16.125  43.965  0.00  0.00     0.094 A 
ATOM      7  C   UNL d   1      46.416 -18.824  42.827  0.00  0.00     0.152 A 
ATOM      8  C   UNL d   1      46.184 -18.283  44.136  0.00  0.00     0.269 A 
ATOM      9  C   UNL d   1      45.985 -16.019  43.154  0.00  0.00     0.175 A 
ATOM     10  C   UNL d   1      45.969 -16.883  44.296  0.00  0.00     0.016 A 
ATOM     11  C   UNL d   1      46.564 -19.475  42.345  0.00  0.00     0.035 A 
ATOM     12  C   UNL d   1      46.400 -19.686  43.976  0.00  0.00     0.084 A 
ATOM     13  N   UNL d   1      45.919 -15.265  42.819  0.00  0.00    -0.128 N 
ATOM     14  O   UNL d   1      46.104 -18.395  44.946  0.00  0.00    -0.266 OA
ATOM     15  C   UNL d   1      46.549 -20.329  43.478  0.00  0.00     0.019 A 
ATOM     16  C   UNL d   1      46.631 -20.224  42.667  0.00  0.00     0.005 A 
ATOM     17  C   UNL d   1      46.647 -19.369  41.528  0.00  0.00     0.003 C 
ENDROOT
BRANCH   6  18
ATOM     18  C   UNL d   1      45.754 -15.477  44.456  0.00  0.00     0.282 C 
ATOM     19  N   UNL d   1      46.277 -14.839  44.455  0.00  0.00    -0.206 NA
ATOM     20  O   UNL d   1      45.090 -15.469  44.941  0.00  0.00    -0.265 OA
BRANCH  19  21
ATOM     21  C   UNL d   1      46.130 -14.184  44.948  0.00  0.00     0.104 C 
BRANCH  21  22
ATOM     22  C   UNL d   1      45.832 -13.483  44.625  0.00  0.00     0.038 A 
ATOM     23  C   UNL d   1      46.288 -12.796  44.651  0.00  0.00     0.101 A 
ATOM     24  N   UNL d   1      45.990 -12.098  44.328  0.00  0.00    -0.242 NA
ATOM     25  C   UNL d   1      45.244 -12.081  43.982  0.00  0.00     0.099 A 
ATOM     26  C   UNL d   1      44.788 -12.774  43.957  0.00  0.00     0.021 A 
ATOM     27  C   UNL d   1      45.086 -13.472  44.280  0.00  0.00     0.005 A 
ENDBRANCH  21  22
ENDBRANCH  19  21
ENDBRANCH   6  18
BRANCH   5  28
ATOM     28  C   UNL d   1      46.217 -16.566  41.847  0.00  0.00     0.083 C 
ATOM     29  C   UNL d   1      45.837 -17.084  41.326  0.00  0.00     0.021 C 
ENDBRANCH   5  28
TORSDOF 4
ENDMDL
