MODEL 1
REMARK VINA RESULT:      -8.6      0.000      0.000
REMARK  4 active torsions:
REMARK  status: ('A' for Active; 'I' for Inactive)
REMARK    1  A    between atoms: C_9  and  N_2 
REMARK    2  A    between atoms: C_7  and  O_10 
REMARK    3  A    between atoms: C_11  and  C_9 
REMARK    4  A    between atoms: O_10  and  C_11 
ROOT
ATOM      1  C   UNL d   1      54.242  33.517  54.867  0.00  0.00     0.296 A 
ATOM      2  N   UNL d   1      53.932  33.279  54.144  0.00  0.00    -0.266 N 
ATOM      3  S   UNL d   1      53.884  34.248  55.068  0.00  0.00    -0.025 SA
ATOM      4  C   UNL d   1      53.388  33.852  53.894  0.00  0.00     0.074 A 
ATOM      5  C   UNL d   1      53.358  34.446  54.460  0.00  0.00     0.050 A 
ATOM      6  O   UNL d   1      54.800  33.116  55.317  0.00  0.00    -0.259 OA
ATOM      7  C   UNL d   1      52.917  33.898  53.215  0.00  0.00     0.018 A 
ATOM      8  C   UNL d   1      52.857  35.099  54.360  0.00  0.00     0.008 A 
ATOM      9  C   UNL d   1      52.417  34.549  53.112  0.00  0.00     0.002 A 
ATOM     10  C   UNL d   1      52.387  35.142  53.678  0.00  0.00     0.001 A 
ENDROOT
BRANCH   2  11
ATOM     11  C   UNL d   1      54.129  32.589  53.736  0.00  0.00     0.110 C 
BRANCH  11  12
ATOM     12  C   UNL d   1      53.795  31.869  53.953  0.00  0.00     0.142 C 
BRANCH  12  13
ATOM     13  O   UNL d   1      53.789  31.227  53.429  0.00  0.00    -0.304 OA
BRANCH  13  14
ATOM     14  C   UNL d   1      53.485  30.498  53.668  0.00  0.00     0.100 A 
ATOM     15  C   UNL d   1      53.001  30.067  53.157  0.00  0.00     0.023 A 
ATOM     16  C   UNL d   1      52.821  30.365  52.407  0.00  0.00     0.002 C 
ATOM     17  C   UNL d   1      52.700  29.342  53.395  0.00  0.00     0.002 A 
ATOM     18  C   UNL d   1      52.883  29.048  54.144  0.00  0.00     0.000 A 
ATOM     19  C   UNL d   1      53.369  29.484  54.653  0.00  0.00     0.002 A 
ATOM     20  C   UNL d   1      53.667  30.209  54.407  0.00  0.00     0.025 A 
ENDBRANCH  13  14
ENDBRANCH  12  13
ENDBRANCH  11  12
ENDBRANCH   2  11
TORSDOF 4
ENDMDL
MODEL 2
REMARK VINA RESULT:      -7.6      2.078      4.105
REMARK  4 active torsions:
REMARK  status: ('A' for Active; 'I' for Inactive)
REMARK    1  A    between atoms: C_9  and  N_2 
REMARK    2  A    between atoms: C_7  and  O_10 
REMARK    3  A    between atoms: C_11  and  C_9 
REMARK    4  A    between atoms: O_10  and  C_11 
ROOT
ATOM      1  C   UNL d   1      52.999  32.169  53.119  0.00  0.00     0.296 A 
ATOM      2  N   UNL d   1      52.993  32.984  53.222  0.00  0.00    -0.266 N 
ATOM      3  S   UNL d   1      53.467  31.839  53.732  0.00  0.00    -0.025 SA
ATOM      4  C   UNL d   1      53.450  33.164  53.890  0.00  0.00     0.074 A 
ATOM      5  C   UNL d   1      53.741  32.463  54.202  0.00  0.00     0.050 A 
ATOM      6  O   UNL d   1      52.618  31.747  52.526  0.00  0.00    -0.259 OA
ATOM      7  C   UNL d   1      53.633  33.888  54.246  0.00  0.00     0.018 A 
ATOM      8  C   UNL d   1      54.222  32.469  54.878  0.00  0.00     0.008 A 
ATOM      9  C   UNL d   1      54.112  33.898  54.920  0.00  0.00     0.002 A 
ATOM     10  C   UNL d   1      54.403  33.197  55.233  0.00  0.00     0.001 A 
ENDROOT
BRANCH   2  11
ATOM     11  C   UNL d   1      52.599  33.530  52.744  0.00  0.00     0.110 C 
BRANCH  11  12
ATOM     12  C   UNL d   1      51.794  33.664  52.843  0.00  0.00     0.142 C 
BRANCH  12  13
ATOM     13  O   UNL d   1      51.354  34.064  52.267  0.00  0.00    -0.304 OA
BRANCH  13  14
ATOM     14  C   UNL d   1      50.610  34.369  52.448  0.00  0.00     0.100 A 
ATOM     15  C   UNL d   1      50.035  34.429  51.859  0.00  0.00     0.023 A 
ATOM     16  C   UNL d   1      50.205  34.183  51.088  0.00  0.00     0.002 C 
ATOM     17  C   UNL d   1      49.295  34.732  52.040  0.00  0.00     0.002 A 
ATOM     18  C   UNL d   1      49.129  34.977  52.811  0.00  0.00     0.000 A 
ATOM     19  C   UNL d   1      49.709  34.915  53.399  0.00  0.00     0.002 A 
ATOM     20  C   UNL d   1      50.448  34.610  53.209  0.00  0.00     0.025 A 
ENDBRANCH  13  14
ENDBRANCH  12  13
ENDBRANCH  11  12
ENDBRANCH   2  11
TORSDOF 4
ENDMDL
MODEL 3
REMARK VINA RESULT:      -7.5      1.407      4.457
REMARK  4 active torsions:
REMARK  status: ('A' for Active; 'I' for Inactive)
REMARK    1  A    between atoms: C_9  and  N_2 
REMARK    2  A    between atoms: C_7  and  O_10 
REMARK    3  A    between atoms: C_11  and  C_9 
REMARK    4  A    between atoms: O_10  and  C_11 
ROOT
ATOM      1  C   UNL d   1      52.874  30.841  52.757  0.00  0.00     0.296 A 
ATOM      2  N   UNL d   1      53.405  30.955  53.374  0.00  0.00    -0.266 N 
ATOM      3  S   UNL d   1      52.525  30.086  52.858  0.00  0.00    -0.025 SA
ATOM      4  C   UNL d   1      53.390  30.280  53.856  0.00  0.00     0.074 A 
ATOM      5  C   UNL d   1      52.851  29.747  53.540  0.00  0.00     0.050 A 
ATOM      6  O   UNL d   1      52.710  31.368  52.149  0.00  0.00    -0.259 OA
ATOM      7  C   UNL d   1      53.808  30.093  54.545  0.00  0.00     0.018 A 
ATOM      8  C   UNL d   1      52.717  29.015  53.906  0.00  0.00     0.008 A 
ATOM      9  C   UNL d   1      53.676  29.363  54.913  0.00  0.00     0.002 A 
ATOM     10  C   UNL d   1      53.137  28.831  54.597  0.00  0.00     0.001 A 
ENDROOT
BRANCH   2  11
ATOM     11  C   UNL d   1      53.872  31.624  53.494  0.00  0.00     0.110 C 
BRANCH  11  12
ATOM     12  C   UNL d   1      53.526  32.342  53.696  0.00  0.00     0.142 C 
BRANCH  12  13
ATOM     13  O   UNL d   1      53.983  32.972  53.979  0.00  0.00    -0.304 OA
BRANCH  13  14
ATOM     14  C   UNL d   1      53.633  33.701  54.140  0.00  0.00     0.100 A 
ATOM     15  C   UNL d   1      53.831  34.109  54.830  0.00  0.00     0.023 A 
ATOM     16  C   UNL d   1      54.379  33.787  55.359  0.00  0.00     0.002 C 
ATOM     17  C   UNL d   1      53.483  34.834  54.989  0.00  0.00     0.002 A 
ATOM     18  C   UNL d   1      52.936  35.152  54.459  0.00  0.00     0.000 A 
ATOM     19  C   UNL d   1      52.741  34.739  53.768  0.00  0.00     0.002 A 
ATOM     20  C   UNL d   1      53.094  34.013  53.616  0.00  0.00     0.025 A 
ENDBRANCH  13  14
ENDBRANCH  12  13
ENDBRANCH  11  12
ENDBRANCH   2  11
TORSDOF 4
ENDMDL
MODEL 4
REMARK VINA RESULT:      -7.3      1.805      4.080
REMARK  4 active torsions:
REMARK  status: ('A' for Active; 'I' for Inactive)
REMARK    1  A    between atoms: C_9  and  N_2 
REMARK    2  A    between atoms: C_7  and  O_10 
REMARK    3  A    between atoms: C_11  and  C_9 
REMARK    4  A    between atoms: O_10  and  C_11 
ROOT
ATOM      1  C   UNL d   1      53.714  32.909  54.026  0.00  0.00     0.296 A 
ATOM      2  N   UNL d   1      53.259  32.723  53.368  0.00  0.00    -0.266 N 
ATOM      3  S   UNL d   1      53.942  32.189  54.390  0.00  0.00    -0.025 SA
ATOM      4  C   UNL d   1      53.202  31.897  53.318  0.00  0.00     0.074 A 
ATOM      5  C   UNL d   1      53.621  31.570  53.945  0.00  0.00     0.050 A 
ATOM      6  O   UNL d   1      53.913  33.662  54.286  0.00  0.00    -0.259 OA
ATOM      7  C   UNL d   1      52.816  31.408  52.774  0.00  0.00     0.018 A 
ATOM      8  C   UNL d   1      53.663  30.747  54.040  0.00  0.00     0.008 A 
ATOM      9  C   UNL d   1      52.856  30.587  52.866  0.00  0.00     0.002 A 
ATOM     10  C   UNL d   1      53.274  30.260  53.493  0.00  0.00     0.001 A 
ENDROOT
BRANCH   2  11
ATOM     11  C   UNL d   1      52.918  33.263  52.846  0.00  0.00     0.110 C 
BRANCH  11  12
ATOM     12  C   UNL d   1      52.179  33.586  53.007  0.00  0.00     0.142 C 
BRANCH  12  13
ATOM     13  O   UNL d   1      51.774  34.030  52.437  0.00  0.00    -0.304 OA
BRANCH  13  14
ATOM     14  C   UNL d   1      51.008  34.298  52.585  0.00  0.00     0.100 A 
ATOM     15  C   UNL d   1      50.468  34.362  51.964  0.00  0.00     0.023 A 
ATOM     16  C   UNL d   1      50.695  34.158  51.195  0.00  0.00     0.002 C 
ATOM     17  C   UNL d   1      49.707  34.629  52.111  0.00  0.00     0.002 A 
ATOM     18  C   UNL d   1      49.485  34.832  52.880  0.00  0.00     0.000 A 
ATOM     19  C   UNL d   1      50.030  34.766  53.500  0.00  0.00     0.002 A 
ATOM     20  C   UNL d   1      50.791  34.498  53.343  0.00  0.00     0.025 A 
ENDBRANCH  13  14
ENDBRANCH  12  13
ENDBRANCH  11  12
ENDBRANCH   2  11
TORSDOF 4
ENDMDL
MODEL 5
REMARK VINA RESULT:      -7.1      2.385      4.330
REMARK  4 active torsions:
REMARK  status: ('A' for Active; 'I' for Inactive)
REMARK    1  A    between atoms: C_9  and  N_2 
REMARK    2  A    between atoms: C_7  and  O_10 
REMARK    3  A    between atoms: C_11  and  C_9 
REMARK    4  A    between atoms: O_10  and  C_11 
ROOT
ATOM      1  C   UNL d   1      52.899  34.755  54.071  0.00  0.00     0.296 A 
ATOM      2  N   UNL d   1      52.681  34.173  53.533  0.00  0.00    -0.266 N 
ATOM      3  S   UNL d   1      53.423  34.405  54.624  0.00  0.00    -0.025 SA
ATOM      4  C   UNL d   1      53.062  33.468  53.745  0.00  0.00     0.074 A 
ATOM      5  C   UNL d   1      53.517  33.610  54.413  0.00  0.00     0.050 A 
ATOM      6  O   UNL d   1      52.653  35.538  54.073  0.00  0.00    -0.259 OA
ATOM      7  C   UNL d   1      53.045  32.715  53.403  0.00  0.00     0.018 A 
ATOM      8  C   UNL d   1      53.965  33.002  54.755  0.00  0.00     0.008 A 
ATOM      9  C   UNL d   1      53.491  32.106  53.742  0.00  0.00     0.002 A 
ATOM     10  C   UNL d   1      53.946  32.248  54.410  0.00  0.00     0.001 A 
ENDROOT
BRANCH   2  11
ATOM     11  C   UNL d   1      52.171  34.273  52.892  0.00  0.00     0.110 C 
BRANCH  11  12
ATOM     12  C   UNL d   1      51.368  34.406  53.017  0.00  0.00     0.142 C 
BRANCH  12  13
ATOM     13  O   UNL d   1      50.810  34.221  52.434  0.00  0.00    -0.304 OA
BRANCH  13  14
ATOM     14  C   UNL d   1      50.059  34.561  52.454  0.00  0.00     0.100 A 
ATOM     15  C   UNL d   1      49.583  34.547  51.779  0.00  0.00     0.023 A 
ATOM     16  C   UNL d   1      49.859  34.194  51.085  0.00  0.00     0.002 C 
ATOM     17  C   UNL d   1      48.837  34.885  51.800  0.00  0.00     0.002 A 
ATOM     18  C   UNL d   1      48.565  35.237  52.495  0.00  0.00     0.000 A 
ATOM     19  C   UNL d   1      49.045  35.249  53.170  0.00  0.00     0.002 A 
ATOM     20  C   UNL d   1      49.792  34.908  53.140  0.00  0.00     0.025 A 
ENDBRANCH  13  14
ENDBRANCH  12  13
ENDBRANCH  11  12
ENDBRANCH   2  11
TORSDOF 4
ENDMDL
MODEL 6
REMARK VINA RESULT:      -6.5      2.199      2.871
REMARK  4 active torsions:
REMARK  status: ('A' for Active; 'I' for Inactive)
REMARK    1  A    between atoms: C_9  and  N_2 
REMARK    2  A    between atoms: C_7  and  O_10 
REMARK    3  A    between atoms: C_11  and  C_9 
REMARK    4  A    between atoms: O_10  and  C_11 
ROOT
ATOM      1  C   UNL d   1      51.146  34.383  53.563  0.00  0.00     0.296 A 
ATOM      2  N   UNL d   1      51.308  34.061  52.825  0.00  0.00    -0.266 N 
ATOM      3  S   UNL d   1      50.379  34.719  53.531  0.00  0.00    -0.025 SA
ATOM      4  C   UNL d   1      50.651  34.193  52.335  0.00  0.00     0.074 A 
ATOM      5  C   UNL d   1      50.082  34.596  52.768  0.00  0.00     0.050 A 
ATOM      6  O   UNL d   1      51.641  34.380  54.218  0.00  0.00    -0.259 OA
ATOM      7  C   UNL d   1      50.511  33.990  51.546  0.00  0.00     0.018 A 
ATOM      8  C   UNL d   1      49.359  34.806  52.421  0.00  0.00     0.008 A 
ATOM      9  C   UNL d   1      49.790  34.198  51.196  0.00  0.00     0.002 A 
ATOM     10  C   UNL d   1      49.221  34.601  51.629  0.00  0.00     0.001 A 
ENDROOT
BRANCH   2  11
ATOM     11  C   UNL d   1      52.003  33.673  52.607  0.00  0.00     0.110 C 
BRANCH  11  12
ATOM     12  C   UNL d   1      52.174  32.927  52.908  0.00  0.00     0.142 C 
BRANCH  12  13
ATOM     13  O   UNL d   1      52.934  32.605  52.843  0.00  0.00    -0.304 OA
BRANCH  13  14
ATOM     14  C   UNL d   1      53.072  31.819  53.051  0.00  0.00     0.100 A 
ATOM     15  C   UNL d   1      53.727  31.625  53.516  0.00  0.00     0.023 A 
ATOM     16  C   UNL d   1      54.242  32.218  53.773  0.00  0.00     0.002 C 
ATOM     17  C   UNL d   1      53.863  30.843  53.721  0.00  0.00     0.002 A 
ATOM     18  C   UNL d   1      53.346  30.254  53.462  0.00  0.00     0.000 A 
ATOM     19  C   UNL d   1      52.691  30.453  52.996  0.00  0.00     0.002 A 
ATOM     20  C   UNL d   1      52.561  31.239  52.795  0.00  0.00     0.025 A 
ENDBRANCH  13  14
ENDBRANCH  12  13
ENDBRANCH  11  12
ENDBRANCH   2  11
TORSDOF 4
ENDMDL
