MODEL 1
REMARK VINA RESULT:      -4.7      0.000      0.000
REMARK  3 active torsions:
REMARK  status: ('A' for Active; 'I' for Inactive)
REMARK    1  A    between atoms: N_2  and  C_1 
REMARK    2  A    between atoms: N_4  and  C_1 
REMARK       I    between atoms: C_3  and  N_2 
REMARK    3  A    between atoms: C_5  and  C_3 
ROOT
ATOM      1  C   UNL d   1      57.590  -0.054  30.705  0.00  0.00     0.209 C 
ATOM      2  S   UNL d   1      57.575   0.681  30.312  0.00  0.00    -0.038 SA
ENDROOT
BRANCH   1   3
ATOM      3  N   UNL d   1      58.060  -0.661  30.429  0.00  0.00    -0.179 NA
ATOM      4  C   UNL d   1      58.357  -0.638  29.663  0.00  0.00     0.287 C 
ATOM      5  O   UNL d   1      58.178   0.003  29.172  0.00  0.00    -0.265 OA
BRANCH   4   6
ATOM      6  C   UNL d   1      58.833  -1.251  29.382  0.00  0.00     0.087 A 
ATOM      7  S   UNL d   1      59.645  -1.289  29.206  0.00  0.00    -0.082 SA
ATOM      8  C   UNL d   1      59.814  -2.053  28.940  0.00  0.00     0.036 A 
ATOM      9  C   UNL d   1      59.114  -2.483  28.951  0.00  0.00     0.008 A 
ATOM     10  C   UNL d   1      58.504  -1.990  29.224  0.00  0.00     0.012 A 
ENDBRANCH   4   6
ENDBRANCH   1   3
BRANCH   1  11
ATOM     11  N   UNL d   1      57.123  -0.170  31.383  0.00  0.00    -0.281 N 
ATOM     12  C   UNL d   1      56.872  -0.931  31.596  0.00  0.00     0.082 A 
ATOM     13  C   UNL d   1      56.413  -1.044  32.263  0.00  0.00     0.019 A 
ATOM     14  C   UNL d   1      56.193  -0.396  32.733  0.00  0.00     0.003 A 
ATOM     15  C   UNL d   1      56.445   0.359  32.517  0.00  0.00     0.019 A 
ATOM     16  C   UNL d   1      55.724  -0.503  33.414  0.00  0.00     0.000 C 
ATOM     17  C   UNL d   1      56.907   0.473  31.846  0.00  0.00     0.082 A 
ENDBRANCH   1  11
TORSDOF 3
ENDMDL
MODEL 2
REMARK VINA RESULT:      -3.9      1.736      2.331
REMARK  3 active torsions:
REMARK  status: ('A' for Active; 'I' for Inactive)
REMARK    1  A    between atoms: N_2  and  C_1 
REMARK    2  A    between atoms: N_4  and  C_1 
REMARK       I    between atoms: C_3  and  N_2 
REMARK    3  A    between atoms: C_5  and  C_3 
ROOT
ATOM      1  C   UNL d   1      56.630  -0.690  32.298  0.00  0.00     0.209 C 
ATOM      2  S   UNL d   1      56.548  -1.507  32.154  0.00  0.00    -0.038 SA
ENDROOT
BRANCH   1   3
ATOM      3  N   UNL d   1      57.081  -0.226  31.801  0.00  0.00    -0.179 NA
ATOM      4  C   UNL d   1      57.389  -0.541  31.106  0.00  0.00     0.287 C 
ATOM      5  O   UNL d   1      57.239  -1.332  30.913  0.00  0.00    -0.265 OA
BRANCH   4   6
ATOM      6  C   UNL d   1      57.845  -0.074  30.602  0.00  0.00     0.087 A 
ATOM      7  S   UNL d   1      57.682   0.270  29.863  0.00  0.00    -0.082 SA
ATOM      8  C   UNL d   1      58.356   0.682  29.618  0.00  0.00     0.036 A 
ATOM      9  C   UNL d   1      58.929   0.593  30.200  0.00  0.00     0.008 A 
ATOM     10  C   UNL d   1      58.617   0.125  30.811  0.00  0.00     0.012 A 
ENDBRANCH   4   6
ENDBRANCH   1   3
BRANCH   1  11
ATOM     11  N   UNL d   1      56.250  -0.345  32.952  0.00  0.00    -0.281 N 
ATOM     12  C   UNL d   1      56.689   0.050  33.533  0.00  0.00     0.082 A 
ATOM     13  C   UNL d   1      56.315   0.389  34.176  0.00  0.00     0.019 A 
ATOM     14  C   UNL d   1      55.490   0.339  34.252  0.00  0.00     0.003 A 
ATOM     15  C   UNL d   1      55.057  -0.056  33.671  0.00  0.00     0.019 A 
ATOM     16  C   UNL d   1      55.101   0.682  34.905  0.00  0.00     0.000 C 
ATOM     17  C   UNL d   1      55.434  -0.396  33.025  0.00  0.00     0.082 A 
ENDBRANCH   1  11
TORSDOF 3
ENDMDL
MODEL 3
REMARK VINA RESULT:      -3.6      2.059      4.485
REMARK  3 active torsions:
REMARK  status: ('A' for Active; 'I' for Inactive)
REMARK    1  A    between atoms: N_2  and  C_1 
REMARK    2  A    between atoms: N_4  and  C_1 
REMARK       I    between atoms: C_3  and  N_2 
REMARK    3  A    between atoms: C_5  and  C_3 
ROOT
ATOM      1  C   UNL d   1      56.889  -0.642  31.931  0.00  0.00     0.209 C 
ATOM      2  S   UNL d   1      56.689  -1.448  31.850  0.00  0.00    -0.038 SA
ENDROOT
BRANCH   1   3
ATOM      3  N   UNL d   1      56.520  -0.180  32.493  0.00  0.00    -0.179 NA
ATOM      4  C   UNL d   1      55.963  -0.509  33.000  0.00  0.00     0.287 C 
ATOM      5  O   UNL d   1      55.777  -1.313  32.939  0.00  0.00    -0.265 OA
BRANCH   4   6
ATOM      6  C   UNL d   1      55.590  -0.043  33.569  0.00  0.00     0.087 A 
ATOM      7  S   UNL d   1      55.838   0.234  34.313  0.00  0.00    -0.082 SA
ATOM      8  C   UNL d   1      55.223   0.681  34.638  0.00  0.00     0.036 A 
ATOM      9  C   UNL d   1      54.602   0.681  34.101  0.00  0.00     0.008 A 
ATOM     10  C   UNL d   1      54.824   0.235  33.438  0.00  0.00     0.012 A 
ENDBRANCH   4   6
ENDBRANCH   1   3
BRANCH   1  11
ATOM     11  N   UNL d   1      57.468  -0.309  31.437  0.00  0.00    -0.281 N 
ATOM     12  C   UNL d   1      57.950   0.308  31.711  0.00  0.00     0.082 A 
ATOM     13  C   UNL d   1      58.519   0.635  31.224  0.00  0.00     0.019 A 
ATOM     14  C   UNL d   1      58.619   0.353  30.450  0.00  0.00     0.003 A 
ATOM     15  C   UNL d   1      58.137  -0.261  30.182  0.00  0.00     0.019 A 
ATOM     16  C   UNL d   1      59.198   0.682  29.948  0.00  0.00     0.000 C 
ATOM     17  C   UNL d   1      57.565  -0.590  30.672  0.00  0.00     0.082 A 
ENDBRANCH   1  11
TORSDOF 3
ENDMDL
MODEL 4
REMARK VINA RESULT:      -2.0      9.306      9.639
REMARK  3 active torsions:
REMARK  status: ('A' for Active; 'I' for Inactive)
REMARK    1  A    between atoms: N_2  and  C_1 
REMARK    2  A    between atoms: N_4  and  C_1 
REMARK       I    between atoms: C_3  and  N_2 
REMARK    3  A    between atoms: C_5  and  C_3 
ROOT
ATOM      1  C   UNL d   1      60.069  -9.676  33.129  0.00  0.00     0.209 C 
ATOM      2  S   UNL d   1      60.726  -9.798  32.629  0.00  0.00    -0.038 SA
ENDROOT
BRANCH   1   3
ATOM      3  N   UNL d   1      59.311  -9.746  32.838  0.00  0.00    -0.179 NA
ATOM      4  C   UNL d   1      59.163  -9.639  32.036  0.00  0.00     0.287 C 
ATOM      5  O   UNL d   1      59.788  -9.461  31.524  0.00  0.00    -0.265 OA
BRANCH   4   6
ATOM      6  C   UNL d   1      58.397  -9.709  31.740  0.00  0.00     0.087 A 
ATOM      7  S   UNL d   1      57.656  -9.749  32.115  0.00  0.00    -0.082 SA
ATOM      8  C   UNL d   1      57.075  -9.817  31.531  0.00  0.00     0.036 A 
ATOM      9  C   UNL d   1      57.453  -9.818  30.802  0.00  0.00     0.008 A 
ATOM     10  C   UNL d   1      58.271  -9.751  30.926  0.00  0.00     0.012 A 
ENDBRANCH   4   6
ENDBRANCH   1   3
BRANCH   1  11
ATOM     11  N   UNL d   1      60.189  -9.483  33.928  0.00  0.00    -0.281 N 
ATOM     12  C   UNL d   1      60.939  -9.567  34.273  0.00  0.00     0.082 A 
ATOM     13  C   UNL d   1      61.056  -9.377  35.059  0.00  0.00     0.019 A 
ATOM     14  C   UNL d   1      60.425  -9.097  35.520  0.00  0.00     0.003 A 
ATOM     15  C   UNL d   1      59.681  -9.016  35.172  0.00  0.00     0.019 A 
ATOM     16  C   UNL d   1      60.537  -8.901  36.322  0.00  0.00     0.000 C 
ATOM     17  C   UNL d   1      59.563  -9.207  34.382  0.00  0.00     0.082 A 
ENDBRANCH   1  11
TORSDOF 3
ENDMDL
