MODEL 1
REMARK VINA RESULT:      -3.8      0.000      0.000
REMARK  5 active torsions:
REMARK  status: ('A' for Active; 'I' for Inactive)
REMARK    1  A    between atoms: S_2  and  C_1 
REMARK    2  A    between atoms: N_8  and  S_2 
REMARK    3  A    between atoms: C_11  and  C_16 
REMARK    4  A    between atoms: O_22  and  C_11 
REMARK    5  A    between atoms: C_23  and  O_22 
ROOT
ATOM      1  S   UNL d   1      56.838   0.018  32.170  0.00  0.00     0.277 S 
ATOM      2  O   UNL d   1      57.193  -0.653  32.501  0.00  0.00    -0.199 OA
ATOM      3  O   UNL d   1      56.492   0.682  31.830  0.00  0.00    -0.199 OA
ENDROOT
BRANCH   1   4
ATOM      4  C   UNL d   1      56.424   0.154  32.868  0.00  0.00     0.178 A 
ATOM      5  C   UNL d   1      56.841   0.351  33.553  0.00  0.00     0.282 A 
ATOM      6  N   UNL d   1      56.427   0.485  34.248  0.00  0.00    -0.224 N 
ATOM      7  O   UNL d   1      57.647   0.410  33.537  0.00  0.00    -0.266 OA
ATOM      8  C   UNL d   1      56.849   0.682  34.929  0.00  0.00     0.107 C 
ATOM      9  C   UNL d   1      55.609   0.426  34.265  0.00  0.00     0.342 A 
ATOM     10  N   UNL d   1      55.200   0.231  33.586  0.00  0.00    -0.255 N 
ATOM     11  O   UNL d   1      55.191   0.561  34.962  0.00  0.00    -0.245 OA
ATOM     12  C   UNL d   1      55.605   0.094  32.885  0.00  0.00     0.102 A 
ATOM     13  C   UNL d   1      54.385   0.171  33.603  0.00  0.00     0.104 C 
ENDBRANCH   1   4
BRANCH   1  14
ATOM     14  N   UNL d   1      57.248  -0.108  31.464  0.00  0.00    -0.229 N 
ATOM     15  C   UNL d   1      57.406  -0.898  31.203  0.00  0.00     0.092 A 
ATOM     16  C   UNL d   1      57.822  -1.008  30.486  0.00  0.00     0.025 A 
ATOM     17  C   UNL d   1      58.080  -0.351  30.033  0.00  0.00     0.067 A 
ATOM     18  C   UNL d   1      57.924   0.425  30.291  0.00  0.00     0.025 A 
ATOM     19  C   UNL d   1      57.505   0.548  31.011  0.00  0.00     0.092 A 
BRANCH  17  20
ATOM     20  C   UNL d   1      58.483  -0.473  29.338  0.00  0.00     0.300 C 
ATOM     21  O   UNL d   1      58.107  -0.387  28.642  0.00  0.00    -0.259 OA
BRANCH  20  22
ATOM     22  O   UNL d   1      59.265  -0.680  29.368  0.00  0.00    -0.271 OA
BRANCH  22  23
ATOM     23  C   UNL d   1      59.667  -0.842  28.710  0.00  0.00     0.126 C 
ATOM     24  C   UNL d   1      60.462  -0.954  28.740  0.00  0.00     0.029 C 
ENDBRANCH  22  23
ENDBRANCH  20  22
ENDBRANCH  17  20
ENDBRANCH   1  14
TORSDOF 5
ENDMDL
MODEL 2
REMARK VINA RESULT:      -3.3      1.330      4.983
REMARK  5 active torsions:
REMARK  status: ('A' for Active; 'I' for Inactive)
REMARK    1  A    between atoms: S_2  and  C_1 
REMARK    2  A    between atoms: N_8  and  S_2 
REMARK    3  A    between atoms: C_11  and  C_16 
REMARK    4  A    between atoms: O_22  and  C_11 
REMARK    5  A    between atoms: C_23  and  O_22 
ROOT
ATOM      1  S   UNL d   1      57.814   0.057  31.212  0.00  0.00     0.277 S 
ATOM      2  O   UNL d   1      58.278   0.668  31.523  0.00  0.00    -0.199 OA
ATOM      3  O   UNL d   1      57.346  -0.549  30.913  0.00  0.00    -0.199 OA
ENDROOT
BRANCH   1   4
ATOM      4  C   UNL d   1      58.295   0.021  30.544  0.00  0.00     0.178 A 
ATOM      5  C   UNL d   1      58.018   0.328  29.830  0.00  0.00     0.282 A 
ATOM      6  N   UNL d   1      58.499   0.291  29.166  0.00  0.00    -0.224 N 
ATOM      7  O   UNL d   1      57.282   0.659  29.786  0.00  0.00    -0.266 OA
ATOM      8  C   UNL d   1      58.217   0.599  28.455  0.00  0.00     0.107 C 
ATOM      9  C   UNL d   1      59.246  -0.046  29.210  0.00  0.00     0.342 A 
ATOM     10  N   UNL d   1      59.516  -0.348  29.918  0.00  0.00    -0.255 N 
ATOM     11  O   UNL d   1      59.731  -0.083  28.545  0.00  0.00    -0.245 OA
ATOM     12  C   UNL d   1      59.043  -0.316  30.589  0.00  0.00     0.102 A 
ATOM     13  C   UNL d   1      60.260  -0.683  29.962  0.00  0.00     0.104 C 
ENDBRANCH   1   4
BRANCH   1  14
ATOM     14  N   UNL d   1      57.325   0.084  31.876  0.00  0.00    -0.229 N 
ATOM     15  C   UNL d   1      56.640  -0.412  31.917  0.00  0.00     0.092 A 
ATOM     16  C   UNL d   1      56.155  -0.372  32.598  0.00  0.00     0.025 A 
ATOM     17  C   UNL d   1      56.341   0.148  33.228  0.00  0.00     0.067 A 
ATOM     18  C   UNL d   1      57.015   0.635  33.187  0.00  0.00     0.025 A 
ATOM     19  C   UNL d   1      57.511   0.604  32.506  0.00  0.00     0.092 A 
BRANCH  17  20
ATOM     20  C   UNL d   1      55.861   0.177  33.883  0.00  0.00     0.300 C 
ATOM     21  O   UNL d   1      56.185   0.193  34.610  0.00  0.00    -0.259 OA
BRANCH  20  22
ATOM     22  O   UNL d   1      55.059   0.189  33.784  0.00  0.00    -0.271 OA
BRANCH  22  23
ATOM     23  C   UNL d   1      54.583   0.456  34.352  0.00  0.00     0.126 C 
ATOM     24  C   UNL d   1      53.832   0.682  34.177  0.00  0.00     0.029 C 
ENDBRANCH  22  23
ENDBRANCH  20  22
ENDBRANCH  17  20
ENDBRANCH   1  14
TORSDOF 5
ENDMDL
MODEL 3
REMARK VINA RESULT:      -2.2      1.027      1.727
REMARK  5 active torsions:
REMARK  status: ('A' for Active; 'I' for Inactive)
REMARK    1  A    between atoms: S_2  and  C_1 
REMARK    2  A    between atoms: N_8  and  S_2 
REMARK    3  A    between atoms: C_11  and  C_16 
REMARK    4  A    between atoms: O_22  and  C_11 
REMARK    5  A    between atoms: C_23  and  O_22 
ROOT
ATOM      1  S   UNL d   1      56.409   0.119  33.064  0.00  0.00     0.277 S 
ATOM      2  O   UNL d   1      56.986   0.682  33.255  0.00  0.00    -0.199 OA
ATOM      3  O   UNL d   1      55.843  -0.442  32.864  0.00  0.00    -0.199 OA
ENDROOT
BRANCH   1   4
ATOM      4  C   UNL d   1      56.024   0.260  33.779  0.00  0.00     0.178 A 
ATOM      5  C   UNL d   1      55.211   0.401  33.778  0.00  0.00     0.282 A 
ATOM      6  N   UNL d   1      54.829   0.541  34.490  0.00  0.00    -0.224 N 
ATOM      7  O   UNL d   1      54.797   0.401  33.083  0.00  0.00    -0.266 OA
ATOM      8  C   UNL d   1      54.017   0.682  34.484  0.00  0.00     0.107 C 
ATOM      9  C   UNL d   1      55.249   0.541  35.195  0.00  0.00     0.342 A 
ATOM     10  N   UNL d   1      56.052   0.401  35.192  0.00  0.00    -0.255 N 
ATOM     11  O   UNL d   1      54.867   0.682  35.913  0.00  0.00    -0.245 OA
ATOM     12  C   UNL d   1      56.444   0.260  34.484  0.00  0.00     0.102 A 
ATOM     13  C   UNL d   1      56.470   0.401  35.894  0.00  0.00     0.104 C 
ENDBRANCH   1   4
BRANCH   1  14
ATOM     14  N   UNL d   1      56.787  -0.031  32.345  0.00  0.00    -0.229 N 
ATOM     15  C   UNL d   1      57.066   0.614  31.873  0.00  0.00     0.092 A 
ATOM     16  C   UNL d   1      57.446   0.445  31.147  0.00  0.00     0.025 A 
ATOM     17  C   UNL d   1      57.550  -0.346  30.891  0.00  0.00     0.067 A 
ATOM     18  C   UNL d   1      57.275  -0.979  31.356  0.00  0.00     0.025 A 
ATOM     19  C   UNL d   1      56.891  -0.822  32.089  0.00  0.00     0.092 A 
BRANCH  17  20
ATOM     20  C   UNL d   1      57.921  -0.496  30.183  0.00  0.00     0.300 C 
ATOM     21  O   UNL d   1      57.841   0.015  29.578  0.00  0.00    -0.259 OA
BRANCH  20  22
ATOM     22  O   UNL d   1      58.369  -1.166  30.107  0.00  0.00    -0.271 OA
BRANCH  22  23
ATOM     23  C   UNL d   1      58.614  -1.412  29.400  0.00  0.00     0.126 C 
ATOM     24  C   UNL d   1      58.928  -2.146  29.315  0.00  0.00     0.029 C 
ENDBRANCH  22  23
ENDBRANCH  20  22
ENDBRANCH  17  20
ENDBRANCH   1  14
TORSDOF 5
ENDMDL
