MODEL 1
REMARK VINA RESULT:      10.8      0.000      0.000
REMARK  4 active torsions:
REMARK  status: ('A' for Active; 'I' for Inactive)
REMARK       I    between atoms: N_3  and  C_1 
REMARK    1  A    between atoms: O_5  and  C_1 
REMARK    2  A    between atoms: C_2  and  O_8 
REMARK       I    between atoms: N_4  and  C_2 
REMARK    3  A    between atoms: C_6  and  O_5 
REMARK    4  A    between atoms: O_8  and  C_12 
ROOT
ATOM      1  C   UNL d   1     -41.446-121.774 -51.244  0.00  0.00     0.105 A 
ATOM      2  C   UNL d   1     -41.625-122.424 -51.718  0.00  0.00     0.025 A 
ATOM      3  C   UNL d   1     -41.481-122.394 -52.527  0.00  0.00     0.027 A 
ATOM      4  C   UNL d   1     -41.660-123.052 -53.018  0.00  0.00     0.105 A 
ATOM      5  C   UNL d   1     -41.943-123.094 -51.385  0.00  0.00     0.002 A 
ATOM      6  C   UNL d   1     -42.126-123.751 -51.854  0.00  0.00     0.002 A 
ATOM      7  C   UNL d   1     -41.979-123.722 -52.686  0.00  0.00     0.025 A 
ATOM      8  C   UNL d   1     -41.589-121.804 -50.435  0.00  0.00     0.025 A 
ATOM      9  C   UNL d   1     -41.908-122.475 -50.103  0.00  0.00     0.002 A 
ATOM     10  C   UNL d   1     -42.090-123.131 -50.571  0.00  0.00     0.000 A 
ENDROOT
BRANCH   1  11
ATOM     11  O   UNL d   1     -41.123-121.094 -51.582  0.00  0.00    -0.259 OA
BRANCH  11  12
ATOM     12  C   UNL d   1     -41.124-120.384 -51.160  0.00  0.00     0.378 C 
ATOM     13  N   UNL d   1     -41.124-119.649 -51.562  0.00  0.00    -0.247 N 
ATOM     14  C   UNL d   1     -41.125-118.941 -51.129  0.00  0.00     0.112 A 
ATOM     15  C   UNL d   1     -41.123-119.639 -52.386  0.00  0.00     0.112 A 
ATOM     16  C   UNL d   1     -41.125-118.215 -51.537  0.00  0.00     0.142 A 
ATOM     17  O   UNL d   1     -41.124-118.207 -52.373  0.00  0.00    -0.300 OA
ATOM     18  C   UNL d   1     -41.123-118.920 -52.790  0.00  0.00     0.142 A 
ATOM     19  O   UNL d   1     -41.125-120.386 -50.331  0.00  0.00    -0.237 OA
ENDBRANCH  11  12
ENDBRANCH   1  11
BRANCH   4  20
ATOM     20  O   UNL d   1     -41.515-123.019 -53.830  0.00  0.00    -0.259 OA
BRANCH  20  21
ATOM     21  C   UNL d   1     -42.135-123.080 -54.362  0.00  0.00     0.378 C 
ATOM     22  N   UNL d   1     -42.161-122.597 -55.033  0.00  0.00    -0.247 N 
ATOM     23  C   UNL d   1     -42.794-122.673 -55.558  0.00  0.00     0.112 A 
ATOM     24  C   UNL d   1     -41.564-122.055 -55.165  0.00  0.00     0.112 A 
ATOM     25  C   UNL d   1     -42.820-122.191 -56.225  0.00  0.00     0.142 A 
ATOM     26  O   UNL d   1     -42.220-121.642 -56.365  0.00  0.00    -0.300 OA
ATOM     27  C   UNL d   1     -41.594-121.575 -55.835  0.00  0.00     0.142 A 
ATOM     28  O   UNL d   1     -42.732-123.631 -54.219  0.00  0.00    -0.237 OA
ENDBRANCH  20  21
ENDBRANCH   4  20
TORSDOF 4
ENDMDL
MODEL 2
REMARK VINA RESULT:      12.8      1.899      4.626
REMARK  4 active torsions:
REMARK  status: ('A' for Active; 'I' for Inactive)
REMARK       I    between atoms: N_3  and  C_1 
REMARK    1  A    between atoms: O_5  and  C_1 
REMARK    2  A    between atoms: C_2  and  O_8 
REMARK       I    between atoms: N_4  and  C_2 
REMARK    3  A    between atoms: C_6  and  O_5 
REMARK    4  A    between atoms: O_8  and  C_12 
ROOT
ATOM      1  C   UNL d   1     -41.836-122.361 -53.497  0.00  0.00     0.105 A 
ATOM      2  C   UNL d   1     -41.703-122.609 -52.723  0.00  0.00     0.025 A 
ATOM      3  C   UNL d   1     -41.926-122.127 -52.095  0.00  0.00     0.027 A 
ATOM      4  C   UNL d   1     -41.794-122.371 -51.301  0.00  0.00     0.105 A 
ATOM      5  C   UNL d   1     -41.351-123.328 -52.581  0.00  0.00     0.002 A 
ATOM      6  C   UNL d   1     -41.215-123.583 -51.806  0.00  0.00     0.002 A 
ATOM      7  C   UNL d   1     -41.443-123.090 -51.158  0.00  0.00     0.025 A 
ATOM      8  C   UNL d   1     -41.613-122.843 -54.126  0.00  0.00     0.025 A 
ATOM      9  C   UNL d   1     -41.262-123.562 -53.983  0.00  0.00     0.002 A 
ATOM     10  C   UNL d   1     -41.125-123.817 -53.209  0.00  0.00     0.000 A 
ENDROOT
BRANCH   1  11
ATOM     11  O   UNL d   1     -42.192-121.631 -53.642  0.00  0.00    -0.259 OA
BRANCH  11  12
ATOM     12  C   UNL d   1     -42.760-121.560 -54.238  0.00  0.00     0.378 C 
ATOM     13  N   UNL d   1     -42.532-121.529 -55.043  0.00  0.00    -0.247 N 
ATOM     14  C   UNL d   1     -43.111-121.457 -55.634  0.00  0.00     0.112 A 
ATOM     15  C   UNL d   1     -41.733-121.570 -55.239  0.00  0.00     0.112 A 
ATOM     16  C   UNL d   1     -42.876-121.427 -56.432  0.00  0.00     0.142 A 
ATOM     17  O   UNL d   1     -42.064-121.469 -56.629  0.00  0.00    -0.300 OA
ATOM     18  C   UNL d   1     -41.500-121.540 -56.030  0.00  0.00     0.142 A 
ATOM     19  O   UNL d   1     -43.566-121.519 -54.048  0.00  0.00    -0.237 OA
ENDBRANCH  11  12
ENDBRANCH   1  11
BRANCH   4  20
ATOM     20  O   UNL d   1     -42.018-121.886 -50.672  0.00  0.00    -0.259 OA
BRANCH  20  21
ATOM     21  C   UNL d   1     -42.637-122.106 -50.183  0.00  0.00     0.378 C 
ATOM     22  N   UNL d   1     -42.500-122.282 -49.386  0.00  0.00    -0.247 N 
ATOM     23  C   UNL d   1     -43.137-122.503 -48.909  0.00  0.00     0.112 A 
ATOM     24  C   UNL d   1     -41.741-122.236 -49.087  0.00  0.00     0.112 A 
ATOM     25  C   UNL d   1     -42.999-122.678 -48.116  0.00  0.00     0.142 A 
ATOM     26  O   UNL d   1     -42.236-122.633 -47.806  0.00  0.00    -0.300 OA
ATOM     27  C   UNL d   1     -41.609-122.412 -48.292  0.00  0.00     0.142 A 
ATOM     28  O   UNL d   1     -43.399-122.150 -50.496  0.00  0.00    -0.237 OA
ENDBRANCH  20  21
ENDBRANCH   4  20
TORSDOF 4
ENDMDL
