MODEL 1
REMARK VINA RESULT:      -6.8      0.000      0.000
REMARK  5 active torsions:
REMARK  status: ('A' for Active; 'I' for Inactive)
REMARK    1  A    between atoms: C_11  and  C_3 
REMARK    2  A    between atoms: C_12  and  N_5 
REMARK    3  A    between atoms: C_10  and  C_14 
REMARK    4  A    between atoms: O_24  and  C_11 
REMARK    5  A    between atoms: C_25  and  O_24 
ROOT
ATOM      1  C   UNL d   1     -49.004  12.347  23.299  0.00  0.00     0.086 A 
ATOM      2  C   UNL d   1     -49.481  13.015  23.265  0.00  0.00     0.038 A 
ATOM      3  C   UNL d   1     -49.168  13.735  23.014  0.00  0.00     0.165 A 
ATOM      4  C   UNL d   1     -48.207  12.397  23.081  0.00  0.00     0.282 A 
ATOM      5  N   UNL d   1     -47.893  13.113  22.830  0.00  0.00    -0.194 N 
ATOM      6  N   UNL d   1     -48.370  13.784  22.796  0.00  0.00    -0.157 NA
ATOM      7  C   UNL d   1     -49.470  11.720  23.568  0.00  0.00     0.137 A 
ATOM      8  C   UNL d   1     -50.238  12.796  23.513  0.00  0.00     0.039 A 
ATOM      9  S   UNL d   1     -50.229  12.003  23.698  0.00  0.00    -0.066 SA
ATOM     10  O   UNL d   1     -47.721  11.722  23.114  0.00  0.00    -0.265 OA
ATOM     11  N   UNL d   1     -49.231  10.932  23.692  0.00  0.00    -0.141 N 
ENDROOT
BRANCH   5  12
ATOM     12  C   UNL d   1     -47.100  13.162  22.613  0.00  0.00     0.086 A 
ATOM     13  C   UNL d   1     -46.860  12.906  21.871  0.00  0.00     0.019 A 
ATOM     14  C   UNL d   1     -46.060  12.955  21.651  0.00  0.00     0.005 A 
ATOM     15  C   UNL d   1     -45.507  13.260  22.177  0.00  0.00     0.072 A 
ATOM     16  C   UNL d   1     -45.746  13.518  22.924  0.00  0.00     0.005 A 
ATOM     17  C   UNL d   1     -46.546  13.469  23.143  0.00  0.00     0.019 A 
BRANCH  15  18
ATOM     18  C   UNL d   1     -44.714  13.309  21.960  0.00  0.00     0.419 C 
ATOM     19  F   UNL d   1     -43.990  13.350  21.762  0.00  0.00    -0.166 F 
ATOM     20  F   UNL d   1     -44.133  12.684  21.893  0.00  0.00    -0.166 F 
ATOM     21  F   UNL d   1     -44.255  13.995  21.743  0.00  0.00    -0.166 F 
ENDBRANCH  15  18
ENDBRANCH   5  12
BRANCH   3  22
ATOM     22  C   UNL d   1     -49.654  14.410  22.981  0.00  0.00     0.320 C 
ATOM     23  O   UNL d   1     -49.781  14.854  23.660  0.00  0.00    -0.257 OA
BRANCH  22  24
ATOM     24  O   UNL d   1     -50.008  14.633  22.267  0.00  0.00    -0.270 OA
BRANCH  24  25
ATOM     25  C   UNL d   1     -50.535  15.263  22.249  0.00  0.00     0.126 C 
ATOM     26  C   UNL d   1     -51.060  15.349  21.609  0.00  0.00     0.029 C 
ENDBRANCH  24  25
ENDBRANCH  22  24
ENDBRANCH   3  22
TORSDOF 5
ENDMDL
MODEL 2
REMARK VINA RESULT:      -6.5      1.921      2.711
REMARK  5 active torsions:
REMARK  status: ('A' for Active; 'I' for Inactive)
REMARK    1  A    between atoms: C_11  and  C_3 
REMARK    2  A    between atoms: C_12  and  N_5 
REMARK    3  A    between atoms: C_10  and  C_14 
REMARK    4  A    between atoms: O_24  and  C_11 
REMARK    5  A    between atoms: C_25  and  O_24 
ROOT
ATOM      1  C   UNL d   1     -47.684  14.291  22.618  0.00  0.00     0.086 A 
ATOM      2  C   UNL d   1     -48.457  14.025  22.539  0.00  0.00     0.038 A 
ATOM      3  C   UNL d   1     -48.624  13.219  22.589  0.00  0.00     0.165 A 
ATOM      4  C   UNL d   1     -47.071  13.750  22.747  0.00  0.00     0.282 A 
ATOM      5  N   UNL d   1     -47.235  12.947  22.797  0.00  0.00    -0.194 N 
ATOM      6  N   UNL d   1     -48.010  12.678  22.718  0.00  0.00    -0.157 NA
ATOM      7  C   UNL d   1     -47.694  15.115  22.544  0.00  0.00     0.137 A 
ATOM      8  C   UNL d   1     -48.939  14.684  22.417  0.00  0.00     0.039 A 
ATOM      9  S   UNL d   1     -48.470  15.350  22.420  0.00  0.00    -0.066 SA
ATOM     10  O   UNL d   1     -46.286  14.017  22.827  0.00  0.00    -0.265 OA
ATOM     11  N   UNL d   1     -47.043  15.632  22.584  0.00  0.00    -0.141 N 
ENDROOT
BRANCH   5  12
ATOM     12  C   UNL d   1     -46.625  12.409  22.925  0.00  0.00     0.086 A 
ATOM     13  C   UNL d   1     -46.665  11.884  23.556  0.00  0.00     0.019 A 
ATOM     14  C   UNL d   1     -46.050  11.341  23.686  0.00  0.00     0.005 A 
ATOM     15  C   UNL d   1     -45.400  11.327  23.184  0.00  0.00     0.072 A 
ATOM     16  C   UNL d   1     -45.358  11.854  22.550  0.00  0.00     0.005 A 
ATOM     17  C   UNL d   1     -45.973  12.397  22.420  0.00  0.00     0.019 A 
BRANCH  15  18
ATOM     18  C   UNL d   1     -44.790  10.789  23.312  0.00  0.00     0.419 C 
ATOM     19  F   UNL d   1     -44.236  10.295  23.430  0.00  0.00    -0.166 F 
ATOM     20  F   UNL d   1     -44.837   9.965  23.539  0.00  0.00    -0.166 F 
ATOM     21  F   UNL d   1     -43.946  10.905  23.254  0.00  0.00    -0.166 F 
ENDBRANCH  15  18
ENDBRANCH   5  12
BRANCH   3  22
ATOM     22  C   UNL d   1     -49.408  12.953  22.509  0.00  0.00     0.320 C 
ATOM     23  O   UNL d   1     -49.810  13.075  21.803  0.00  0.00    -0.257 OA
BRANCH  22  24
ATOM     24  O   UNL d   1     -49.783  12.565  23.137  0.00  0.00    -0.270 OA
BRANCH  24  25
ATOM     25  C   UNL d   1     -50.505  12.193  23.018  0.00  0.00     0.126 C 
ATOM     26  C   UNL d   1     -51.041  12.113  23.650  0.00  0.00     0.029 C 
ENDBRANCH  24  25
ENDBRANCH  22  24
ENDBRANCH   3  22
TORSDOF 5
ENDMDL
MODEL 3
REMARK VINA RESULT:      -6.2      1.646      2.494
REMARK  5 active torsions:
REMARK  status: ('A' for Active; 'I' for Inactive)
REMARK    1  A    between atoms: C_11  and  C_3 
REMARK    2  A    between atoms: C_12  and  N_5 
REMARK    3  A    between atoms: C_10  and  C_14 
REMARK    4  A    between atoms: O_24  and  C_11 
REMARK    5  A    between atoms: C_25  and  O_24 
ROOT
ATOM      1  C   UNL d   1     -48.620  14.481  22.636  0.00  0.00     0.086 A 
ATOM      2  C   UNL d   1     -49.332  14.088  22.520  0.00  0.00     0.038 A 
ATOM      3  C   UNL d   1     -49.349  13.264  22.501  0.00  0.00     0.165 A 
ATOM      4  C   UNL d   1     -47.920  14.051  22.735  0.00  0.00     0.282 A 
ATOM      5  N   UNL d   1     -47.936  13.230  22.716  0.00  0.00    -0.194 N 
ATOM      6  N   UNL d   1     -48.649  12.833  22.599  0.00  0.00    -0.157 NA
ATOM      7  C   UNL d   1     -48.779  15.293  22.628  0.00  0.00     0.137 A 
ATOM      8  C   UNL d   1     -49.925  14.657  22.441  0.00  0.00     0.039 A 
ATOM      9  S   UNL d   1     -49.584  15.394  22.507  0.00  0.00    -0.066 SA
ATOM     10  O   UNL d   1     -47.198  14.448  22.853  0.00  0.00    -0.265 OA
ATOM     11  N   UNL d   1     -48.234  15.914  22.724  0.00  0.00    -0.141 N 
ENDROOT
BRANCH   5  12
ATOM     12  C   UNL d   1     -47.239  12.803  22.814  0.00  0.00     0.086 A 
ATOM     13  C   UNL d   1     -46.682  12.779  22.210  0.00  0.00     0.019 A 
ATOM     14  C   UNL d   1     -45.979  12.347  22.309  0.00  0.00     0.005 A 
ATOM     15  C   UNL d   1     -45.839  11.943  23.010  0.00  0.00     0.072 A 
ATOM     16  C   UNL d   1     -46.397  11.965  23.618  0.00  0.00     0.005 A 
ATOM     17  C   UNL d   1     -47.100  12.397  23.519  0.00  0.00     0.019 A 
BRANCH  15  18
ATOM     18  C   UNL d   1     -45.143  11.515  23.108  0.00  0.00     0.419 C 
ATOM     19  F   UNL d   1     -44.505  11.127  23.195  0.00  0.00    -0.166 F 
ATOM     20  F   UNL d   1     -44.354  11.695  22.827  0.00  0.00    -0.166 F 
ATOM     21  F   UNL d   1     -45.016  10.776  23.516  0.00  0.00    -0.166 F 
ENDBRANCH  15  18
ENDBRANCH   5  12
BRANCH   3  22
ATOM     22  C   UNL d   1     -50.072  12.867  22.382  0.00  0.00     0.320 C 
ATOM     23  O   UNL d   1     -50.292  12.639  21.625  0.00  0.00    -0.257 OA
BRANCH  22  24
ATOM     24  O   UNL d   1     -50.567  12.702  23.025  0.00  0.00    -0.270 OA
BRANCH  24  25
ATOM     25  C   UNL d   1     -51.034  12.027  23.021  0.00  0.00     0.126 C 
ATOM     26  C   UNL d   1     -51.036  11.519  23.680  0.00  0.00     0.029 C 
ENDBRANCH  24  25
ENDBRANCH  22  24
ENDBRANCH   3  22
TORSDOF 5
ENDMDL
MODEL 4
REMARK VINA RESULT:      -5.7      2.791      4.261
REMARK  5 active torsions:
REMARK  status: ('A' for Active; 'I' for Inactive)
REMARK    1  A    between atoms: C_11  and  C_3 
REMARK    2  A    between atoms: C_12  and  N_5 
REMARK    3  A    between atoms: C_10  and  C_14 
REMARK    4  A    between atoms: O_24  and  C_11 
REMARK    5  A    between atoms: C_25  and  O_24 
ROOT
ATOM      1  C   UNL d   1     -47.495  11.931  23.276  0.00  0.00     0.086 A 
ATOM      2  C   UNL d   1     -46.723  12.183  23.156  0.00  0.00     0.038 A 
ATOM      3  C   UNL d   1     -46.574  12.957  22.915  0.00  0.00     0.165 A 
ATOM      4  C   UNL d   1     -48.125  12.454  23.156  0.00  0.00     0.282 A 
ATOM      5  N   UNL d   1     -47.979  13.226  22.916  0.00  0.00    -0.194 N 
ATOM      6  N   UNL d   1     -47.204  13.481  22.795  0.00  0.00    -0.157 NA
ATOM      7  C   UNL d   1     -47.466  11.139  23.512  0.00  0.00     0.137 A 
ATOM      8  C   UNL d   1     -46.222  11.547  23.317  0.00  0.00     0.039 A 
ATOM      9  S   UNL d   1     -46.679  10.908  23.535  0.00  0.00    -0.066 SA
ATOM     10  O   UNL d   1     -48.909  12.201  23.278  0.00  0.00    -0.265 OA
ATOM     11  N   UNL d   1     -48.109  10.644  23.698  0.00  0.00    -0.141 N 
ENDROOT
BRANCH   5  12
ATOM     12  C   UNL d   1     -48.605  13.746  22.797  0.00  0.00     0.086 A 
ATOM     13  C   UNL d   1     -49.078  13.675  22.128  0.00  0.00     0.019 A 
ATOM     14  C   UNL d   1     -49.710  14.200  22.008  0.00  0.00     0.005 A 
ATOM     15  C   UNL d   1     -49.865  14.792  22.557  0.00  0.00     0.072 A 
ATOM     16  C   UNL d   1     -49.392  14.864  23.229  0.00  0.00     0.005 A 
ATOM     17  C   UNL d   1     -48.759  14.339  23.350  0.00  0.00     0.019 A 
BRANCH  15  18
ATOM     18  C   UNL d   1     -50.492  15.312  22.437  0.00  0.00     0.419 C 
ATOM     19  F   UNL d   1     -51.064  15.786  22.324  0.00  0.00    -0.166 F 
ATOM     20  F   UNL d   1     -50.972  15.427  21.737  0.00  0.00    -0.166 F 
ATOM     21  F   UNL d   1     -50.834  15.878  22.977  0.00  0.00    -0.166 F 
ENDBRANCH  15  18
ENDBRANCH   5  12
BRANCH   3  22
ATOM     22  C   UNL d   1     -45.790  13.210  22.794  0.00  0.00     0.320 C 
ATOM     23  O   UNL d   1     -45.372  13.551  23.413  0.00  0.00    -0.257 OA
BRANCH  22  24
ATOM     24  O   UNL d   1     -45.433  13.119  22.052  0.00  0.00    -0.270 OA
BRANCH  24  25
ATOM     25  C   UNL d   1     -44.697  13.454  21.907  0.00  0.00     0.126 C 
ATOM     26  C   UNL d   1     -44.149  13.059  21.422  0.00  0.00     0.029 C 
ENDBRANCH  24  25
ENDBRANCH  22  24
ENDBRANCH   3  22
TORSDOF 5
ENDMDL
MODEL 5
REMARK VINA RESULT:      -5.4      7.346      9.427
REMARK  5 active torsions:
REMARK  status: ('A' for Active; 'I' for Inactive)
REMARK    1  A    between atoms: C_11  and  C_3 
REMARK    2  A    between atoms: C_12  and  N_5 
REMARK    3  A    between atoms: C_10  and  C_14 
REMARK    4  A    between atoms: O_24  and  C_11 
REMARK    5  A    between atoms: C_25  and  O_24 
ROOT
ATOM      1  C   UNL d   1     -39.157  15.285  20.671  0.00  0.00     0.086 A 
ATOM      2  C   UNL d   1     -39.918  15.152  20.951  0.00  0.00     0.038 A 
ATOM      3  C   UNL d   1     -40.473  14.772  20.474  0.00  0.00     0.165 A 
ATOM      4  C   UNL d   1     -38.947  15.037  19.909  0.00  0.00     0.282 A 
ATOM      5  N   UNL d   1     -39.499  14.659  19.433  0.00  0.00    -0.194 N 
ATOM      6  N   UNL d   1     -40.263  14.524  19.713  0.00  0.00    -0.157 NA
ATOM      7  C   UNL d   1     -38.735  15.671  21.268  0.00  0.00     0.137 A 
ATOM      8  C   UNL d   1     -39.961  15.456  21.718  0.00  0.00     0.039 A 
ATOM      9  S   UNL d   1     -39.236  15.773  21.909  0.00  0.00    -0.066 SA
ATOM     10  O   UNL d   1     -38.177  15.170  19.623  0.00  0.00    -0.265 OA
ATOM     11  N   UNL d   1     -37.941  15.920  21.242  0.00  0.00    -0.141 N 
ENDROOT
BRANCH   5  12
ATOM     12  C   UNL d   1     -39.290  14.413  18.676  0.00  0.00     0.086 A 
ATOM     13  C   UNL d   1     -39.477  14.878  18.025  0.00  0.00     0.019 A 
ATOM     14  C   UNL d   1     -39.266  14.630  17.261  0.00  0.00     0.005 A 
ATOM     15  C   UNL d   1     -38.870  13.918  17.154  0.00  0.00     0.072 A 
ATOM     16  C   UNL d   1     -38.682  13.449  17.806  0.00  0.00     0.005 A 
ATOM     17  C   UNL d   1     -38.893  13.697  18.570  0.00  0.00     0.019 A 
BRANCH  15  18
ATOM     18  C   UNL d   1     -38.661  13.672  16.397  0.00  0.00     0.419 C 
ATOM     19  F   UNL d   1     -38.470  13.443  15.706  0.00  0.00    -0.166 F 
ATOM     20  F   UNL d   1     -38.405  12.898  16.132  0.00  0.00    -0.166 F 
ATOM     21  F   UNL d   1     -38.643  14.118  15.670  0.00  0.00    -0.166 F 
ENDBRANCH  15  18
ENDBRANCH   5  12
BRANCH   3  22
ATOM     22  C   UNL d   1     -41.243  14.639  20.761  0.00  0.00     0.320 C 
ATOM     23  O   UNL d   1     -41.745  15.276  20.891  0.00  0.00    -0.257 OA
BRANCH  22  24
ATOM     24  O   UNL d   1     -41.503  13.868  20.914  0.00  0.00    -0.270 OA
BRANCH  24  25
ATOM     25  C   UNL d   1     -42.295  13.727  21.084  0.00  0.00     0.126 C 
ATOM     26  C   UNL d   1     -42.571  12.946  21.163  0.00  0.00     0.029 C 
ENDBRANCH  24  25
ENDBRANCH  22  24
ENDBRANCH   3  22
TORSDOF 5
ENDMDL
MODEL 6
REMARK VINA RESULT:      -4.3      3.167      5.050
REMARK  5 active torsions:
REMARK  status: ('A' for Active; 'I' for Inactive)
REMARK    1  A    between atoms: C_11  and  C_3 
REMARK    2  A    between atoms: C_12  and  N_5 
REMARK    3  A    between atoms: C_10  and  C_14 
REMARK    4  A    between atoms: O_24  and  C_11 
REMARK    5  A    between atoms: C_25  and  O_24 
ROOT
ATOM      1  C   UNL d   1     -44.581  11.758  22.791  0.00  0.00     0.086 A 
ATOM      2  C   UNL d   1     -43.965  11.991  22.300  0.00  0.00     0.038 A 
ATOM      3  C   UNL d   1     -44.027  12.686  21.860  0.00  0.00     0.165 A 
ATOM      4  C   UNL d   1     -45.265  12.222  22.845  0.00  0.00     0.282 A 
ATOM      5  N   UNL d   1     -45.328  12.914  22.408  0.00  0.00    -0.194 N 
ATOM      6  N   UNL d   1     -44.711  13.149  21.915  0.00  0.00    -0.157 NA
ATOM      7  C   UNL d   1     -44.358  11.049  23.153  0.00  0.00     0.137 A 
ATOM      8  C   UNL d   1     -43.366  11.425  22.361  0.00  0.00     0.039 A 
ATOM      9  S   UNL d   1     -43.609  10.850  22.884  0.00  0.00    -0.066 SA
ATOM     10  O   UNL d   1     -45.891  11.989  23.342  0.00  0.00    -0.265 OA
ATOM     11  N   UNL d   1     -44.801  10.601  23.698  0.00  0.00    -0.141 N 
ENDROOT
BRANCH   5  12
ATOM     12  C   UNL d   1     -46.008  13.375  22.462  0.00  0.00     0.086 A 
ATOM     13  C   UNL d   1     -46.698  13.137  22.085  0.00  0.00     0.019 A 
ATOM     14  C   UNL d   1     -47.385  13.602  22.139  0.00  0.00     0.005 A 
ATOM     15  C   UNL d   1     -47.375  14.301  22.571  0.00  0.00     0.072 A 
ATOM     16  C   UNL d   1     -46.683  14.542  22.951  0.00  0.00     0.005 A 
ATOM     17  C   UNL d   1     -45.997  14.077  22.896  0.00  0.00     0.019 A 
BRANCH  15  18
ATOM     18  C   UNL d   1     -48.055  14.762  22.625  0.00  0.00     0.419 C 
ATOM     19  F   UNL d   1     -48.677  15.181  22.678  0.00  0.00    -0.166 F 
ATOM     20  F   UNL d   1     -48.599  14.846  23.281  0.00  0.00    -0.166 F 
ATOM     21  F   UNL d   1     -48.404  15.280  22.043  0.00  0.00    -0.166 F 
ENDBRANCH  15  18
ENDBRANCH   5  12
BRANCH   3  22
ATOM     22  C   UNL d   1     -43.401  12.919  21.364  0.00  0.00     0.320 C 
ATOM     23  O   UNL d   1     -43.268  12.517  20.660  0.00  0.00    -0.257 OA
BRANCH  22  24
ATOM     24  O   UNL d   1     -42.914  13.553  21.577  0.00  0.00    -0.270 OA
BRANCH  24  25
ATOM     25  C   UNL d   1     -42.291  13.775  21.089  0.00  0.00     0.126 C 
ATOM     26  C   UNL d   1     -41.914  14.508  21.203  0.00  0.00     0.029 C 
ENDBRANCH  24  25
ENDBRANCH  22  24
ENDBRANCH   3  22
TORSDOF 5
ENDMDL
MODEL 7
REMARK VINA RESULT:      -4.0      6.788      9.124
REMARK  5 active torsions:
REMARK  status: ('A' for Active; 'I' for Inactive)
REMARK    1  A    between atoms: C_11  and  C_3 
REMARK    2  A    between atoms: C_12  and  N_5 
REMARK    3  A    between atoms: C_10  and  C_14 
REMARK    4  A    between atoms: O_24  and  C_11 
REMARK    5  A    between atoms: C_25  and  O_24 
ROOT
ATOM      1  C   UNL d   1     -39.102  15.282  20.726  0.00  0.00     0.086 A 
ATOM      2  C   UNL d   1     -38.959  15.376  19.923  0.00  0.00     0.038 A 
ATOM      3  C   UNL d   1     -39.501  15.091  19.370  0.00  0.00     0.165 A 
ATOM      4  C   UNL d   1     -39.791  14.900  20.982  0.00  0.00     0.282 A 
ATOM      5  N   UNL d   1     -40.331  14.615  20.434  0.00  0.00    -0.194 N 
ATOM      6  N   UNL d   1     -40.189  14.709  19.627  0.00  0.00    -0.157 NA
ATOM      7  C   UNL d   1     -38.468  15.621  21.134  0.00  0.00     0.137 A 
ATOM      8  C   UNL d   1     -38.239  15.772  19.839  0.00  0.00     0.039 A 
ATOM      9  S   UNL d   1     -37.941  15.921  20.582  0.00  0.00    -0.066 SA
ATOM     10  O   UNL d   1     -39.938  14.804  21.796  0.00  0.00    -0.265 OA
ATOM     11  N   UNL d   1     -38.364  15.662  21.960  0.00  0.00    -0.141 N 
ENDROOT
BRANCH   5  12
ATOM     12  C   UNL d   1     -41.015  14.236  20.689  0.00  0.00     0.086 A 
ATOM     13  C   UNL d   1     -41.695  14.671  20.842  0.00  0.00     0.019 A 
ATOM     14  C   UNL d   1     -42.386  14.288  21.100  0.00  0.00     0.005 A 
ATOM     15  C   UNL d   1     -42.392  13.472  21.201  0.00  0.00     0.072 A 
ATOM     16  C   UNL d   1     -41.710  13.033  21.047  0.00  0.00     0.005 A 
ATOM     17  C   UNL d   1     -41.019  13.417  20.790  0.00  0.00     0.019 A 
BRANCH  15  18
ATOM     18  C   UNL d   1     -43.076  13.093  21.456  0.00  0.00     0.419 C 
ATOM     19  F   UNL d   1     -43.703  12.749  21.687  0.00  0.00    -0.166 F 
ATOM     20  F   UNL d   1     -43.888  13.363  21.422  0.00  0.00    -0.166 F 
ATOM     21  F   UNL d   1     -43.164  12.327  21.823  0.00  0.00    -0.166 F 
ENDBRANCH  15  18
ENDBRANCH   5  12
BRANCH   3  22
ATOM     22  C   UNL d   1     -39.353  15.188  18.557  0.00  0.00     0.320 C 
ATOM     23  O   UNL d   1     -39.475  15.920  18.205  0.00  0.00    -0.257 OA
BRANCH  22  24
ATOM     24  O   UNL d   1     -39.086  14.549  18.103  0.00  0.00    -0.270 OA
BRANCH  24  25
ATOM     25  C   UNL d   1     -39.184  14.554  17.288  0.00  0.00     0.126 C 
ATOM     26  C   UNL d   1     -38.872  13.936  16.827  0.00  0.00     0.029 C 
ENDBRANCH  24  25
ENDBRANCH  22  24
ENDBRANCH   3  22
TORSDOF 5
ENDMDL
