MODEL 1
REMARK VINA RESULT:      -9.9      0.000      0.000
REMARK  0 active torsions:
REMARK  status: ('A' for Active; 'I' for Inactive)
REMARK       I    between atoms: C_3  and  N_1 
REMARK       I    between atoms: N_6  and  C_3 
ROOT
ATOM      1  N   UNL d   1      53.071  32.357  53.572  0.00  0.00    -0.160 N 
ATOM      2  N   UNL d   1      52.624  32.571  52.928  0.00  0.00    -0.056 NA
ATOM      3  C   UNL d   1      53.355  32.907  54.153  0.00  0.00     0.357 C 
ATOM      4  N   UNL d   1      52.462  31.885  52.501  0.00  0.00    -0.128 NA
ATOM      5  C   UNL d   1      53.190  31.552  53.554  0.00  0.00     0.108 A 
ATOM      6  N   UNL d   1      53.187  33.708  54.093  0.00  0.00    -0.252 N 
ATOM      7  C   UNL d   1      52.812  31.257  52.889  0.00  0.00     0.122 A 
ATOM      8  O   UNL d   1      53.809  32.604  54.786  0.00  0.00    -0.244 OA
ATOM      9  O   UNL d   1      52.848  35.314  53.971  0.00  0.00    -0.300 OA
ATOM     10  C   UNL d   1      53.591  31.050  54.053  0.00  0.00     0.021 A 
ATOM     11  C   UNL d   1      52.728  33.987  53.449  0.00  0.00     0.111 A 
ATOM     12  C   UNL d   1      53.461  34.228  54.653  0.00  0.00     0.111 A 
ATOM     13  C   UNL d   1      52.833  30.445  52.717  0.00  0.00     0.022 A 
ATOM     14  C   UNL d   1      52.558  34.796  53.387  0.00  0.00     0.142 A 
ATOM     15  C   UNL d   1      53.292  35.033  54.592  0.00  0.00     0.142 A 
ATOM     16  C   UNL d   1      53.619  30.240  53.891  0.00  0.00     0.002 A 
ATOM     17  C   UNL d   1      53.245  29.933  53.230  0.00  0.00     0.002 A 
ENDROOT
TORSDOF 0
ENDMDL
MODEL 2
REMARK VINA RESULT:      -9.6      1.138      3.672
REMARK  0 active torsions:
REMARK  status: ('A' for Active; 'I' for Inactive)
REMARK       I    between atoms: C_3  and  N_1 
REMARK       I    between atoms: N_6  and  C_3 
ROOT
ATOM      1  N   UNL d   1      53.139  32.817  53.778  0.00  0.00    -0.160 N 
ATOM      2  N   UNL d   1      53.599  32.605  54.413  0.00  0.00    -0.056 NA
ATOM      3  C   UNL d   1      52.839  32.266  53.207  0.00  0.00     0.357 C 
ATOM      4  N   UNL d   1      53.775  33.294  54.831  0.00  0.00    -0.128 NA
ATOM      5  C   UNL d   1      53.024  33.623  53.794  0.00  0.00     0.108 A 
ATOM      6  N   UNL d   1      53.004  31.464  53.269  0.00  0.00    -0.252 N 
ATOM      7  C   UNL d   1      53.419  33.921  54.448  0.00  0.00     0.122 A 
ATOM      8  O   UNL d   1      52.371  32.566  52.583  0.00  0.00    -0.244 OA
ATOM      9  O   UNL d   1      53.337  29.857  53.393  0.00  0.00    -0.300 OA
ATOM     10  C   UNL d   1      52.614  34.124  53.301  0.00  0.00     0.021 A 
ATOM     11  C   UNL d   1      53.476  31.187  53.905  0.00  0.00     0.111 A 
ATOM     12  C   UNL d   1      52.714  30.942  52.719  0.00  0.00     0.111 A 
ATOM     13  C   UNL d   1      53.406  34.734  54.615  0.00  0.00     0.022 A 
ATOM     14  C   UNL d   1      53.643  30.377  53.967  0.00  0.00     0.142 A 
ATOM     15  C   UNL d   1      52.881  30.136  52.782  0.00  0.00     0.142 A 
ATOM     16  C   UNL d   1      52.595  34.935  53.458  0.00  0.00     0.002 A 
ATOM     17  C   UNL d   1      52.985  35.244  54.108  0.00  0.00     0.002 A 
ENDROOT
TORSDOF 0
ENDMDL
MODEL 3
REMARK VINA RESULT:      -8.2      1.969      2.856
REMARK  0 active torsions:
REMARK  status: ('A' for Active; 'I' for Inactive)
REMARK       I    between atoms: C_3  and  N_1 
REMARK       I    between atoms: N_6  and  C_3 
ROOT
ATOM      1  N   UNL d   1      52.727  33.773  53.682  0.00  0.00    -0.160 N 
ATOM      2  N   UNL d   1      52.459  34.316  54.224  0.00  0.00    -0.056 NA
ATOM      3  C   UNL d   1      52.290  33.536  52.994  0.00  0.00     0.357 C 
ATOM      4  N   UNL d   1      53.040  34.393  54.804  0.00  0.00    -0.128 NA
ATOM      5  C   UNL d   1      53.463  33.511  53.914  0.00  0.00     0.108 A 
ATOM      6  N   UNL d   1      51.550  33.854  52.837  0.00  0.00    -0.252 N 
ATOM      7  C   UNL d   1      53.658  33.895  54.611  0.00  0.00     0.122 A 
ATOM      8  O   UNL d   1      52.638  32.971  52.487  0.00  0.00    -0.244 OA
ATOM      9  O   UNL d   1      50.065  34.492  52.520  0.00  0.00    -0.300 OA
ATOM     10  C   UNL d   1      53.978  32.975  53.584  0.00  0.00     0.021 A 
ATOM     11  C   UNL d   1      51.222  34.420  53.361  0.00  0.00     0.111 A 
ATOM     12  C   UNL d   1      51.136  33.623  52.177  0.00  0.00     0.111 A 
ATOM     13  C   UNL d   1      54.382  33.744  54.988  0.00  0.00     0.022 A 
ATOM     14  C   UNL d   1      50.474  34.741  53.202  0.00  0.00     0.142 A 
ATOM     15  C   UNL d   1      50.392  33.943  52.018  0.00  0.00     0.142 A 
ATOM     16  C   UNL d   1      54.701  32.817  53.951  0.00  0.00     0.002 A 
ATOM     17  C   UNL d   1      54.908  33.194  54.647  0.00  0.00     0.002 A 
ENDROOT
TORSDOF 0
ENDMDL
MODEL 4
REMARK VINA RESULT:      -8.0      1.742      2.931
REMARK  0 active torsions:
REMARK  status: ('A' for Active; 'I' for Inactive)
REMARK       I    between atoms: C_3  and  N_1 
REMARK       I    between atoms: N_6  and  C_3 
ROOT
ATOM      1  N   UNL d   1      52.488  33.753  53.444  0.00  0.00    -0.160 N 
ATOM      2  N   UNL d   1      52.745  33.168  52.941  0.00  0.00    -0.056 NA
ATOM      3  C   UNL d   1      52.932  34.030  54.112  0.00  0.00     0.357 C 
ATOM      4  N   UNL d   1      52.161  33.060  52.369  0.00  0.00    -0.128 NA
ATOM      5  C   UNL d   1      51.756  34.010  53.196  0.00  0.00     0.108 A 
ATOM      6  N   UNL d   1      53.668  33.712  54.290  0.00  0.00    -0.252 N 
ATOM      7  C   UNL d   1      51.552  33.580  52.528  0.00  0.00     0.122 A 
ATOM      8  O   UNL d   1      52.596  34.636  54.579  0.00  0.00    -0.244 OA
ATOM      9  O   UNL d   1      55.142  33.074  54.646  0.00  0.00    -0.300 OA
ATOM     10  C   UNL d   1      51.251  34.576  53.488  0.00  0.00     0.021 A 
ATOM     11  C   UNL d   1      53.984  33.105  53.805  0.00  0.00     0.111 A 
ATOM     12  C   UNL d   1      54.088  33.982  54.930  0.00  0.00     0.111 A 
ATOM     13  C   UNL d   1      50.829  33.717  52.143  0.00  0.00     0.022 A 
ATOM     14  C   UNL d   1      54.727  32.784  53.985  0.00  0.00     0.142 A 
ATOM     15  C   UNL d   1      54.827  33.662  55.109  0.00  0.00     0.142 A 
ATOM     16  C   UNL d   1      50.529  34.721  53.113  0.00  0.00     0.002 A 
ATOM     17  C   UNL d   1      50.314  34.298  52.446  0.00  0.00     0.002 A 
ENDROOT
TORSDOF 0
ENDMDL
