MODEL 1
REMARK VINA RESULT:      44.1      0.000      0.000
REMARK  5 active torsions:
REMARK  status: ('A' for Active; 'I' for Inactive)
REMARK    1  A    between atoms: C_9  and  N_1 
REMARK    2  A    between atoms: C_8  and  C_3 
REMARK       I    between atoms: N_12  and  C_8 
REMARK    3  A    between atoms: C_21  and  C_9 
REMARK    4  A    between atoms: C_20  and  N_12 
REMARK    5  A    between atoms: C_13  and  C_20 
ROOT
ATOM      1  N   UNL d   1      46.430 -17.134  42.406  0.00  0.00    -0.273 N 
ATOM      2  C   UNL d   1      46.214 -16.435  42.771  0.00  0.00     0.177 A 
ATOM      3  C   UNL d   1      46.047 -16.610  43.569  0.00  0.00     0.115 A 
ATOM      4  C   UNL d   1      46.402 -17.741  42.956  0.00  0.00     0.167 A 
ATOM      5  C   UNL d   1      46.164 -17.416  43.678  0.00  0.00     0.123 A 
ATOM      6  N   UNL d   1      46.561 -18.557  42.903  0.00  0.00    -0.225 NA
ATOM      7  N   UNL d   1      46.085 -17.907  44.347  0.00  0.00    -0.241 NA
ATOM      8  C   UNL d   1      46.482 -19.039  43.566  0.00  0.00     0.101 A 
ATOM      9  C   UNL d   1      46.244 -18.714  44.289  0.00  0.00     0.099 A 
ATOM     10  N   UNL d   1      46.168 -15.688  42.420  0.00  0.00    -0.128 N 
ATOM     11  C   UNL d   1      46.165 -19.196  44.954  0.00  0.00     0.021 A 
ATOM     12  C   UNL d   1      46.641 -19.846  43.509  0.00  0.00     0.021 A 
ATOM     13  C   UNL d   1      46.324 -20.005  44.896  0.00  0.00     0.002 A 
ATOM     14  C   UNL d   1      46.562 -20.330  44.174  0.00  0.00     0.002 A 
ENDROOT
BRANCH   3  15
ATOM     15  C   UNL d   1      45.805 -16.067  44.149  0.00  0.00     0.284 C 
ATOM     16  N   UNL d   1      45.422 -15.372  43.929  0.00  0.00    -0.204 NA
ATOM     17  O   UNL d   1      45.952 -16.230  44.950  0.00  0.00    -0.265 OA
BRANCH  16  18
ATOM     18  C   UNL d   1      45.183 -14.832  44.516  0.00  0.00     0.127 C 
BRANCH  18  19
ATOM     19  C   UNL d   1      45.336 -14.023  44.418  0.00  0.00     0.119 A 
ATOM     20  O   UNL d   1      45.001 -13.535  43.839  0.00  0.00    -0.304 OA
ATOM     21  C   UNL d   1      45.307 -12.784  43.948  0.00  0.00     0.123 A 
ATOM     22  C   UNL d   1      45.833 -12.807  44.594  0.00  0.00     0.029 A 
ATOM     23  C   UNL d   1      45.844 -13.571  44.876  0.00  0.00     0.028 A 
ENDBRANCH  18  19
ENDBRANCH  16  18
ENDBRANCH   3  15
BRANCH   1  24
ATOM     24  C   UNL d   1      46.646 -17.214  41.599  0.00  0.00     0.083 C 
BRANCH  24  25
ATOM     25  C   UNL d   1      46.418 -17.883  41.174  0.00  0.00     0.018 A 
ATOM     26  C   UNL d   1      46.209 -18.571  41.571  0.00  0.00     0.002 A 
ATOM     27  C   UNL d   1      45.981 -19.243  41.143  0.00  0.00     0.000 A 
ATOM     28  C   UNL d   1      45.961 -19.225  40.322  0.00  0.00     0.000 A 
ATOM     29  C   UNL d   1      46.173 -18.529  39.922  0.00  0.00     0.000 A 
ATOM     30  C   UNL d   1      46.401 -17.857  40.350  0.00  0.00     0.002 A 
ENDBRANCH  24  25
ENDBRANCH   1  24
TORSDOF 5
ENDMDL
