MODEL 1
REMARK VINA RESULT:      -2.4      0.000      0.000
REMARK  4 active torsions:
REMARK  status: ('A' for Active; 'I' for Inactive)
REMARK    1  A    between atoms: C_5  and  N_1 
REMARK    2  A    between atoms: C_7  and  C_5 
REMARK    3  A    between atoms: O_14  and  C_10 
REMARK    4  A    between atoms: C_17  and  O_14 
ROOT
ATOM      1  N   UNL d   1     -41.400-122.144 -51.419  0.00  0.00    -0.251 N 
ATOM      2  C   UNL d   1     -41.312-121.323 -51.348  0.00  0.00     0.378 A 
ATOM      3  C   UNL d   1     -41.355-122.339 -52.222  0.00  0.00     0.092 A 
ATOM      4  O   UNL d   1     -41.211-121.012 -52.108  0.00  0.00    -0.258 OA
ATOM      5  C   UNL d   1     -41.238-121.640 -52.647  0.00  0.00     0.121 A 
ATOM      6  O   UNL d   1     -41.321-120.891 -50.648  0.00  0.00    -0.237 OA
ATOM      7  C   UNL d   1     -41.405-123.061 -52.610  0.00  0.00     0.020 A 
ATOM      8  C   UNL d   1     -41.172-121.675 -53.472  0.00  0.00     0.026 A 
ATOM      9  C   UNL d   1     -41.339-123.091 -53.427  0.00  0.00     0.002 A 
ATOM     10  C   UNL d   1     -41.222-122.397 -53.859  0.00  0.00     0.002 A 
ATOM     11  C   UNL d   1     -41.390-123.815 -53.818  0.00  0.00     0.000 C 
ENDROOT
BRANCH   1  12
ATOM     12  C   UNL d   1     -41.515-122.702 -50.823  0.00  0.00     0.087 C 
BRANCH  12  13
ATOM     13  C   UNL d   1     -42.210-122.696 -50.375  0.00  0.00     0.041 A 
ATOM     14  C   UNL d   1     -42.203-122.954 -49.605  0.00  0.00     0.102 A 
ATOM     15  C   UNL d   1     -42.891-122.948 -49.163  0.00  0.00     0.025 A 
ATOM     16  C   UNL d   1     -43.594-122.680 -49.496  0.00  0.00     0.002 A 
ATOM     17  C   UNL d   1     -43.601-122.418 -50.279  0.00  0.00     0.000 A 
ATOM     18  C   UNL d   1     -42.903-122.427 -50.719  0.00  0.00     0.004 A 
BRANCH  14  19
ATOM     19  O   UNL d   1     -41.499-123.225 -49.263  0.00  0.00    -0.305 OA
BRANCH  19  20
ATOM     20  C   UNL d   1     -41.384-123.163 -48.448  0.00  0.00     0.123 C 
ATOM     21  C   UNL d   1     -41.123-123.817 -48.014  0.00  0.00     0.029 C 
ENDBRANCH  19  20
ENDBRANCH  14  19
ENDBRANCH  12  13
ENDBRANCH   1  12
TORSDOF 4
ENDMDL
MODEL 2
REMARK VINA RESULT:      -1.4      1.013      3.894
REMARK  4 active torsions:
REMARK  status: ('A' for Active; 'I' for Inactive)
REMARK    1  A    between atoms: C_5  and  N_1 
REMARK    2  A    between atoms: C_7  and  C_5 
REMARK    3  A    between atoms: O_14  and  C_10 
REMARK    4  A    between atoms: C_17  and  O_14 
ROOT
ATOM      1  N   UNL d   1     -42.017-121.960 -51.575  0.00  0.00    -0.251 N 
ATOM      2  C   UNL d   1     -41.458-121.365 -51.432  0.00  0.00     0.378 A 
ATOM      3  C   UNL d   1     -42.199-122.322 -50.854  0.00  0.00     0.092 A 
ATOM      4  O   UNL d   1     -41.296-121.360 -50.621  0.00  0.00    -0.258 OA
ATOM      5  C   UNL d   1     -41.753-121.951 -50.265  0.00  0.00     0.121 A 
ATOM      6  O   UNL d   1     -41.123-120.866 -51.994  0.00  0.00    -0.237 OA
ATOM      7  C   UNL d   1     -42.710-122.936 -50.667  0.00  0.00     0.020 A 
ATOM      8  C   UNL d   1     -41.828-122.207 -49.480  0.00  0.00     0.026 A 
ATOM      9  C   UNL d   1     -42.782-123.186 -49.890  0.00  0.00     0.002 A 
ATOM     10  C   UNL d   1     -42.340-122.821 -49.295  0.00  0.00     0.002 A 
ATOM     11  C   UNL d   1     -43.295-123.803 -49.701  0.00  0.00     0.000 C 
ENDROOT
BRANCH   1  12
ATOM     12  C   UNL d   1     -42.356-122.183 -52.293  0.00  0.00     0.087 C 
BRANCH  12  13
ATOM     13  C   UNL d   1     -41.945-122.677 -52.813  0.00  0.00     0.041 A 
ATOM     14  C   UNL d   1     -41.950-122.526 -53.611  0.00  0.00     0.102 A 
ATOM     15  C   UNL d   1     -41.543-123.016 -54.125  0.00  0.00     0.025 A 
ATOM     16  C   UNL d   1     -41.127-123.664 -53.835  0.00  0.00     0.002 A 
ATOM     17  C   UNL d   1     -41.123-123.817 -53.024  0.00  0.00     0.000 A 
ATOM     18  C   UNL d   1     -41.535-123.320 -52.511  0.00  0.00     0.004 A 
BRANCH  14  19
ATOM     19  O   UNL d   1     -42.366-121.875 -53.909  0.00  0.00    -0.305 OA
BRANCH  19  20
ATOM     20  C   UNL d   1     -42.637-121.880 -54.689  0.00  0.00     0.123 C 
ATOM     21  C   UNL d   1     -42.616-121.187 -55.140  0.00  0.00     0.029 C 
ENDBRANCH  19  20
ENDBRANCH  14  19
ENDBRANCH  12  13
ENDBRANCH   1  12
TORSDOF 4
ENDMDL
MODEL 3
REMARK VINA RESULT:      -0.6      1.416      2.234
REMARK  4 active torsions:
REMARK  status: ('A' for Active; 'I' for Inactive)
REMARK    1  A    between atoms: C_5  and  N_1 
REMARK    2  A    between atoms: C_7  and  C_5 
REMARK    3  A    between atoms: O_14  and  C_10 
REMARK    4  A    between atoms: C_17  and  O_14 
ROOT
ATOM      1  N   UNL d   1     -41.960-122.858 -52.767  0.00  0.00    -0.251 N 
ATOM      2  C   UNL d   1     -41.437-123.484 -52.627  0.00  0.00     0.378 A 
ATOM      3  C   UNL d   1     -41.971-122.707 -53.581  0.00  0.00     0.092 A 
ATOM      4  O   UNL d   1     -41.125-123.721 -53.356  0.00  0.00    -0.258 OA
ATOM      5  C   UNL d   1     -41.456-123.241 -53.943  0.00  0.00     0.121 A 
ATOM      6  O   UNL d   1     -41.256-123.815 -51.896  0.00  0.00    -0.237 OA
ATOM      7  C   UNL d   1     -42.385-122.156 -54.026  0.00  0.00     0.020 A 
ATOM      8  C   UNL d   1     -41.359-123.214 -54.766  0.00  0.00     0.026 A 
ATOM      9  C   UNL d   1     -42.287-122.132 -54.840  0.00  0.00     0.002 A 
ATOM     10  C   UNL d   1     -41.773-122.662 -55.211  0.00  0.00     0.002 A 
ATOM     11  C   UNL d   1     -42.701-121.579 -55.289  0.00  0.00     0.000 C 
ENDROOT
BRANCH   1  12
ATOM     12  C   UNL d   1     -42.409-122.432 -52.221  0.00  0.00     0.087 C 
BRANCH  12  13
ATOM     13  C   UNL d   1     -42.042-122.050 -51.586  0.00  0.00     0.041 A 
ATOM     14  C   UNL d   1     -42.207-122.274 -50.823  0.00  0.00     0.102 A 
ATOM     15  C   UNL d   1     -41.843-121.895 -50.196  0.00  0.00     0.025 A 
ATOM     16  C   UNL d   1     -41.309-121.286 -50.336  0.00  0.00     0.002 A 
ATOM     17  C   UNL d   1     -41.142-121.058 -51.112  0.00  0.00     0.000 A 
ATOM     18  C   UNL d   1     -41.512-121.444 -51.739  0.00  0.00     0.004 A 
BRANCH  14  19
ATOM     19  O   UNL d   1     -42.744-122.887 -50.676  0.00  0.00    -0.305 OA
BRANCH  19  20
ATOM     20  C   UNL d   1     -42.959-123.070 -49.900  0.00  0.00     0.123 C 
ATOM     21  C   UNL d   1     -43.513-123.668 -49.753  0.00  0.00     0.029 C 
ENDBRANCH  19  20
ENDBRANCH  14  19
ENDBRANCH  12  13
ENDBRANCH   1  12
TORSDOF 4
ENDMDL
