MODEL 1
REMARK VINA RESULT:      -2.9      0.000      0.000
REMARK  0 active torsions:
REMARK  status: ('A' for Active; 'I' for Inactive)
ROOT
ATOM      1  N   UNL d   1      32.432  20.797 -21.075  0.00  0.00    -0.152 NA
ATOM      2  C   UNL d   1      32.168  21.565 -20.967  0.00  0.00     0.284 A 
ATOM      3  C   UNL d   1      32.973  20.626 -21.688  0.00  0.00     0.371 A 
ATOM      4  C   UNL d   1      32.435  22.171 -21.462  0.00  0.00     0.076 A 
ATOM      5  N   UNL d   1      33.241  21.232 -22.183  0.00  0.00    -0.191 NA
ATOM      6  C   UNL d   1      32.970  22.008 -22.069  0.00  0.00     0.091 A 
ATOM      7  O   UNL d   1      31.633  21.734 -20.361  0.00  0.00    -0.265 OA
ATOM      8  O   UNL d   1      33.241  19.853 -21.798  0.00  0.00    -0.242 OA
ATOM      9  C   UNL d   1      32.165  22.942 -21.347  0.00  0.00     0.006 A 
ATOM     10  C   UNL d   1      33.234  22.615 -22.561  0.00  0.00     0.019 A 
ATOM     11  C   UNL d   1      32.429  23.549 -21.839  0.00  0.00     0.000 A 
ATOM     12  C   UNL d   1      32.964  23.385 -22.445  0.00  0.00     0.002 A 
ENDROOT
TORSDOF 0
ENDMDL
MODEL 2
REMARK VINA RESULT:      -2.8      1.904      2.769
REMARK  0 active torsions:
REMARK  status: ('A' for Active; 'I' for Inactive)
ROOT
ATOM      1  N   UNL d   1      32.355  23.472 -20.033  0.00  0.00    -0.152 NA
ATOM      2  C   UNL d   1      32.214  22.972 -20.668  0.00  0.00     0.284 A 
ATOM      3  C   UNL d   1      32.796  23.198 -19.379  0.00  0.00     0.371 A 
ATOM      4  C   UNL d   1      32.507  22.198 -20.661  0.00  0.00     0.076 A 
ATOM      5  N   UNL d   1      33.089  22.425 -19.373  0.00  0.00    -0.191 NA
ATOM      6  C   UNL d   1      32.943  21.923 -20.017  0.00  0.00     0.091 A 
ATOM      7  O   UNL d   1      31.778  23.243 -21.315  0.00  0.00    -0.265 OA
ATOM      8  O   UNL d   1      32.940  23.700 -18.739  0.00  0.00    -0.242 OA
ATOM      9  C   UNL d   1      32.360  21.702 -21.303  0.00  0.00     0.006 A 
ATOM     10  C   UNL d   1      33.233  21.151 -20.014  0.00  0.00     0.019 A 
ATOM     11  C   UNL d   1      32.650  20.929 -21.300  0.00  0.00     0.000 A 
ATOM     12  C   UNL d   1      33.087  20.655 -20.656  0.00  0.00     0.002 A 
ENDROOT
TORSDOF 0
ENDMDL
MODEL 3
REMARK VINA RESULT:      -2.8      5.998      6.805
REMARK  0 active torsions:
REMARK  status: ('A' for Active; 'I' for Inactive)
ROOT
ATOM      1  N   UNL d   1      30.165  17.575 -24.861  0.00  0.00    -0.152 NA
ATOM      2  C   UNL d   1      29.413  17.352 -24.623  0.00  0.00     0.284 A 
ATOM      3  C   UNL d   1      30.831  17.159 -24.578  0.00  0.00     0.371 A 
ATOM      4  C   UNL d   1      29.312  16.718 -24.103  0.00  0.00     0.076 A 
ATOM      5  N   UNL d   1      30.729  16.524 -24.057  0.00  0.00    -0.191 NA
ATOM      6  C   UNL d   1      29.966  16.303 -23.820  0.00  0.00     0.091 A 
ATOM      7  O   UNL d   1      28.754  17.764 -24.904  0.00  0.00    -0.265 OA
ATOM      8  O   UNL d   1      31.589  17.381 -24.817  0.00  0.00    -0.242 OA
ATOM      9  C   UNL d   1      28.552  16.500 -23.868  0.00  0.00     0.006 A 
ATOM     10  C   UNL d   1      29.862  15.670 -23.301  0.00  0.00     0.019 A 
ATOM     11  C   UNL d   1      28.447  15.867 -23.349  0.00  0.00     0.000 A 
ATOM     12  C   UNL d   1      29.102  15.453 -23.066  0.00  0.00     0.002 A 
ENDROOT
TORSDOF 0
ENDMDL
MODEL 4
REMARK VINA RESULT:      -2.8      6.324      6.861
REMARK  0 active torsions:
REMARK  status: ('A' for Active; 'I' for Inactive)
ROOT
ATOM      1  N   UNL d   1      28.539  16.933 -24.173  0.00  0.00    -0.152 NA
ATOM      2  C   UNL d   1      28.850  16.313 -23.736  0.00  0.00     0.284 A 
ATOM      3  C   UNL d   1      29.052  17.450 -24.583  0.00  0.00     0.371 A 
ATOM      4  C   UNL d   1      29.668  16.197 -23.699  0.00  0.00     0.076 A 
ATOM      5  N   UNL d   1      29.870  17.334 -24.546  0.00  0.00    -0.191 NA
ATOM      6  C   UNL d   1      30.178  16.705 -24.102  0.00  0.00     0.091 A 
ATOM      7  O   UNL d   1      28.343  15.802 -23.331  0.00  0.00    -0.265 OA
ATOM      8  O   UNL d   1      28.742  18.075 -25.023  0.00  0.00    -0.242 OA
ATOM      9  C   UNL d   1      29.972  15.571 -23.257  0.00  0.00     0.006 A 
ATOM     10  C   UNL d   1      30.994  16.587 -24.064  0.00  0.00     0.019 A 
ATOM     11  C   UNL d   1      30.788  15.452 -23.219  0.00  0.00     0.000 A 
ATOM     12  C   UNL d   1      31.298  15.960 -23.622  0.00  0.00     0.002 A 
ENDROOT
TORSDOF 0
ENDMDL
MODEL 5
REMARK VINA RESULT:      -2.7      6.094      6.683
REMARK  0 active torsions:
REMARK  status: ('A' for Active; 'I' for Inactive)
ROOT
ATOM      1  N   UNL d   1      28.592  16.747 -24.225  0.00  0.00    -0.152 NA
ATOM      2  C   UNL d   1      29.245  17.176 -24.475  0.00  0.00     0.284 A 
ATOM      3  C   UNL d   1      28.698  16.077 -23.738  0.00  0.00     0.371 A 
ATOM      4  C   UNL d   1      30.006  16.947 -24.247  0.00  0.00     0.076 A 
ATOM      5  N   UNL d   1      29.459  15.848 -23.510  0.00  0.00    -0.191 NA
ATOM      6  C   UNL d   1      30.115  16.285 -23.766  0.00  0.00     0.091 A 
ATOM      7  O   UNL d   1      29.141  17.839 -24.956  0.00  0.00    -0.265 OA
ATOM      8  O   UNL d   1      28.042  15.643 -23.485  0.00  0.00    -0.242 OA
ATOM      9  C   UNL d   1      30.658  17.383 -24.502  0.00  0.00     0.006 A 
ATOM     10  C   UNL d   1      30.876  16.059 -23.540  0.00  0.00     0.019 A 
ATOM     11  C   UNL d   1      31.418  17.158 -24.277  0.00  0.00     0.000 A 
ATOM     12  C   UNL d   1      31.527  16.496 -23.796  0.00  0.00     0.002 A 
ENDROOT
TORSDOF 0
ENDMDL
MODEL 6
REMARK VINA RESULT:      -2.5      5.103      5.685
REMARK  0 active torsions:
REMARK  status: ('A' for Active; 'I' for Inactive)
ROOT
ATOM      1  N   UNL d   1      30.218  16.580 -24.163  0.00  0.00    -0.152 NA
ATOM      2  C   UNL d   1      30.611  17.229 -24.473  0.00  0.00     0.284 A 
ATOM      3  C   UNL d   1      30.589  16.110 -23.580  0.00  0.00     0.371 A 
ATOM      4  C   UNL d   1      31.372  17.420 -24.211  0.00  0.00     0.076 A 
ATOM      5  N   UNL d   1      31.349  16.301 -23.319  0.00  0.00    -0.191 NA
ATOM      6  C   UNL d   1      31.742  16.959 -23.636  0.00  0.00     0.091 A 
ATOM      7  O   UNL d   1      30.245  17.694 -25.049  0.00  0.00    -0.265 OA
ATOM      8  O   UNL d   1      30.195  15.456 -23.267  0.00  0.00    -0.242 OA
ATOM      9  C   UNL d   1      31.761  18.075 -24.528  0.00  0.00     0.006 A 
ATOM     10  C   UNL d   1      32.501  17.152 -23.377  0.00  0.00     0.019 A 
ATOM     11  C   UNL d   1      32.520  18.268 -24.269  0.00  0.00     0.000 A 
ATOM     12  C   UNL d   1      32.890  17.807 -23.694  0.00  0.00     0.002 A 
ENDROOT
TORSDOF 0
ENDMDL
MODEL 7
REMARK VINA RESULT:      -2.2      4.660      5.912
REMARK  0 active torsions:
REMARK  status: ('A' for Active; 'I' for Inactive)
ROOT
ATOM      1  N   UNL d   1      31.725  18.232 -24.408  0.00  0.00    -0.152 NA
ATOM      2  C   UNL d   1      31.157  17.642 -24.426  0.00  0.00     0.284 A 
ATOM      3  C   UNL d   1      32.454  18.094 -24.024  0.00  0.00     0.371 A 
ATOM      4  C   UNL d   1      31.302  16.911 -24.066  0.00  0.00     0.076 A 
ATOM      5  N   UNL d   1      32.600  17.364 -23.664  0.00  0.00    -0.191 NA
ATOM      6  C   UNL d   1      32.021  16.771 -23.686  0.00  0.00     0.091 A 
ATOM      7  O   UNL d   1      30.436  17.778 -24.805  0.00  0.00    -0.265 OA
ATOM      8  O   UNL d   1      33.028  18.688 -24.004  0.00  0.00    -0.242 OA
ATOM      9  C   UNL d   1      30.725  16.323 -24.089  0.00  0.00     0.006 A 
ATOM     10  C   UNL d   1      32.163  16.041 -23.328  0.00  0.00     0.019 A 
ATOM     11  C   UNL d   1      30.867  15.593 -23.731  0.00  0.00     0.000 A 
ATOM     12  C   UNL d   1      31.586  15.453 -23.351  0.00  0.00     0.002 A 
ENDROOT
TORSDOF 0
ENDMDL
MODEL 8
REMARK VINA RESULT:      -1.9      3.294      3.971
REMARK  0 active torsions:
REMARK  status: ('A' for Active; 'I' for Inactive)
ROOT
ATOM      1  N   UNL d   1      32.884  17.751 -22.819  0.00  0.00    -0.152 NA
ATOM      2  C   UNL d   1      33.060  18.551 -22.840  0.00  0.00     0.284 A 
ATOM      3  C   UNL d   1      32.705  17.347 -23.528  0.00  0.00     0.371 A 
ATOM      4  C   UNL d   1      33.060  18.960 -23.558  0.00  0.00     0.076 A 
ATOM      5  N   UNL d   1      32.706  17.756 -24.247  0.00  0.00    -0.191 NA
ATOM      6  C   UNL d   1      32.884  18.566 -24.261  0.00  0.00     0.091 A 
ATOM      7  O   UNL d   1      33.237  18.950 -22.138  0.00  0.00    -0.265 OA
ATOM      8  O   UNL d   1      32.528  16.541 -23.511  0.00  0.00    -0.242 OA
ATOM      9  C   UNL d   1      33.238  19.765 -23.570  0.00  0.00     0.006 A 
ATOM     10  C   UNL d   1      32.885  18.976 -24.977  0.00  0.00     0.019 A 
ATOM     11  C   UNL d   1      33.239  20.176 -24.285  0.00  0.00     0.000 A 
ATOM     12  C   UNL d   1      33.063  19.782 -24.988  0.00  0.00     0.002 A 
ENDROOT
TORSDOF 0
ENDMDL
MODEL 9
REMARK VINA RESULT:      -1.7      1.306      2.364
REMARK  0 active torsions:
REMARK  status: ('A' for Active; 'I' for Inactive)
ROOT
ATOM      1  N   UNL d   1      33.219  21.564 -20.751  0.00  0.00    -0.152 NA
ATOM      2  C   UNL d   1      33.216  20.787 -21.012  0.00  0.00     0.284 A 
ATOM      3  C   UNL d   1      33.229  22.188 -21.306  0.00  0.00     0.371 A 
ATOM      4  C   UNL d   1      33.223  20.619 -21.822  0.00  0.00     0.076 A 
ATOM      5  N   UNL d   1      33.236  22.020 -22.115  0.00  0.00    -0.191 NA
ATOM      6  C   UNL d   1      33.233  21.233 -22.374  0.00  0.00     0.091 A 
ATOM      7  O   UNL d   1      33.206  20.170 -20.464  0.00  0.00    -0.265 OA
ATOM      8  O   UNL d   1      33.232  22.972 -21.045  0.00  0.00    -0.242 OA
ATOM      9  C   UNL d   1      33.220  19.835 -22.077  0.00  0.00     0.006 A 
ATOM     10  C   UNL d   1      33.240  21.062 -23.181  0.00  0.00     0.019 A 
ATOM     11  C   UNL d   1      33.227  19.664 -22.884  0.00  0.00     0.000 A 
ATOM     12  C   UNL d   1      33.237  20.277 -23.435  0.00  0.00     0.002 A 
ENDROOT
TORSDOF 0
ENDMDL
