MODEL 1
REMARK VINA RESULT:      -8.8      0.000      0.000
REMARK  4 active torsions:
REMARK  status: ('A' for Active; 'I' for Inactive)
REMARK    1  A    between atoms: C_4  and  C_1 
REMARK       I    between atoms: N_7  and  C_4 
REMARK    2  A    between atoms: C_8  and  N_7 
REMARK    3  A    between atoms: O_21  and  C_13 
REMARK    4  A    between atoms: O_22  and  C_16 
ROOT
ATOM      1  C   UNL d   1     -48.401  11.863  23.302  0.00  0.00     0.263 C 
ATOM      2  N   UNL d   1     -47.799  12.439  23.563  0.00  0.00    -0.209 NA
ATOM      3  O   UNL d   1     -48.409  11.027  23.564  0.00  0.00    -0.270 OA
ENDROOT
BRANCH   1   4
ATOM      4  C   UNL d   1     -49.018  12.043  22.789  0.00  0.00     0.113 A 
ATOM      5  C   UNL d   1     -50.457  12.390  22.372  0.00  0.00     0.025 A 
ATOM      6  C   UNL d   1     -49.654  12.228  22.281  0.00  0.00     0.074 A 
ATOM      7  C   UNL d   1     -50.914  12.550  21.723  0.00  0.00     0.002 C 
ATOM      8  C   UNL d   1     -50.966  12.437  22.998  0.00  0.00     0.002 C 
ATOM      9  C   UNL d   1     -50.121  12.392  21.620  0.00  0.00     0.012 C 
ATOM     10  C   UNL d   1     -49.778  12.176  23.092  0.00  0.00    -0.023 A 
ATOM     11  C   UNL d   1     -49.125  12.177  21.650  0.00  0.00     0.172 A 
ATOM     12  C   UNL d   1     -49.165  11.998  23.582  0.00  0.00    -0.018 A 
ATOM     13  C   UNL d   1     -48.511  11.997  22.157  0.00  0.00     0.024 A 
ATOM     14  O   UNL d   1     -49.205  12.274  20.824  0.00  0.00    -0.291 OA
ENDBRANCH   1   4
BRANCH   2  15
ATOM     15  C   UNL d   1     -47.835  13.262  23.273  0.00  0.00     0.108 A 
ATOM     16  C   UNL d   1     -48.500  13.773  23.531  0.00  0.00     0.045 A 
ATOM     17  C   UNL d   1     -48.536  14.601  23.240  0.00  0.00     0.096 A 
ATOM     18  C   UNL d   1     -47.907  14.908  22.694  0.00  0.00     0.026 A 
ATOM     19  C   UNL d   1     -47.254  14.379  22.450  0.00  0.00     0.028 A 
ATOM     20  C   UNL d   1     -47.217  13.551  22.741  0.00  0.00     0.112 A 
BRANCH  17  21
ATOM     21  O   UNL d   1     -49.189  15.122  23.486  0.00  0.00    -0.328 OA
ATOM     22  C   UNL d   1     -49.425  15.799  22.987  0.00  0.00     0.181 C 
ENDBRANCH  17  21
BRANCH  20  23
ATOM     23  O   UNL d   1     -46.563  13.021  22.498  0.00  0.00    -0.327 OA
ATOM     24  C   UNL d   1     -45.789  13.374  22.289  0.00  0.00     0.181 C 
ENDBRANCH  20  23
ENDBRANCH   2  15
TORSDOF 4
ENDMDL
MODEL 2
REMARK VINA RESULT:      -8.1      1.096      2.435
REMARK  4 active torsions:
REMARK  status: ('A' for Active; 'I' for Inactive)
REMARK    1  A    between atoms: C_4  and  C_1 
REMARK       I    between atoms: N_7  and  C_4 
REMARK    2  A    between atoms: C_8  and  N_7 
REMARK    3  A    between atoms: O_21  and  C_13 
REMARK    4  A    between atoms: O_22  and  C_16 
ROOT
ATOM      1  C   UNL d   1     -50.050  13.184  21.367  0.00  0.00     0.263 C 
ATOM      2  N   UNL d   1     -49.650  13.958  21.312  0.00  0.00    -0.209 NA
ATOM      3  O   UNL d   1     -50.673  12.926  20.809  0.00  0.00    -0.270 OA
ENDROOT
BRANCH   1   4
ATOM      4  C   UNL d   1     -49.883  12.622  21.943  0.00  0.00     0.113 A 
ATOM      5  C   UNL d   1     -50.063  11.848  23.260  0.00  0.00     0.025 A 
ATOM      6  C   UNL d   1     -49.727  12.056  22.537  0.00  0.00     0.074 A 
ATOM      7  C   UNL d   1     -49.744  11.245  23.697  0.00  0.00     0.002 C 
ATOM      8  C   UNL d   1     -50.691  12.108  23.698  0.00  0.00     0.002 C 
ATOM      9  C   UNL d   1     -49.402  11.442  22.984  0.00  0.00     0.012 C 
ATOM     10  C   UNL d   1     -50.360  12.574  22.620  0.00  0.00    -0.023 A 
ATOM     11  C   UNL d   1     -49.089  11.799  22.082  0.00  0.00     0.172 A 
ATOM     12  C   UNL d   1     -50.511  13.119  22.048  0.00  0.00    -0.018 A 
ATOM     13  C   UNL d   1     -49.252  12.357  21.509  0.00  0.00     0.024 A 
ATOM     14  O   UNL d   1     -48.513  11.202  22.185  0.00  0.00    -0.291 OA
ENDBRANCH   1   4
BRANCH   2  15
ATOM     15  C   UNL d   1     -49.035  14.169  21.894  0.00  0.00     0.108 A 
ATOM     16  C   UNL d   1     -48.253  13.773  21.847  0.00  0.00     0.045 A 
ATOM     17  C   UNL d   1     -47.634  13.984  22.432  0.00  0.00     0.096 A 
ATOM     18  C   UNL d   1     -47.802  14.590  23.058  0.00  0.00     0.026 A 
ATOM     19  C   UNL d   1     -48.589  14.972  23.086  0.00  0.00     0.028 A 
ATOM     20  C   UNL d   1     -49.209  14.760  22.501  0.00  0.00     0.112 A 
BRANCH  17  21
ATOM     21  O   UNL d   1     -46.853  13.600  22.398  0.00  0.00    -0.328 OA
ATOM     22  C   UNL d   1     -46.213  13.854  22.936  0.00  0.00     0.181 C 
ENDBRANCH  17  21
BRANCH  20  23
ATOM     23  O   UNL d   1     -49.997  15.143  22.528  0.00  0.00    -0.327 OA
ATOM     24  C   UNL d   1     -50.114  15.832  23.056  0.00  0.00     0.181 C 
ENDBRANCH  20  23
ENDBRANCH   2  15
TORSDOF 4
ENDMDL
MODEL 3
REMARK VINA RESULT:      -6.8      1.206      1.776
REMARK  4 active torsions:
REMARK  status: ('A' for Active; 'I' for Inactive)
REMARK    1  A    between atoms: C_4  and  C_1 
REMARK       I    between atoms: N_7  and  C_4 
REMARK    2  A    between atoms: C_8  and  N_7 
REMARK    3  A    between atoms: O_21  and  C_13 
REMARK    4  A    between atoms: O_22  and  C_16 
ROOT
ATOM      1  C   UNL d   1     -50.131  12.197  23.347  0.00  0.00     0.263 C 
ATOM      2  N   UNL d   1     -49.310  12.042  23.604  0.00  0.00    -0.209 NA
ATOM      3  O   UNL d   1     -50.826  11.797  23.698  0.00  0.00    -0.270 OA
ENDROOT
BRANCH   1   4
ATOM      4  C   UNL d   1     -50.333  12.730  22.754  0.00  0.00     0.113 A 
ATOM      5  C   UNL d   1     -50.844  14.048  22.150  0.00  0.00     0.025 A 
ATOM      6  C   UNL d   1     -50.542  13.282  22.163  0.00  0.00     0.074 A 
ATOM      7  C   UNL d   1     -50.980  14.417  21.442  0.00  0.00     0.002 C 
ATOM      8  C   UNL d   1     -51.064  14.589  22.708  0.00  0.00     0.002 C 
ATOM      9  C   UNL d   1     -50.682  13.659  21.442  0.00  0.00     0.012 C 
ATOM     10  C   UNL d   1     -50.629  13.477  22.958  0.00  0.00    -0.023 A 
ATOM     11  C   UNL d   1     -50.314  12.722  21.602  0.00  0.00     0.172 A 
ATOM     12  C   UNL d   1     -50.428  12.945  23.527  0.00  0.00    -0.018 A 
ATOM     13  C   UNL d   1     -50.113  12.191  22.189  0.00  0.00     0.024 A 
ATOM     14  O   UNL d   1     -50.302  12.718  20.766  0.00  0.00    -0.291 OA
ENDBRANCH   1   4
BRANCH   2  15
ATOM     15  C   UNL d   1     -48.651  12.467  23.221  0.00  0.00     0.108 A 
ATOM     16  C   UNL d   1     -48.548  13.324  23.382  0.00  0.00     0.045 A 
ATOM     17  C   UNL d   1     -47.885  13.751  22.998  0.00  0.00     0.096 A 
ATOM     18  C   UNL d   1     -47.330  13.318  22.457  0.00  0.00     0.026 A 
ATOM     19  C   UNL d   1     -47.452  12.463  22.312  0.00  0.00     0.028 A 
ATOM     20  C   UNL d   1     -48.116  12.036  22.696  0.00  0.00     0.112 A 
BRANCH  17  21
ATOM     21  O   UNL d   1     -47.769  14.602  23.147  0.00  0.00    -0.328 OA
ATOM     22  C   UNL d   1     -47.510  15.131  22.502  0.00  0.00     0.181 C 
ENDBRANCH  17  21
BRANCH  20  23
ATOM     23  O   UNL d   1     -48.238  11.180  22.551  0.00  0.00    -0.327 OA
ATOM     24  C   UNL d   1     -47.547  10.684  22.342  0.00  0.00     0.181 C 
ENDBRANCH  20  23
ENDBRANCH   2  15
TORSDOF 4
ENDMDL
MODEL 4
REMARK VINA RESULT:      -6.0      8.042      9.923
REMARK  4 active torsions:
REMARK  status: ('A' for Active; 'I' for Inactive)
REMARK    1  A    between atoms: C_4  and  C_1 
REMARK       I    between atoms: N_7  and  C_4 
REMARK    2  A    between atoms: C_8  and  N_7 
REMARK    3  A    between atoms: O_21  and  C_13 
REMARK    4  A    between atoms: O_22  and  C_16 
ROOT
ATOM      1  C   UNL d   1     -38.862  15.406  20.113  0.00  0.00     0.263 C 
ATOM      2  N   UNL d   1     -38.614  15.410  19.276  0.00  0.00    -0.209 NA
ATOM      3  O   UNL d   1     -38.362  15.716  20.762  0.00  0.00    -0.270 OA
ENDROOT
BRANCH   1   4
ATOM      4  C   UNL d   1     -39.584  15.114  20.376  0.00  0.00     0.113 A 
ATOM      5  C   UNL d   1     -41.056  15.167  20.819  0.00  0.00     0.025 A 
ATOM      6  C   UNL d   1     -40.324  14.833  20.643  0.00  0.00     0.074 A 
ATOM      7  C   UNL d   1     -41.665  14.698  21.073  0.00  0.00     0.002 C 
ATOM      8  C   UNL d   1     -41.366  15.914  20.804  0.00  0.00     0.002 C 
ATOM      9  C   UNL d   1     -40.946  14.356  20.903  0.00  0.00     0.012 C 
ATOM     10  C   UNL d   1     -40.219  15.635  20.494  0.00  0.00    -0.023 A 
ATOM     11  C   UNL d   1     -39.998  14.076  20.654  0.00  0.00     0.172 A 
ATOM     12  C   UNL d   1     -39.506  15.906  20.237  0.00  0.00    -0.018 A 
ATOM     13  C   UNL d   1     -39.280  14.363  20.393  0.00  0.00     0.024 A 
ATOM     14  O   UNL d   1     -40.299  13.322  20.856  0.00  0.00    -0.291 OA
ENDBRANCH   1   4
BRANCH   2  15
ATOM     15  C   UNL d   1     -39.150  15.090  18.665  0.00  0.00     0.108 A 
ATOM     16  C   UNL d   1     -39.862  15.550  18.442  0.00  0.00     0.045 A 
ATOM     17  C   UNL d   1     -40.401  15.228  17.828  0.00  0.00     0.096 A 
ATOM     18  C   UNL d   1     -40.222  14.448  17.444  0.00  0.00     0.026 A 
ATOM     19  C   UNL d   1     -39.505  14.006  17.683  0.00  0.00     0.028 A 
ATOM     20  C   UNL d   1     -38.966  14.329  18.297  0.00  0.00     0.112 A 
BRANCH  17  21
ATOM     21  O   UNL d   1     -41.112  15.673  17.595  0.00  0.00    -0.328 OA
ATOM     22  C   UNL d   1     -41.358  15.704  16.757  0.00  0.00     0.181 C 
ENDBRANCH  17  21
BRANCH  20  23
ATOM     23  O   UNL d   1     -38.248  13.886  18.537  0.00  0.00    -0.327 OA
ATOM     24  C   UNL d   1     -37.940  13.261  18.007  0.00  0.00     0.181 C 
ENDBRANCH  20  23
ENDBRANCH   2  15
TORSDOF 4
ENDMDL
MODEL 5
REMARK VINA RESULT:      -5.8      7.657     10.321
REMARK  4 active torsions:
REMARK  status: ('A' for Active; 'I' for Inactive)
REMARK    1  A    between atoms: C_4  and  C_1 
REMARK       I    between atoms: N_7  and  C_4 
REMARK    2  A    between atoms: C_8  and  N_7 
REMARK    3  A    between atoms: O_21  and  C_13 
REMARK    4  A    between atoms: O_22  and  C_16 
ROOT
ATOM      1  C   UNL d   1     -40.745  15.252  18.257  0.00  0.00     0.263 C 
ATOM      2  N   UNL d   1     -40.906  15.395  19.103  0.00  0.00    -0.209 NA
ATOM      3  O   UNL d   1     -41.273  15.531  17.616  0.00  0.00    -0.270 OA
ENDROOT
BRANCH   1   4
ATOM      4  C   UNL d   1     -40.088  14.845  17.977  0.00  0.00     0.113 A 
ATOM      5  C   UNL d   1     -38.686  14.666  17.372  0.00  0.00     0.025 A 
ATOM      6  C   UNL d   1     -39.413  14.446  17.690  0.00  0.00     0.074 A 
ATOM      7  C   UNL d   1     -38.153  14.098  17.148  0.00  0.00     0.002 C 
ATOM      8  C   UNL d   1     -38.320  15.367  17.205  0.00  0.00     0.002 C 
ATOM      9  C   UNL d   1     -38.869  13.868  17.461  0.00  0.00     0.012 C 
ATOM     10  C   UNL d   1     -39.436  15.268  17.689  0.00  0.00    -0.023 A 
ATOM     11  C   UNL d   1     -39.797  13.736  17.864  0.00  0.00     0.172 A 
ATOM     12  C   UNL d   1     -40.086  15.653  17.966  0.00  0.00    -0.018 A 
ATOM     13  C   UNL d   1     -40.450  14.138  18.142  0.00  0.00     0.024 A 
ATOM     14  O   UNL d   1     -39.583  12.932  17.781  0.00  0.00    -0.291 OA
ENDBRANCH   1   4
BRANCH   2  15
ATOM     15  C   UNL d   1     -40.349  15.096  19.705  0.00  0.00     0.108 A 
ATOM     16  C   UNL d   1     -39.566  15.483  19.788  0.00  0.00     0.045 A 
ATOM     17  C   UNL d   1     -39.006  15.183  20.393  0.00  0.00     0.096 A 
ATOM     18  C   UNL d   1     -39.234  14.497  20.909  0.00  0.00     0.026 A 
ATOM     19  C   UNL d   1     -40.021  14.127  20.808  0.00  0.00     0.028 A 
ATOM     20  C   UNL d   1     -40.581  14.428  20.203  0.00  0.00     0.112 A 
BRANCH  17  21
ATOM     21  O   UNL d   1     -38.225  15.556  20.488  0.00  0.00    -0.328 OA
ATOM     22  C   UNL d   1     -37.968  15.846  21.271  0.00  0.00     0.181 C 
ENDBRANCH  17  21
BRANCH  20  23
ATOM     23  O   UNL d   1     -41.369  14.057  20.101  0.00  0.00    -0.327 OA
ATOM     24  C   UNL d   1     -41.808  13.796  20.813  0.00  0.00     0.181 C 
ENDBRANCH  20  23
ENDBRANCH   2  15
TORSDOF 4
ENDMDL
