MODEL 1
REMARK VINA RESULT:      -1.1      0.000      0.000
REMARK  3 active torsions:
REMARK  status: ('A' for Active; 'I' for Inactive)
REMARK    1  A    between atoms: C_5  and  C_1 
REMARK    2  A    between atoms: C_4  and  C_2 
REMARK       I    between atoms: N_8  and  C_4 
REMARK    3  A    between atoms: C_10  and  N_8 
ROOT
ATOM      1  C   UNL d   1      32.202  17.440 -24.173  0.00  0.00     0.118 A 
ATOM      2  C   UNL d   1      31.426  17.506 -24.451  0.00  0.00     0.103 A 
ATOM      3  N   UNL d   1      32.570  18.161 -24.319  0.00  0.00    -0.126 NA
ATOM      4  O   UNL d   1      32.038  18.668 -24.680  0.00  0.00    -0.211 OA
ATOM      5  C   UNL d   1      31.327  18.259 -24.761  0.00  0.00     0.131 A 
ATOM      6  C   UNL d   1      30.628  18.550 -25.097  0.00  0.00     0.029 C 
ENDROOT
BRANCH   2   7
ATOM      7  C   UNL d   1      30.853  16.908 -24.418  0.00  0.00     0.283 C 
ATOM      8  N   UNL d   1      30.160  17.031 -23.987  0.00  0.00    -0.204 NA
ATOM      9  O   UNL d   1      30.987  16.204 -24.816  0.00  0.00    -0.265 OA
BRANCH   8  10
ATOM     10  C   UNL d   1      29.592  16.439 -23.954  0.00  0.00     0.130 A 
ATOM     11  C   UNL d   1      29.202  16.187 -23.278  0.00  0.00     0.243 A 
ATOM     12  S   UNL d   1      28.677  15.581 -23.490  0.00  0.00    -0.044 SA
ATOM     13  O   UNL d   1      29.307  16.478 -22.519  0.00  0.00    -0.278 OA
ATOM     14  C   UNL d   1      28.744  15.460 -24.300  0.00  0.00     0.040 A 
ATOM     15  C   UNL d   1      29.315  15.995 -24.592  0.00  0.00     0.030 A 
ENDBRANCH   8  10
ENDBRANCH   2   7
BRANCH   1  16
ATOM     16  C   UNL d   1      32.543  16.785 -23.820  0.00  0.00     0.058 A 
ATOM     17  C   UNL d   1      32.669  16.767 -22.998  0.00  0.00     0.142 A 
ATOM     18  F   UNL d   1      32.445  17.419 -22.545  0.00  0.00    -0.204 F 
ATOM     19  C   UNL d   1      33.011  16.106 -22.657  0.00  0.00     0.030 A 
ATOM     20  C   UNL d   1      33.232  15.457 -23.115  0.00  0.00     0.003 A 
ATOM     21  C   UNL d   1      33.105  15.477 -23.938  0.00  0.00     0.012 A 
ATOM     22  C   UNL d   1      32.762  16.139 -24.286  0.00  0.00     0.061 A 
ATOM     23 CL   UNL d   1      32.753  15.900 -25.088  0.00  0.00    -0.082 Cl
ENDBRANCH   1  16
TORSDOF 3
ENDMDL
MODEL 2
REMARK VINA RESULT:      -1.0      1.968      3.682
REMARK  3 active torsions:
REMARK  status: ('A' for Active; 'I' for Inactive)
REMARK    1  A    between atoms: C_5  and  C_1 
REMARK    2  A    between atoms: C_4  and  C_2 
REMARK       I    between atoms: N_8  and  C_4 
REMARK    3  A    between atoms: C_10  and  N_8 
ROOT
ATOM      1  C   UNL d   1      31.153  16.346 -24.463  0.00  0.00     0.118 A 
ATOM      2  C   UNL d   1      31.902  16.483 -24.141  0.00  0.00     0.103 A 
ATOM      3  N   UNL d   1      31.236  15.734 -25.006  0.00  0.00    -0.126 NA
ATOM      4  O   UNL d   1      32.017  15.492 -25.025  0.00  0.00    -0.211 OA
ATOM      5  C   UNL d   1      32.430  15.960 -24.486  0.00  0.00     0.131 A 
ATOM      6  C   UNL d   1      33.240  15.916 -24.316  0.00  0.00     0.029 C 
ENDROOT
BRANCH   2   7
ATOM      7  C   UNL d   1      32.080  17.055 -23.567  0.00  0.00     0.283 C 
ATOM      8  N   UNL d   1      32.738  17.540 -23.666  0.00  0.00    -0.204 NA
ATOM      9  O   UNL d   1      31.594  17.125 -22.910  0.00  0.00    -0.265 OA
BRANCH   8  10
ATOM     10  C   UNL d   1      32.914  18.107 -23.097  0.00  0.00     0.130 A 
ATOM     11  C   UNL d   1      33.104  18.892 -23.247  0.00  0.00     0.243 A 
ATOM     12  S   UNL d   1      33.241  19.268 -22.520  0.00  0.00    -0.044 SA
ATOM     13  O   UNL d   1      33.152  19.249 -23.982  0.00  0.00    -0.278 OA
ATOM     14  C   UNL d   1      33.135  18.714 -21.924  0.00  0.00     0.040 A 
ATOM     15  C   UNL d   1      32.931  17.988 -22.282  0.00  0.00     0.030 A 
ENDBRANCH   8  10
ENDBRANCH   2   7
BRANCH   1  16
ATOM     16  C   UNL d   1      30.460  16.740 -24.279  0.00  0.00     0.058 A 
ATOM     17  C   UNL d   1      30.310  17.496 -24.591  0.00  0.00     0.142 A 
ATOM     18  F   UNL d   1      30.869  17.842 -25.089  0.00  0.00    -0.204 F 
ATOM     19  C   UNL d   1      29.612  17.880 -24.400  0.00  0.00     0.030 A 
ATOM     20  C   UNL d   1      29.056  17.531 -23.902  0.00  0.00     0.003 A 
ATOM     21  C   UNL d   1      29.209  16.773 -23.590  0.00  0.00     0.012 A 
ATOM     22  C   UNL d   1      29.907  16.383 -23.779  0.00  0.00     0.061 A 
ATOM     23 CL   UNL d   1      29.805  15.673 -23.348  0.00  0.00    -0.082 Cl
ENDBRANCH   1  16
TORSDOF 3
ENDMDL
MODEL 3
REMARK VINA RESULT:      -0.6      1.919      3.732
REMARK  3 active torsions:
REMARK  status: ('A' for Active; 'I' for Inactive)
REMARK    1  A    between atoms: C_5  and  C_1 
REMARK    2  A    between atoms: C_4  and  C_2 
REMARK       I    between atoms: N_8  and  C_4 
REMARK    3  A    between atoms: C_10  and  N_8 
ROOT
ATOM      1  C   UNL d   1      29.748  16.357 -23.330  0.00  0.00     0.118 A 
ATOM      2  C   UNL d   1      30.567  16.249 -23.305  0.00  0.00     0.103 A 
ATOM      3  N   UNL d   1      29.427  15.879 -22.743  0.00  0.00    -0.126 NA
ATOM      4  O   UNL d   1      30.029  15.480 -22.358  0.00  0.00    -0.211 OA
ATOM      5  C   UNL d   1      30.738  15.713 -22.710  0.00  0.00     0.131 A 
ATOM      6  C   UNL d   1      31.497  15.453 -22.503  0.00  0.00     0.029 C 
ENDROOT
BRANCH   2   7
ATOM      7  C   UNL d   1      31.115  16.625 -23.801  0.00  0.00     0.283 C 
ATOM      8  N   UNL d   1      31.519  17.291 -23.532  0.00  0.00    -0.204 NA
ATOM      9  O   UNL d   1      31.243  16.325 -24.553  0.00  0.00    -0.265 OA
BRANCH   8  10
ATOM     10  C   UNL d   1      32.062  17.663 -24.024  0.00  0.00     0.130 A 
ATOM     11  C   UNL d   1      32.478  18.348 -23.846  0.00  0.00     0.243 A 
ATOM     12  S   UNL d   1      32.964  18.532 -24.493  0.00  0.00    -0.044 SA
ATOM     13  O   UNL d   1      32.429  18.780 -23.152  0.00  0.00    -0.278 OA
ATOM     14  C   UNL d   1      32.845  17.960 -25.069  0.00  0.00     0.040 A 
ATOM     15  C   UNL d   1      32.283  17.416 -24.779  0.00  0.00     0.030 A 
ENDBRANCH   8  10
ENDBRANCH   2   7
BRANCH   1  16
ATOM     16  C   UNL d   1      29.332  16.844 -23.839  0.00  0.00     0.058 A 
ATOM     17  C   UNL d   1      29.139  17.621 -23.615  0.00  0.00     0.142 A 
ATOM     18  F   UNL d   1      29.374  17.894 -22.873  0.00  0.00    -0.204 F 
ATOM     19  C   UNL d   1      28.723  18.099 -24.134  0.00  0.00     0.030 A 
ATOM     20  C   UNL d   1      28.491  17.823 -24.874  0.00  0.00     0.003 A 
ATOM     21  C   UNL d   1      28.684  17.043 -25.097  0.00  0.00     0.012 A 
ATOM     22  C   UNL d   1      29.102  16.559 -24.580  0.00  0.00     0.061 A 
ATOM     23 CL   UNL d   1      29.158  15.861 -25.039  0.00  0.00    -0.082 Cl
ENDBRANCH   1  16
TORSDOF 3
ENDMDL
MODEL 4
REMARK VINA RESULT:      -0.5      2.085      3.751
REMARK  3 active torsions:
REMARK  status: ('A' for Active; 'I' for Inactive)
REMARK    1  A    between atoms: C_5  and  C_1 
REMARK    2  A    between atoms: C_4  and  C_2 
REMARK       I    between atoms: N_8  and  C_4 
REMARK    3  A    between atoms: C_10  and  N_8 
ROOT
ATOM      1  C   UNL d   1      30.877  16.276 -23.547  0.00  0.00     0.118 A 
ATOM      2  C   UNL d   1      31.666  16.522 -23.581  0.00  0.00     0.103 A 
ATOM      3  N   UNL d   1      30.851  15.626 -23.045  0.00  0.00    -0.126 NA
ATOM      4  O   UNL d   1      31.605  15.465 -22.770  0.00  0.00    -0.211 OA
ATOM      5  C   UNL d   1      32.110  16.024 -23.105  0.00  0.00     0.131 A 
ATOM      6  C   UNL d   1      32.929  16.080 -22.986  0.00  0.00     0.029 C 
ENDROOT
BRANCH   2   7
ATOM      7  C   UNL d   1      31.950  17.163 -24.024  0.00  0.00     0.283 C 
ATOM      8  N   UNL d   1      32.276  17.813 -23.636  0.00  0.00    -0.204 NA
ATOM      9  O   UNL d   1      31.901  17.136 -24.842  0.00  0.00    -0.265 OA
BRANCH   8  10
ATOM     10  C   UNL d   1      32.557  18.449 -24.075  0.00  0.00     0.130 A 
ATOM     11  C   UNL d   1      32.764  19.183 -23.774  0.00  0.00     0.243 A 
ATOM     12  S   UNL d   1      33.019  19.660 -24.404  0.00  0.00    -0.044 SA
ATOM     13  O   UNL d   1      32.729  19.415 -22.989  0.00  0.00    -0.278 OA
ATOM     14  C   UNL d   1      32.968  19.216 -25.093  0.00  0.00     0.040 A 
ATOM     15  C   UNL d   1      32.680  18.460 -24.890  0.00  0.00     0.030 A 
ENDBRANCH   8  10
ENDBRANCH   2   7
BRANCH   1  16
ATOM     16  C   UNL d   1      30.241  16.614 -23.937  0.00  0.00     0.058 A 
ATOM     17  C   UNL d   1      30.042  16.372 -24.707  0.00  0.00     0.142 A 
ATOM     18  F   UNL d   1      30.495  15.787 -25.072  0.00  0.00    -0.204 F 
ATOM     19  C   UNL d   1      29.404  16.717 -25.086  0.00  0.00     0.030 A 
ATOM     20  C   UNL d   1      28.954  17.301 -24.717  0.00  0.00     0.003 A 
ATOM     21  C   UNL d   1      29.155  17.542 -23.945  0.00  0.00     0.012 A 
ATOM     22  C   UNL d   1      29.796  17.198 -23.560  0.00  0.00     0.061 A 
ATOM     23 CL   UNL d   1      29.771  17.610 -22.831  0.00  0.00    -0.082 Cl
ENDBRANCH   1  16
TORSDOF 3
ENDMDL
