MODEL 1
REMARK VINA RESULT:      -5.8      0.000      0.000
REMARK  1 active torsions:
REMARK  status: ('A' for Active; 'I' for Inactive)
REMARK    1  A    between atoms: C_6  and  C_2 
ROOT
ATOM      1  C   UNL d   1     -41.519-122.628 -52.732  0.00  0.00     0.018 A 
ATOM      2  C   UNL d   1     -41.895-122.060 -53.206  0.00  0.00     0.002 A 
ATOM      3  C   UNL d   1     -41.885-122.137 -54.031  0.00  0.00     0.000 A 
ATOM      4  C   UNL d   1     -41.140-123.260 -53.078  0.00  0.00     0.002 A 
ATOM      5  C   UNL d   1     -41.494-122.791 -54.388  0.00  0.00     0.000 A 
ATOM      6  C   UNL d   1     -41.123-123.350 -53.910  0.00  0.00     0.000 A 
ATOM      7  C   UNL d   1     -42.259-121.573 -54.496  0.00  0.00     0.000 A 
ATOM      8  C   UNL d   1     -41.486-122.863 -55.200  0.00  0.00     0.000 A 
ATOM      9  C   UNL d   1     -42.249-121.650 -55.321  0.00  0.00     0.000 A 
ATOM     10  C   UNL d   1     -41.870-122.283 -55.667  0.00  0.00     0.000 A 
ENDROOT
BRANCH   1  11
ATOM     11  C   UNL d   1     -41.530-122.549 -51.910  0.00  0.00     0.090 A 
ATOM     12  N   UNL d   1     -41.889-122.983 -51.347  0.00  0.00    -0.219 NA
ATOM     13  C   UNL d   1     -41.710-122.651 -50.613  0.00  0.00     0.215 A 
ATOM     14  S   UNL d   1     -41.226-121.995 -50.763  0.00  0.00    -0.045 SA
ATOM     15  N   UNL d   1     -41.970-122.924 -49.855  0.00  0.00    -0.120 N 
ATOM     16  C   UNL d   1     -41.123-121.942 -51.552  0.00  0.00     0.058 A 
ENDBRANCH   1  11
TORSDOF 1
ENDMDL
MODEL 2
REMARK VINA RESULT:      -5.7      1.832      3.733
REMARK  1 active torsions:
REMARK  status: ('A' for Active; 'I' for Inactive)
REMARK    1  A    between atoms: C_6  and  C_2 
ROOT
ATOM      1  C   UNL d   1     -41.507-122.379 -52.862  0.00  0.00     0.018 A 
ATOM      2  C   UNL d   1     -41.528-123.095 -52.444  0.00  0.00     0.002 A 
ATOM      3  C   UNL d   1     -41.401-123.101 -51.625  0.00  0.00     0.000 A 
ATOM      4  C   UNL d   1     -41.360-121.682 -52.468  0.00  0.00     0.002 A 
ATOM      5  C   UNL d   1     -41.249-122.381 -51.218  0.00  0.00     0.000 A 
ATOM      6  C   UNL d   1     -41.230-121.674 -51.641  0.00  0.00     0.000 A 
ATOM      7  C   UNL d   1     -41.423-123.812 -51.216  0.00  0.00     0.000 A 
ATOM      8  C   UNL d   1     -41.124-122.391 -50.412  0.00  0.00     0.000 A 
ATOM      9  C   UNL d   1     -41.295-123.817 -50.397  0.00  0.00     0.000 A 
ATOM     10  C   UNL d   1     -41.149-123.120 -50.003  0.00  0.00     0.000 A 
ENDROOT
BRANCH   1  11
ATOM     11  C   UNL d   1     -41.634-122.376 -53.678  0.00  0.00     0.090 A 
ATOM     12  N   UNL d   1     -42.193-122.019 -54.120  0.00  0.00    -0.219 NA
ATOM     13  C   UNL d   1     -42.054-122.206 -54.911  0.00  0.00     0.215 A 
ATOM     14  S   UNL d   1     -41.383-122.693 -54.923  0.00  0.00    -0.045 SA
ATOM     15  N   UNL d   1     -42.506-121.952 -55.580  0.00  0.00    -0.120 N 
ATOM     16  C   UNL d   1     -41.136-122.789 -54.171  0.00  0.00     0.058 A 
ENDBRANCH   1  11
TORSDOF 1
ENDMDL
MODEL 3
REMARK VINA RESULT:      -5.2      1.906      4.774
REMARK  1 active torsions:
REMARK  status: ('A' for Active; 'I' for Inactive)
REMARK    1  A    between atoms: C_6  and  C_2 
ROOT
ATOM      1  C   UNL d   1     -41.920-122.872 -50.286  0.00  0.00     0.018 A 
ATOM      2  C   UNL d   1     -41.393-123.171 -49.720  0.00  0.00     0.002 A 
ATOM      3  C   UNL d   1     -41.658-123.327 -48.949  0.00  0.00     0.000 A 
ATOM      4  C   UNL d   1     -42.697-122.731 -50.085  0.00  0.00     0.002 A 
ATOM      5  C   UNL d   1     -42.460-123.181 -48.742  0.00  0.00     0.000 A 
ATOM      6  C   UNL d   1     -42.976-122.883 -49.311  0.00  0.00     0.000 A 
ATOM      7  C   UNL d   1     -41.133-123.623 -48.392  0.00  0.00     0.000 A 
ATOM      8  C   UNL d   1     -42.715-123.335 -47.983  0.00  0.00     0.000 A 
ATOM      9  C   UNL d   1     -41.397-123.778 -47.622  0.00  0.00     0.000 A 
ATOM     10  C   UNL d   1     -42.173-123.637 -47.421  0.00  0.00     0.000 A 
ENDROOT
BRANCH   1  11
ATOM     11  C   UNL d   1     -41.655-122.718 -51.053  0.00  0.00     0.090 A 
ATOM     12  N   UNL d   1     -41.588-123.193 -51.689  0.00  0.00    -0.219 NA
ATOM     13  C   UNL d   1     -41.290-122.744 -52.314  0.00  0.00     0.215 A 
ATOM     14  S   UNL d   1     -41.181-121.976 -52.022  0.00  0.00    -0.045 SA
ATOM     15  N   UNL d   1     -41.127-123.013 -53.100  0.00  0.00    -0.120 N 
ATOM     16  C   UNL d   1     -41.405-121.971 -51.257  0.00  0.00     0.058 A 
ENDBRANCH   1  11
TORSDOF 1
ENDMDL
MODEL 4
REMARK VINA RESULT:      -4.4      1.921      2.924
REMARK  1 active torsions:
REMARK  status: ('A' for Active; 'I' for Inactive)
REMARK    1  A    between atoms: C_6  and  C_2 
ROOT
ATOM      1  C   UNL d   1     -41.772-123.135 -49.999  0.00  0.00     0.018 A 
ATOM      2  C   UNL d   1     -41.716-122.397 -50.375  0.00  0.00     0.002 A 
ATOM      3  C   UNL d   1     -41.517-122.356 -51.179  0.00  0.00     0.000 A 
ATOM      4  C   UNL d   1     -41.630-123.817 -50.419  0.00  0.00     0.002 A 
ATOM      5  C   UNL d   1     -41.371-123.062 -51.613  0.00  0.00     0.000 A 
ATOM      6  C   UNL d   1     -41.428-123.790 -51.231  0.00  0.00     0.000 A 
ATOM      7  C   UNL d   1     -41.464-121.625 -51.547  0.00  0.00     0.000 A 
ATOM      8  C   UNL d   1     -41.175-123.017 -52.403  0.00  0.00     0.000 A 
ATOM      9  C   UNL d   1     -41.264-121.584 -52.351  0.00  0.00     0.000 A 
ATOM     10  C   UNL d   1     -41.123-122.267 -52.771  0.00  0.00     0.000 A 
ENDROOT
BRANCH   1  11
ATOM     11  C   UNL d   1     -41.970-123.173 -49.199  0.00  0.00     0.090 A 
ATOM     12  N   UNL d   1     -41.529-123.070 -48.543  0.00  0.00    -0.219 NA
ATOM     13  C   UNL d   1     -42.017-123.174 -47.886  0.00  0.00     0.215 A 
ATOM     14  S   UNL d   1     -42.773-123.346 -48.178  0.00  0.00    -0.045 SA
ATOM     15  N   UNL d   1     -41.791-123.118 -47.072  0.00  0.00    -0.120 N 
ATOM     16  C   UNL d   1     -42.734-123.343 -48.975  0.00  0.00     0.058 A 
ENDBRANCH   1  11
TORSDOF 1
ENDMDL
