MODEL 1
REMARK VINA RESULT:     108.4      0.000      0.000
REMARK  5 active torsions:
REMARK  status: ('A' for Active; 'I' for Inactive)
REMARK    1  A    between atoms: C_12  and  N_3 
REMARK    2  A    between atoms: C_11  and  C_5 
REMARK       I    between atoms: N_16  and  C_11 
REMARK    3  A    between atoms: C_15  and  C_12 
REMARK    4  A    between atoms: C_26  and  N_16 
REMARK    5  A    between atoms: C_27  and  C_26 
ROOT
ATOM      1  C   UNL d   1     -51.146  26.526  35.550  0.00  0.00     0.155 A 
ATOM      2  C   UNL d   1     -50.591  26.898  36.050  0.00  0.00     0.091 A 
ATOM      3  N   UNL d   1     -51.037  26.545  34.737  0.00  0.00    -0.272 N 
ATOM      4  N   UNL d   1     -51.795  26.145  35.879  0.00  0.00    -0.210 NA
ATOM      5  C   UNL d   1     -49.830  27.299  34.905  0.00  0.00     0.094 A 
ATOM      6  C   UNL d   1     -50.380  26.930  34.410  0.00  0.00     0.175 A 
ATOM      7  C   UNL d   1     -50.695  26.882  36.868  0.00  0.00     0.269 A 
ATOM      8  N   UNL d   1     -51.355  26.495  37.187  0.00  0.00    -0.258 N 
ATOM      9  C   UNL d   1     -51.903  26.127  36.689  0.00  0.00     0.152 A 
ATOM     10  C   UNL d   1     -49.937  27.282  35.726  0.00  0.00     0.016 A 
ATOM     11  N   UNL d   1     -50.276  26.946  33.592  0.00  0.00    -0.128 N 
ATOM     12  C   UNL d   1     -51.454  26.483  38.010  0.00  0.00     0.084 A 
ATOM     13  O   UNL d   1     -50.149  27.249  37.369  0.00  0.00    -0.266 OA
ATOM     14  C   UNL d   1     -52.554  25.745  37.020  0.00  0.00     0.038 A 
ATOM     15  C   UNL d   1     -52.111  26.096  38.325  0.00  0.00     0.019 A 
ATOM     16  C   UNL d   1     -52.661  25.727  37.831  0.00  0.00     0.005 A 
ENDROOT
BRANCH   5  17
ATOM     17  C   UNL d   1     -49.176  27.683  34.581  0.00  0.00     0.282 C 
ATOM     18  N   UNL d   1     -48.785  28.266  35.014  0.00  0.00    -0.206 NA
ATOM     19  O   UNL d   1     -48.912  27.484  33.823  0.00  0.00    -0.265 OA
BRANCH  18  20
ATOM     20  C   UNL d   1     -48.125  28.656  34.691  0.00  0.00     0.102 C 
BRANCH  20  21
ATOM     21  C   UNL d   1     -47.854  29.359  35.026  0.00  0.00     0.019 A 
ATOM     22  C   UNL d   1     -47.992  30.080  34.645  0.00  0.00     0.002 A 
ATOM     23  C   UNL d   1     -47.720  30.783  34.980  0.00  0.00     0.000 A 
ATOM     24  C   UNL d   1     -47.309  30.768  35.698  0.00  0.00     0.000 A 
ATOM     25  C   UNL d   1     -47.173  30.046  36.077  0.00  0.00     0.000 A 
ATOM     26  C   UNL d   1     -47.037  31.472  36.033  0.00  0.00     0.000 C 
ATOM     27  C   UNL d   1     -47.444  29.343  35.742  0.00  0.00     0.002 A 
ENDBRANCH  20  21
ENDBRANCH  18  20
ENDBRANCH   5  17
BRANCH   3  28
ATOM     28  C   UNL d   1     -51.587  26.176  34.242  0.00  0.00     0.107 C 
BRANCH  28  29
ATOM     29  C   UNL d   1     -51.405  25.453  33.889  0.00  0.00     0.118 A 
ATOM     30  O   UNL d   1     -50.823  24.922  33.665  0.00  0.00    -0.304 OA
ATOM     31  C   UNL d   1     -51.178  24.274  33.306  0.00  0.00     0.123 A 
ATOM     32  C   UNL d   1     -51.994  24.402  33.306  0.00  0.00     0.029 A 
ATOM     33  C   UNL d   1     -52.136  25.130  33.665  0.00  0.00     0.028 A 
ENDBRANCH  28  29
ENDBRANCH   3  28
TORSDOF 5
ENDMDL
MODEL 2
REMARK VINA RESULT:     109.2      1.372      2.133
REMARK  5 active torsions:
REMARK  status: ('A' for Active; 'I' for Inactive)
REMARK    1  A    between atoms: C_12  and  N_3 
REMARK    2  A    between atoms: C_11  and  C_5 
REMARK       I    between atoms: N_16  and  C_11 
REMARK    3  A    between atoms: C_15  and  C_12 
REMARK    4  A    between atoms: C_26  and  N_16 
REMARK    5  A    between atoms: C_27  and  C_26 
ROOT
ATOM      1  C   UNL d   1     -49.640  27.508  36.058  0.00  0.00     0.155 A 
ATOM      2  C   UNL d   1     -49.414  28.067  36.636  0.00  0.00     0.091 A 
ATOM      3  N   UNL d   1     -49.266  27.508  35.328  0.00  0.00    -0.272 N 
ATOM      4  N   UNL d   1     -50.233  26.966  36.229  0.00  0.00    -0.210 NA
ATOM      5  C   UNL d   1     -48.444  28.609  35.733  0.00  0.00     0.094 A 
ATOM      6  C   UNL d   1     -48.668  28.056  35.160  0.00  0.00     0.175 A 
ATOM      7  C   UNL d   1     -49.785  28.072  37.373  0.00  0.00     0.269 A 
ATOM      8  N   UNL d   1     -50.382  27.520  37.532  0.00  0.00    -0.258 N 
ATOM      9  C   UNL d   1     -50.604  26.968  36.957  0.00  0.00     0.152 A 
ATOM     10  C   UNL d   1     -48.819  28.614  36.472  0.00  0.00     0.016 A 
ATOM     11  N   UNL d   1     -48.297  28.050  34.424  0.00  0.00    -0.128 N 
ATOM     12  C   UNL d   1     -50.752  27.531  38.274  0.00  0.00     0.084 A 
ATOM     13  O   UNL d   1     -49.567  28.623  37.950  0.00  0.00    -0.266 OA
ATOM     14  C   UNL d   1     -51.199  26.425  37.130  0.00  0.00     0.038 A 
ATOM     15  C   UNL d   1     -51.346  26.980  38.431  0.00  0.00     0.019 A 
ATOM     16  C   UNL d   1     -51.570  26.427  37.858  0.00  0.00     0.005 A 
ENDROOT
BRANCH   5  17
ATOM     17  C   UNL d   1     -47.849  29.156  35.568  0.00  0.00     0.282 C 
ATOM     18  N   UNL d   1     -48.047  29.931  35.364  0.00  0.00    -0.206 NA
ATOM     19  O   UNL d   1     -47.055  28.929  35.607  0.00  0.00    -0.265 OA
BRANCH  18  20
ATOM     20  C   UNL d   1     -47.450  30.485  35.197  0.00  0.00     0.102 C 
BRANCH  20  21
ATOM     21  C   UNL d   1     -47.634  31.188  34.806  0.00  0.00     0.019 A 
ATOM     22  C   UNL d   1     -48.339  31.252  34.379  0.00  0.00     0.002 A 
ATOM     23  C   UNL d   1     -48.523  31.954  33.988  0.00  0.00     0.000 A 
ATOM     24  C   UNL d   1     -48.001  32.597  34.023  0.00  0.00     0.000 A 
ATOM     25  C   UNL d   1     -47.297  32.529  34.451  0.00  0.00     0.000 A 
ATOM     26  C   UNL d   1     -48.185  33.300  33.632  0.00  0.00     0.000 C 
ATOM     27  C   UNL d   1     -47.113  31.827  34.842  0.00  0.00     0.002 A 
ENDBRANCH  20  21
ENDBRANCH  18  20
ENDBRANCH   5  17
BRANCH   3  28
ATOM     28  C   UNL d   1     -49.490  26.954  34.755  0.00  0.00     0.107 C 
BRANCH  28  29
ATOM     29  C   UNL d   1     -50.078  27.141  34.208  0.00  0.00     0.118 A 
ATOM     30  O   UNL d   1     -50.536  27.725  33.861  0.00  0.00    -0.304 OA
ATOM     31  C   UNL d   1     -51.033  27.377  33.306  0.00  0.00     0.123 A 
ATOM     32  C   UNL d   1     -50.881  26.566  33.306  0.00  0.00     0.029 A 
ATOM     33  C   UNL d   1     -50.291  26.418  33.862  0.00  0.00     0.028 A 
ENDBRANCH  28  29
ENDBRANCH   3  28
TORSDOF 5
ENDMDL
MODEL 3
REMARK VINA RESULT:     110.1      1.381      3.416
REMARK  5 active torsions:
REMARK  status: ('A' for Active; 'I' for Inactive)
REMARK    1  A    between atoms: C_12  and  N_3 
REMARK    2  A    between atoms: C_11  and  C_5 
REMARK       I    between atoms: N_16  and  C_11 
REMARK    3  A    between atoms: C_15  and  C_12 
REMARK    4  A    between atoms: C_26  and  N_16 
REMARK    5  A    between atoms: C_27  and  C_26 
ROOT
ATOM      1  C   UNL d   1     -49.686  27.444  35.437  0.00  0.00     0.155 A 
ATOM      2  C   UNL d   1     -49.485  27.841  34.730  0.00  0.00     0.091 A 
ATOM      3  N   UNL d   1     -49.314  27.654  36.139  0.00  0.00    -0.272 N 
ATOM      4  N   UNL d   1     -50.252  26.849  35.422  0.00  0.00    -0.210 NA
ATOM      5  C   UNL d   1     -48.546  28.647  35.449  0.00  0.00     0.094 A 
ATOM      6  C   UNL d   1     -48.744  28.254  36.149  0.00  0.00     0.175 A 
ATOM      7  C   UNL d   1     -49.855  27.634  34.022  0.00  0.00     0.269 A 
ATOM      8  N   UNL d   1     -50.425  27.032  34.020  0.00  0.00    -0.258 N 
ATOM      9  C   UNL d   1     -50.620  26.642  34.723  0.00  0.00     0.152 A 
ATOM     10  C   UNL d   1     -48.918  28.439  34.739  0.00  0.00     0.016 A 
ATOM     11  N   UNL d   1     -48.375  28.461  36.857  0.00  0.00    -0.128 N 
ATOM     12  C   UNL d   1     -50.792  26.830  33.306  0.00  0.00     0.084 A 
ATOM     13  O   UNL d   1     -49.662  28.023  33.318  0.00  0.00    -0.266 OA
ATOM     14  C   UNL d   1     -51.189  26.045  34.705  0.00  0.00     0.038 A 
ATOM     15  C   UNL d   1     -51.359  26.230  33.306  0.00  0.00     0.019 A 
ATOM     16  C   UNL d   1     -51.558  25.837  34.006  0.00  0.00     0.005 A 
ENDROOT
BRANCH   5  17
ATOM     17  C   UNL d   1     -47.978  29.246  35.458  0.00  0.00     0.282 C 
ATOM     18  N   UNL d   1     -48.179  30.007  35.211  0.00  0.00    -0.206 NA
ATOM     19  O   UNL d   1     -47.209  29.083  35.713  0.00  0.00    -0.265 OA
BRANCH  18  20
ATOM     20  C   UNL d   1     -47.609  30.613  35.218  0.00  0.00     0.102 C 
BRANCH  20  21
ATOM     21  C   UNL d   1     -47.727  31.298  34.775  0.00  0.00     0.019 A 
ATOM     22  C   UNL d   1     -48.422  31.394  34.337  0.00  0.00     0.002 A 
ATOM     23  C   UNL d   1     -48.540  32.079  33.894  0.00  0.00     0.000 A 
ATOM     24  C   UNL d   1     -47.962  32.672  33.886  0.00  0.00     0.000 A 
ATOM     25  C   UNL d   1     -47.268  32.573  34.325  0.00  0.00     0.000 A 
ATOM     26  C   UNL d   1     -48.080  33.358  33.443  0.00  0.00     0.000 C 
ATOM     27  C   UNL d   1     -47.150  31.888  34.769  0.00  0.00     0.002 A 
ENDBRANCH  20  21
ENDBRANCH  18  20
ENDBRANCH   5  17
BRANCH   3  28
ATOM     28  C   UNL d   1     -49.513  27.261  36.839  0.00  0.00     0.107 C 
BRANCH  28  29
ATOM     29  C   UNL d   1     -50.056  27.597  37.361  0.00  0.00     0.118 A 
ATOM     30  O   UNL d   1     -50.456  28.270  37.600  0.00  0.00    -0.304 OA
ATOM     31  C   UNL d   1     -50.942  28.078  38.235  0.00  0.00     0.123 A 
ATOM     32  C   UNL d   1     -50.843  27.274  38.394  0.00  0.00     0.029 A 
ATOM     33  C   UNL d   1     -50.296  26.974  37.855  0.00  0.00     0.028 A 
ENDBRANCH  28  29
ENDBRANCH   3  28
TORSDOF 5
ENDMDL
MODEL 4
REMARK VINA RESULT:     110.2      1.154      5.080
REMARK  5 active torsions:
REMARK  status: ('A' for Active; 'I' for Inactive)
REMARK    1  A    between atoms: C_12  and  N_3 
REMARK    2  A    between atoms: C_11  and  C_5 
REMARK       I    between atoms: N_16  and  C_11 
REMARK    3  A    between atoms: C_15  and  C_12 
REMARK    4  A    between atoms: C_26  and  N_16 
REMARK    5  A    between atoms: C_27  and  C_26 
ROOT
ATOM      1  C   UNL d   1     -48.968  28.088  36.013  0.00  0.00     0.155 A 
ATOM      2  C   UNL d   1     -48.860  28.408  35.249  0.00  0.00     0.091 A 
ATOM      3  N   UNL d   1     -49.478  27.453  36.118  0.00  0.00    -0.272 N 
ATOM      4  N   UNL d   1     -48.564  28.413  36.649  0.00  0.00    -0.210 NA
ATOM      5  C   UNL d   1     -49.778  27.446  34.717  0.00  0.00     0.094 A 
ATOM      6  C   UNL d   1     -49.885  27.129  35.473  0.00  0.00     0.175 A 
ATOM      7  C   UNL d   1     -48.349  29.045  35.137  0.00  0.00     0.269 A 
ATOM      8  N   UNL d   1     -47.946  29.364  35.788  0.00  0.00    -0.258 N 
ATOM      9  C   UNL d   1     -48.056  29.045  36.543  0.00  0.00     0.152 A 
ATOM     10  C   UNL d   1     -49.264  28.086  34.606  0.00  0.00     0.016 A 
ATOM     11  N   UNL d   1     -50.396  26.491  35.586  0.00  0.00    -0.128 N 
ATOM     12  C   UNL d   1     -47.434  30.005  35.668  0.00  0.00     0.084 A 
ATOM     13  O   UNL d   1     -48.237  29.367  34.384  0.00  0.00    -0.266 OA
ATOM     14  C   UNL d   1     -47.649  29.372  37.180  0.00  0.00     0.038 A 
ATOM     15  C   UNL d   1     -47.034  30.321  36.317  0.00  0.00     0.019 A 
ATOM     16  C   UNL d   1     -47.141  30.004  37.074  0.00  0.00     0.005 A 
ENDROOT
BRANCH   5  17
ATOM     17  C   UNL d   1     -50.182  27.124  34.074  0.00  0.00     0.282 C 
ATOM     18  N   UNL d   1     -50.241  26.305  33.993  0.00  0.00    -0.206 NA
ATOM     19  O   UNL d   1     -50.526  27.622  33.510  0.00  0.00    -0.265 OA
BRANCH  18  20
ATOM     20  C   UNL d   1     -50.647  25.977  33.346  0.00  0.00     0.102 C 
BRANCH  20  21
ATOM     21  C   UNL d   1     -51.080  25.281  33.437  0.00  0.00     0.019 A 
ATOM     22  C   UNL d   1     -50.697  24.582  33.659  0.00  0.00     0.002 A 
ATOM     23  C   UNL d   1     -51.129  23.886  33.751  0.00  0.00     0.000 A 
ATOM     24  C   UNL d   1     -51.947  23.885  33.620  0.00  0.00     0.000 A 
ATOM     25  C   UNL d   1     -52.326  24.586  33.398  0.00  0.00     0.000 A 
ATOM     26  C   UNL d   1     -52.380  23.189  33.712  0.00  0.00     0.000 C 
ATOM     27  C   UNL d   1     -51.894  25.282  33.306  0.00  0.00     0.002 A 
ENDBRANCH  20  21
ENDBRANCH  18  20
ENDBRANCH   5  17
BRANCH   3  28
ATOM     28  C   UNL d   1     -49.585  27.137  36.875  0.00  0.00     0.107 C 
BRANCH  28  29
ATOM     29  C   UNL d   1     -50.336  27.127  37.216  0.00  0.00     0.118 A 
ATOM     30  O   UNL d   1     -51.120  27.360  37.164  0.00  0.00    -0.304 OA
ATOM     31  C   UNL d   1     -51.525  27.074  37.819  0.00  0.00     0.123 A 
ATOM     32  C   UNL d   1     -50.987  26.658  38.286  0.00  0.00     0.029 A 
ATOM     33  C   UNL d   1     -50.252  26.689  37.915  0.00  0.00     0.028 A 
ENDBRANCH  28  29
ENDBRANCH   3  28
TORSDOF 5
ENDMDL
MODEL 5
REMARK VINA RESULT:     110.3      1.030      3.042
REMARK  5 active torsions:
REMARK  status: ('A' for Active; 'I' for Inactive)
REMARK    1  A    between atoms: C_12  and  N_3 
REMARK    2  A    between atoms: C_11  and  C_5 
REMARK       I    between atoms: N_16  and  C_11 
REMARK    3  A    between atoms: C_15  and  C_12 
REMARK    4  A    between atoms: C_26  and  N_16 
REMARK    5  A    between atoms: C_27  and  C_26 
ROOT
ATOM      1  C   UNL d   1     -50.321  27.113  35.361  0.00  0.00     0.155 A 
ATOM      2  C   UNL d   1     -49.776  27.113  34.728  0.00  0.00     0.091 A 
ATOM      3  N   UNL d   1     -50.171  27.571  36.025  0.00  0.00    -0.272 N 
ATOM      4  N   UNL d   1     -51.000  26.655  35.310  0.00  0.00    -0.210 NA
ATOM      5  C   UNL d   1     -48.944  28.032  35.446  0.00  0.00     0.094 A 
ATOM      6  C   UNL d   1     -49.484  28.032  36.072  0.00  0.00     0.175 A 
ATOM      7  C   UNL d   1     -49.921  26.655  34.058  0.00  0.00     0.269 A 
ATOM      8  N   UNL d   1     -50.610  26.197  34.019  0.00  0.00    -0.258 N 
ATOM      9  C   UNL d   1     -51.148  26.199  34.647  0.00  0.00     0.152 A 
ATOM     10  C   UNL d   1     -49.091  27.571  34.773  0.00  0.00     0.016 A 
ATOM     11  N   UNL d   1     -49.339  28.490  36.742  0.00  0.00    -0.128 N 
ATOM     12  C   UNL d   1     -50.750  25.739  33.342  0.00  0.00     0.084 A 
ATOM     13  O   UNL d   1     -49.385  26.650  33.427  0.00  0.00    -0.266 OA
ATOM     14  C   UNL d   1     -51.830  25.738  34.594  0.00  0.00     0.038 A 
ATOM     15  C   UNL d   1     -51.438  25.283  33.306  0.00  0.00     0.019 A 
ATOM     16  C   UNL d   1     -51.978  25.283  33.932  0.00  0.00     0.005 A 
ENDROOT
BRANCH   5  17
ATOM     17  C   UNL d   1     -48.260  28.490  35.490  0.00  0.00     0.282 C 
ATOM     18  N   UNL d   1     -48.291  29.295  35.313  0.00  0.00    -0.206 NA
ATOM     19  O   UNL d   1     -47.543  28.143  35.713  0.00  0.00    -0.265 OA
BRANCH  18  20
ATOM     20  C   UNL d   1     -47.603  29.760  35.357  0.00  0.00     0.102 C 
BRANCH  20  21
ATOM     21  C   UNL d   1     -47.614  30.543  35.096  0.00  0.00     0.019 A 
ATOM     22  C   UNL d   1     -47.206  31.125  35.518  0.00  0.00     0.002 A 
ATOM     23  C   UNL d   1     -47.217  31.908  35.257  0.00  0.00     0.000 A 
ATOM     24  C   UNL d   1     -47.637  32.111  34.573  0.00  0.00     0.000 A 
ATOM     25  C   UNL d   1     -48.044  31.525  34.154  0.00  0.00     0.000 A 
ATOM     26  C   UNL d   1     -47.648  32.893  34.312  0.00  0.00     0.000 C 
ATOM     27  C   UNL d   1     -48.033  30.743  34.415  0.00  0.00     0.002 A 
ENDBRANCH  20  21
ENDBRANCH  18  20
ENDBRANCH   5  17
BRANCH   3  28
ATOM     28  C   UNL d   1     -50.711  27.571  36.651  0.00  0.00     0.107 C 
BRANCH  28  29
ATOM     29  C   UNL d   1     -50.577  27.095  37.312  0.00  0.00     0.118 A 
ATOM     30  O   UNL d   1     -50.059  26.605  37.715  0.00  0.00    -0.304 OA
ATOM     31  C   UNL d   1     -50.425  26.340  38.402  0.00  0.00     0.123 A 
ATOM     32  C   UNL d   1     -51.181  26.669  38.427  0.00  0.00     0.029 A 
ATOM     33  C   UNL d   1     -51.278  27.136  37.754  0.00  0.00     0.028 A 
ENDBRANCH  28  29
ENDBRANCH   3  28
TORSDOF 5
ENDMDL
MODEL 6
REMARK VINA RESULT:     110.9      2.551      5.715
REMARK  5 active torsions:
REMARK  status: ('A' for Active; 'I' for Inactive)
REMARK    1  A    between atoms: C_12  and  N_3 
REMARK    2  A    between atoms: C_11  and  C_5 
REMARK       I    between atoms: N_16  and  C_11 
REMARK    3  A    between atoms: C_15  and  C_12 
REMARK    4  A    between atoms: C_26  and  N_16 
REMARK    5  A    between atoms: C_27  and  C_26 
ROOT
ATOM      1  C   UNL d   1     -47.731  30.099  35.346  0.00  0.00     0.155 A 
ATOM      2  C   UNL d   1     -48.160  29.465  35.677  0.00  0.00     0.091 A 
ATOM      3  N   UNL d   1     -47.936  30.384  34.603  0.00  0.00    -0.272 N 
ATOM      4  N   UNL d   1     -47.108  30.431  35.766  0.00  0.00    -0.210 NA
ATOM      5  C   UNL d   1     -48.990  29.418  34.511  0.00  0.00     0.094 A 
ATOM      6  C   UNL d   1     -48.565  30.046  34.183  0.00  0.00     0.175 A 
ATOM      7  C   UNL d   1     -47.959  29.174  36.422  0.00  0.00     0.269 A 
ATOM      8  N   UNL d   1     -47.328  29.518  36.837  0.00  0.00    -0.258 N 
ATOM      9  C   UNL d   1     -46.905  30.146  36.505  0.00  0.00     0.152 A 
ATOM     10  C   UNL d   1     -48.787  29.127  35.260  0.00  0.00     0.016 A 
ATOM     11  N   UNL d   1     -48.766  30.336  33.437  0.00  0.00    -0.128 N 
ATOM     12  C   UNL d   1     -47.131  29.221  37.585  0.00  0.00     0.084 A 
ATOM     13  O   UNL d   1     -48.380  28.546  36.757  0.00  0.00    -0.266 OA
ATOM     14  C   UNL d   1     -46.281  30.478  36.929  0.00  0.00     0.038 A 
ATOM     15  C   UNL d   1     -46.503  29.565  37.996  0.00  0.00     0.019 A 
ATOM     16  C   UNL d   1     -46.078  30.193  37.668  0.00  0.00     0.005 A 
ENDROOT
BRANCH   5  17
ATOM     17  C   UNL d   1     -49.617  29.080  34.094  0.00  0.00     0.282 C 
ATOM     18  N   UNL d   1     -49.523  28.343  33.737  0.00  0.00    -0.206 NA
ATOM     19  O   UNL d   1     -50.338  29.481  34.033  0.00  0.00    -0.265 OA
BRANCH  18  20
ATOM     20  C   UNL d   1     -50.152  27.999  33.315  0.00  0.00     0.102 C 
BRANCH  20  21
ATOM     21  C   UNL d   1     -50.282  27.185  33.353  0.00  0.00     0.019 A 
ATOM     22  C   UNL d   1     -51.050  26.892  33.435  0.00  0.00     0.002 A 
ATOM     23  C   UNL d   1     -51.180  26.078  33.473  0.00  0.00     0.000 A 
ATOM     24  C   UNL d   1     -50.540  25.554  33.428  0.00  0.00     0.000 A 
ATOM     25  C   UNL d   1     -49.773  25.851  33.345  0.00  0.00     0.000 A 
ATOM     26  C   UNL d   1     -50.669  24.740  33.466  0.00  0.00     0.000 C 
ATOM     27  C   UNL d   1     -49.643  26.665  33.308  0.00  0.00     0.002 A 
ENDBRANCH  20  21
ENDBRANCH  18  20
ENDBRANCH   5  17
BRANCH   3  28
ATOM     28  C   UNL d   1     -47.511  31.012  34.275  0.00  0.00     0.107 C 
BRANCH  28  29
ATOM     29  C   UNL d   1     -47.750  31.789  34.412  0.00  0.00     0.118 A 
ATOM     30  O   UNL d   1     -48.218  32.299  34.851  0.00  0.00    -0.304 OA
ATOM     31  C   UNL d   1     -48.095  33.067  34.584  0.00  0.00     0.123 A 
ATOM     32  C   UNL d   1     -47.544  33.036  33.971  0.00  0.00     0.029 A 
ATOM     33  C   UNL d   1     -47.329  32.247  33.863  0.00  0.00     0.028 A 
ENDBRANCH  28  29
ENDBRANCH   3  28
TORSDOF 5
ENDMDL
MODEL 7
REMARK VINA RESULT:     111.3      1.222      4.799
REMARK  5 active torsions:
REMARK  status: ('A' for Active; 'I' for Inactive)
REMARK    1  A    between atoms: C_12  and  N_3 
REMARK    2  A    between atoms: C_11  and  C_5 
REMARK       I    between atoms: N_16  and  C_11 
REMARK    3  A    between atoms: C_15  and  C_12 
REMARK    4  A    between atoms: C_26  and  N_16 
REMARK    5  A    between atoms: C_27  and  C_26 
ROOT
ATOM      1  C   UNL d   1     -49.701  27.721  36.759  0.00  0.00     0.155 A 
ATOM      2  C   UNL d   1     -50.380  27.257  36.615  0.00  0.00     0.091 A 
ATOM      3  N   UNL d   1     -49.160  27.845  36.154  0.00  0.00    -0.272 N 
ATOM      4  N   UNL d   1     -49.582  28.046  37.503  0.00  0.00    -0.210 NA
ATOM      5  C   UNL d   1     -49.957  27.056  35.262  0.00  0.00     0.094 A 
ATOM      6  C   UNL d   1     -49.284  27.515  35.405  0.00  0.00     0.175 A 
ATOM      7  C   UNL d   1     -50.928  27.129  37.219  0.00  0.00     0.269 A 
ATOM      8  N   UNL d   1     -50.796  27.463  37.966  0.00  0.00    -0.258 N 
ATOM      9  C   UNL d   1     -50.122  27.921  38.105  0.00  0.00     0.152 A 
ATOM     10  C   UNL d   1     -50.505  26.928  35.870  0.00  0.00     0.016 A 
ATOM     11  N   UNL d   1     -48.736  27.643  34.801  0.00  0.00    -0.128 N 
ATOM     12  C   UNL d   1     -51.350  27.330  38.568  0.00  0.00     0.084 A 
ATOM     13  O   UNL d   1     -51.603  26.671  37.084  0.00  0.00    -0.266 OA
ATOM     14  C   UNL d   1     -50.005  28.247  38.853  0.00  0.00     0.038 A 
ATOM     15  C   UNL d   1     -51.218  27.663  39.311  0.00  0.00     0.019 A 
ATOM     16  C   UNL d   1     -50.545  28.122  39.454  0.00  0.00     0.005 A 
ENDROOT
BRANCH   5  17
ATOM     17  C   UNL d   1     -50.082  26.726  34.517  0.00  0.00     0.282 C 
ATOM     18  N   UNL d   1     -50.707  26.202  34.398  0.00  0.00    -0.206 NA
ATOM     19  O   UNL d   1     -49.580  26.921  33.889  0.00  0.00    -0.265 OA
BRANCH  18  20
ATOM     20  C   UNL d   1     -50.836  25.867  33.648  0.00  0.00     0.102 C 
BRANCH  20  21
ATOM     21  C   UNL d   1     -51.315  25.200  33.568  0.00  0.00     0.019 A 
ATOM     22  C   UNL d   1     -50.976  24.466  33.394  0.00  0.00     0.002 A 
ATOM     23  C   UNL d   1     -51.454  23.799  33.314  0.00  0.00     0.000 A 
ATOM     24  C   UNL d   1     -52.275  23.863  33.408  0.00  0.00     0.000 A 
ATOM     25  C   UNL d   1     -52.610  24.599  33.581  0.00  0.00     0.000 A 
ATOM     26  C   UNL d   1     -52.753  23.196  33.328  0.00  0.00     0.000 C 
ATOM     27  C   UNL d   1     -52.132  25.266  33.661  0.00  0.00     0.002 A 
ENDBRANCH  20  21
ENDBRANCH  18  20
ENDBRANCH   5  17
BRANCH   3  28
ATOM     28  C   UNL d   1     -48.487  28.304  36.297  0.00  0.00     0.107 C 
BRANCH  28  29
ATOM     29  C   UNL d   1     -48.360  28.995  35.865  0.00  0.00     0.118 A 
ATOM     30  O   UNL d   1     -48.644  29.520  35.305  0.00  0.00    -0.304 OA
ATOM     31  C   UNL d   1     -48.093  30.121  35.200  0.00  0.00     0.123 A 
ATOM     32  C   UNL d   1     -47.456  29.969  35.702  0.00  0.00     0.029 A 
ATOM     33  C   UNL d   1     -47.619  29.273  36.115  0.00  0.00     0.028 A 
ENDBRANCH  28  29
ENDBRANCH   3  28
TORSDOF 5
ENDMDL
