MODEL 1
REMARK VINA RESULT:      42.1      0.000      0.000
REMARK  2 active torsions:
REMARK  status: ('A' for Active; 'I' for Inactive)
REMARK    1  A    between atoms: C_13  and  C_6 
REMARK    2  A    between atoms: N_7  and  C_12 
ROOT
ATOM      1  C   UNL d   1     -52.329  25.643  33.424  0.00  0.00     0.095 A 
ATOM      2  C   UNL d   1     -51.450  24.537  33.384  0.00  0.00     0.095 A 
ATOM      3  C   UNL d   1     -52.981  25.127  33.387  0.00  0.00     0.143 A 
ATOM      4  C   UNL d   1     -52.102  24.021  33.347  0.00  0.00     0.143 A 
ATOM      5  S   UNL d   1     -52.855  24.321  33.349  0.00  0.00    -0.044 SA
ATOM      6  C   UNL d   1     -51.577  25.334  33.422  0.00  0.00     0.023 A 
ATOM      7  C   UNL d   1     -50.674  24.228  33.383  0.00  0.00     0.103 C 
ATOM      8  C   UNL d   1     -52.464  26.481  33.464  0.00  0.00     0.103 C 
ATOM      9  N   UNL d   1     -52.576  27.319  33.503  0.00  0.00    -0.191 NA
ATOM     10  N   UNL d   1     -49.883  23.929  33.382  0.00  0.00    -0.191 NA
ATOM     11  N   UNL d   1     -51.979  23.194  33.308  0.00  0.00    -0.140 N 
ATOM     12  N   UNL d   1     -53.769  25.447  33.389  0.00  0.00    -0.140 N 
ENDROOT
BRANCH   6  13
ATOM     13  C   UNL d   1     -50.923  25.852  33.459  0.00  0.00     0.002 A 
ATOM     14  C   UNL d   1     -51.028  26.648  33.616  0.00  0.00     0.002 A 
ATOM     15  C   UNL d   1     -50.388  27.155  33.653  0.00  0.00     0.024 A 
ATOM     16  C   UNL d   1     -49.627  26.879  33.533  0.00  0.00     0.127 A 
ATOM     17  C   UNL d   1     -49.518  26.077  33.375  0.00  0.00     0.024 A 
ATOM     18  C   UNL d   1     -50.158  25.570  33.339  0.00  0.00     0.002 A 
BRANCH  16  19
ATOM     19  N   UNL d   1     -48.988  27.385  33.570  0.00  0.00    -0.114 N 
ATOM     20  O   UNL d   1     -48.277  27.119  33.873  0.00  0.00    -0.532 OA
ATOM     21  O   UNL d   1     -49.061  28.149  33.306  0.00  0.00    -0.532 OA
ENDBRANCH  16  19
ENDBRANCH   6  13
TORSDOF 2
ENDMDL
