MODEL 1
REMARK VINA RESULT:      64.3      0.000      0.000
REMARK  2 active torsions:
REMARK  status: ('A' for Active; 'I' for Inactive)
REMARK    1  A    between atoms: N_9  and  C_3 
REMARK    2  A    between atoms: C_13  and  C_5 
ROOT
ATOM      1  N   UNL d   1     -51.374  26.090  33.797  0.00  0.00    -0.196 N 
ATOM      2  C   UNL d   1     -51.779  25.361  33.678  0.00  0.00     0.167 A 
ATOM      3  C   UNL d   1     -50.545  26.112  33.751  0.00  0.00     0.153 A 
ATOM      4  N   UNL d   1     -52.621  26.749  34.005  0.00  0.00    -0.163 NA
ATOM      5  C   UNL d   1     -52.588  25.338  33.723  0.00  0.00     0.055 A 
ATOM      6  N   UNL d   1     -51.341  24.679  33.515  0.00  0.00    -0.227 NA
ATOM      7  C   UNL d   1     -50.126  25.431  33.590  0.00  0.00     0.052 A 
ATOM      8  C   UNL d   1     -53.020  26.031  33.887  0.00  0.00     0.104 A 
ATOM      9  C   UNL d   1     -50.524  24.698  33.469  0.00  0.00     0.086 A 
ATOM     10  C   UNL d   1     -49.329  25.281  33.511  0.00  0.00     0.005 A 
ATOM     11  C   UNL d   1     -53.840  26.000  33.931  0.00  0.00     0.023 C 
ATOM     12  C   UNL d   1     -49.962  24.116  33.319  0.00  0.00     0.019 A 
ATOM     13  C   UNL d   1     -49.214  24.485  33.346  0.00  0.00     0.002 A 
ENDROOT
BRANCH   5  14
ATOM     14  C   UNL d   1     -52.985  24.625  33.606  0.00  0.00     0.004 A 
ATOM     15  C   UNL d   1     -53.804  24.592  33.655  0.00  0.00     0.000 A 
ATOM     16  C   UNL d   1     -54.205  23.871  33.536  0.00  0.00     0.000 A 
ATOM     17  C   UNL d   1     -53.778  23.196  33.371  0.00  0.00     0.000 A 
ATOM     18  C   UNL d   1     -52.952  23.225  33.321  0.00  0.00     0.000 A 
ATOM     19  C   UNL d   1     -52.561  23.937  33.438  0.00  0.00     0.000 A 
ENDBRANCH   5  14
BRANCH   3  20
ATOM     20  N   UNL d   1     -50.132  26.847  33.871  0.00  0.00    -0.271 N 
ATOM     21  C   UNL d   1     -49.650  27.038  34.542  0.00  0.00     0.184 A 
ATOM     22  N   UNL d   1     -49.354  27.825  34.422  0.00  0.00    -0.222 NA
ATOM     23  C   UNL d   1     -49.652  28.118  33.679  0.00  0.00     0.120 A 
ATOM     24  C   UNL d   1     -50.137  27.501  33.343  0.00  0.00     0.104 A 
ENDBRANCH   3  20
TORSDOF 2
ENDMDL
MODEL 2
REMARK VINA RESULT:      65.7      1.106      2.449
REMARK  2 active torsions:
REMARK  status: ('A' for Active; 'I' for Inactive)
REMARK    1  A    between atoms: N_9  and  C_3 
REMARK    2  A    between atoms: C_13  and  C_5 
ROOT
ATOM      1  N   UNL d   1     -51.747  24.689  33.585  0.00  0.00    -0.196 N 
ATOM      2  C   UNL d   1     -52.510  25.040  33.513  0.00  0.00     0.167 A 
ATOM      3  C   UNL d   1     -51.070  25.170  33.570  0.00  0.00     0.153 A 
ATOM      4  N   UNL d   1     -52.349  23.400  33.685  0.00  0.00    -0.163 NA
ATOM      5  C   UNL d   1     -53.171  24.571  33.528  0.00  0.00     0.055 A 
ATOM      6  N   UNL d   1     -52.569  25.860  33.429  0.00  0.00    -0.227 NA
ATOM      7  C   UNL d   1     -51.144  25.977  33.486  0.00  0.00     0.052 A 
ATOM      8  C   UNL d   1     -53.100  23.746  33.614  0.00  0.00     0.104 A 
ATOM      9  C   UNL d   1     -51.904  26.337  33.413  0.00  0.00     0.086 A 
ATOM     10  C   UNL d   1     -50.597  26.580  33.452  0.00  0.00     0.005 A 
ATOM     11  C   UNL d   1     -53.776  23.278  33.628  0.00  0.00     0.023 C 
ATOM     12  C   UNL d   1     -51.804  27.149  33.337  0.00  0.00     0.019 A 
ATOM     13  C   UNL d   1     -50.983  27.299  33.362  0.00  0.00     0.002 A 
ENDROOT
BRANCH   5  14
ATOM     14  C   UNL d   1     -53.918  24.915  33.458  0.00  0.00     0.004 A 
ATOM     15  C   UNL d   1     -54.587  24.443  33.388  0.00  0.00     0.000 A 
ATOM     16  C   UNL d   1     -55.342  24.790  33.317  0.00  0.00     0.000 A 
ATOM     17  C   UNL d   1     -55.412  25.602  33.317  0.00  0.00     0.000 A 
ATOM     18  C   UNL d   1     -54.740  26.081  33.387  0.00  0.00     0.000 A 
ATOM     19  C   UNL d   1     -53.998  25.736  33.457  0.00  0.00     0.000 A 
ENDBRANCH   5  14
BRANCH   3  20
ATOM     20  N   UNL d   1     -50.298  24.819  33.642  0.00  0.00    -0.271 N 
ATOM     21  C   UNL d   1     -49.565  25.189  33.428  0.00  0.00     0.184 A 
ATOM     22  N   UNL d   1     -48.946  24.634  33.596  0.00  0.00    -0.222 NA
ATOM     23  C   UNL d   1     -49.294  23.924  33.913  0.00  0.00     0.120 A 
ATOM     24  C   UNL d   1     -50.138  24.049  33.938  0.00  0.00     0.104 A 
ENDBRANCH   3  20
TORSDOF 2
ENDMDL
