MODEL 1
REMARK VINA RESULT:      69.4      0.000      0.000
REMARK  1 active torsions:
REMARK  status: ('A' for Active; 'I' for Inactive)
REMARK    1  A    between atoms: C_14  and  C_5 
ROOT
ATOM      1  C   UNL d   1      60.515  49.370  52.064  0.00  0.00     0.111 A 
ATOM      2  C   UNL d   1      59.415  49.354  51.133  0.00  0.00     0.062 A 
ATOM      3  C   UNL d   1      59.924  49.569  52.690  0.00  0.00     0.213 A 
ATOM      4  C   UNL d   1      58.894  49.534  51.712  0.00  0.00     0.101 A 
ATOM      5  C   UNL d   1      60.228  49.272  51.310  0.00  0.00     0.018 A 
ATOM      6  O   UNL d   1      59.149  49.641  52.489  0.00  0.00    -0.288 OA
ATOM      7  C   UNL d   1      59.162  49.245  50.347  0.00  0.00     0.194 A 
ATOM      8  C   UNL d   1      61.317  49.290  52.239  0.00  0.00     0.105 C 
ATOM      9  N   UNL d   1      62.130  49.204  52.394  0.00  0.00    -0.191 NA
ATOM     10  C   UNL d   1      58.093  49.614  51.537  0.00  0.00     0.002 A 
ATOM     11  C   UNL d   1      57.805  49.516  50.783  0.00  0.00     0.042 A 
ATOM     12  C   UNL d   1      58.386  49.319  50.156  0.00  0.00     0.019 A 
ATOM     13  O   UNL d   1      59.725  49.051  49.727  0.00  0.00    -0.287 OA
ATOM     14  N   UNL d   1      60.147  49.688  53.509  0.00  0.00    -0.120 N 
ATOM     15  C   UNL d   1      57.026  49.673  51.038  0.00  0.00     0.009 C 
ATOM     16  C   UNL d   1      57.376  49.449  50.092  0.00  0.00     0.009 C 
ENDROOT
BRANCH   5  17
ATOM     17  C   UNL d   1      60.749  49.091  50.726  0.00  0.00     0.001 A 
ATOM     18  C   UNL d   1      61.102  48.369  50.734  0.00  0.00     0.000 A 
ATOM     19  C   UNL d   1      61.649  48.163  50.132  0.00  0.00     0.000 A 
ATOM     20  C   UNL d   1      61.818  48.688  49.550  0.00  0.00     0.000 A 
ATOM     21  C   UNL d   1      61.450  49.435  49.546  0.00  0.00     0.000 A 
ATOM     22  C   UNL d   1      60.911  49.635  50.142  0.00  0.00     0.000 A 
ENDBRANCH   5  17
TORSDOF 1
ENDMDL
MODEL 2
REMARK VINA RESULT:      69.6      1.113      2.293
REMARK  1 active torsions:
REMARK  status: ('A' for Active; 'I' for Inactive)
REMARK    1  A    between atoms: C_14  and  C_5 
ROOT
ATOM      1  C   UNL d   1      60.400  49.458  50.312  0.00  0.00     0.111 A 
ATOM      2  C   UNL d   1      59.014  49.453  50.705  0.00  0.00     0.062 A 
ATOM      3  C   UNL d   1      60.120  49.609  49.488  0.00  0.00     0.213 A 
ATOM      4  C   UNL d   1      58.778  49.591  49.954  0.00  0.00     0.101 A 
ATOM      5  C   UNL d   1      59.828  49.387  50.885  0.00  0.00     0.018 A 
ATOM      6  O   UNL d   1      59.331  49.668  49.347  0.00  0.00    -0.288 OA
ATOM      7  C   UNL d   1      58.458  49.374  51.322  0.00  0.00     0.194 A 
ATOM      8  C   UNL d   1      61.204  49.392  50.489  0.00  0.00     0.105 C 
ATOM      9  N   UNL d   1      62.008  49.323  50.689  0.00  0.00    -0.191 NA
ATOM     10  C   UNL d   1      57.976  49.656  49.777  0.00  0.00     0.002 A 
ATOM     11  C   UNL d   1      57.402  49.585  50.350  0.00  0.00     0.042 A 
ATOM     12  C   UNL d   1      57.673  49.434  51.171  0.00  0.00     0.019 A 
ATOM     13  O   UNL d   1      58.715  49.226  52.128  0.00  0.00    -0.287 OA
ATOM     14  N   UNL d   1      60.662  49.697  48.829  0.00  0.00    -0.120 N 
ATOM     15  C   UNL d   1      56.797  49.707  49.788  0.00  0.00     0.009 C 
ATOM     16  C   UNL d   1      56.726  49.539  50.804  0.00  0.00     0.009 C 
ENDROOT
BRANCH   5  17
ATOM     17  C   UNL d   1      60.062  49.249  51.641  0.00  0.00     0.001 A 
ATOM     18  C   UNL d   1      59.710  48.654  52.051  0.00  0.00     0.000 A 
ATOM     19  C   UNL d   1      59.941  48.496  52.841  0.00  0.00     0.000 A 
ATOM     20  C   UNL d   1      60.514  48.939  53.186  0.00  0.00     0.000 A 
ATOM     21  C   UNL d   1      60.876  49.554  52.756  0.00  0.00     0.000 A 
ATOM     22  C   UNL d   1      60.645  49.707  51.976  0.00  0.00     0.000 A 
ENDBRANCH   5  17
TORSDOF 1
ENDMDL
