MODEL 1
REMARK VINA RESULT:      -4.2      0.000      0.000
REMARK  6 active torsions:
REMARK  status: ('A' for Active; 'I' for Inactive)
REMARK    1  A    between atoms: N_10  and  C_2 
REMARK    2  A    between atoms: C_13  and  C_3 
REMARK    3  A    between atoms: C_6  and  S_15 
REMARK       I    between atoms: C_12  and  N_10 
REMARK    4  A    between atoms: C_14  and  C_12 
REMARK    5  A    between atoms: C_17  and  C_14 
REMARK    6  A    between atoms: S_15  and  C_17 
ROOT
ATOM      1  N   UNL d   1      58.079  -0.323  29.782  0.00  0.00    -0.181 NA
ATOM      2  C   UNL d   1      58.203   0.160  30.440  0.00  0.00     0.282 C 
ATOM      3  O   UNL d   1      58.961   0.239  30.765  0.00  0.00    -0.265 OA
ENDROOT
BRANCH   1   4
ATOM      4  C   UNL d   1      58.713  -0.739  29.434  0.00  0.00     0.216 A 
ATOM      5  N   UNL d   1      58.844  -1.552  29.487  0.00  0.00    -0.200 NA
ATOM      6  C   UNL d   1      59.529  -1.720  29.062  0.00  0.00     0.172 A 
ATOM      7  N   UNL d   1      59.809  -1.015  28.756  0.00  0.00    -0.187 NA
ATOM      8  S   UNL d   1      59.307  -0.414  28.984  0.00  0.00     0.054 SA
BRANCH   6   9
ATOM      9  C   UNL d   1      59.896  -2.454  28.946  0.00  0.00     0.036 A 
ATOM     10  C   UNL d   1      60.692  -2.550  29.129  0.00  0.00     0.003 A 
ATOM     11  C   UNL d   1      61.057  -3.281  29.013  0.00  0.00     0.000 A 
ATOM     12  C   UNL d   1      60.625  -3.914  28.715  0.00  0.00     0.000 A 
ATOM     13  C   UNL d   1      59.826  -3.820  28.531  0.00  0.00     0.000 A 
ATOM     14  C   UNL d   1      59.461  -3.089  28.646  0.00  0.00     0.003 A 
ENDBRANCH   6   9
ENDBRANCH   1   4
BRANCH   2  15
ATOM     15  C   UNL d   1      57.567   0.571  30.781  0.00  0.00     0.070 C 
BRANCH  15  16
ATOM     16  C   UNL d   1      57.257   0.327  31.506  0.00  0.00     0.042 C 
BRANCH  16  17
ATOM     17  S   UNL d   1      56.530   0.624  31.756  0.00  0.00    -0.059 SA
BRANCH  17  18
ATOM     18  C   UNL d   1      56.185   0.333  32.447  0.00  0.00     0.164 A 
ATOM     19  S   UNL d   1      56.008   0.682  33.176  0.00  0.00    -0.039 SA
ATOM     20  C   UNL d   1      55.664   0.108  33.652  0.00  0.00     0.134 A 
ATOM     21  C   UNL d   1      55.399   0.219  34.436  0.00  0.00     0.030 C 
ATOM     22  N   UNL d   1      55.625  -0.593  33.224  0.00  0.00    -0.140 NA
ATOM     23  N   UNL d   1      55.945  -0.455  32.484  0.00  0.00    -0.134 NA
ENDBRANCH  17  18
ENDBRANCH  16  17
ENDBRANCH  15  16
ENDBRANCH   2  15
TORSDOF 6
ENDMDL
MODEL 2
REMARK VINA RESULT:      -3.7      0.977      5.914
REMARK  6 active torsions:
REMARK  status: ('A' for Active; 'I' for Inactive)
REMARK    1  A    between atoms: N_10  and  C_2 
REMARK    2  A    between atoms: C_13  and  C_3 
REMARK    3  A    between atoms: C_6  and  S_15 
REMARK       I    between atoms: C_12  and  N_10 
REMARK    4  A    between atoms: C_14  and  C_12 
REMARK    5  A    between atoms: C_17  and  C_14 
REMARK    6  A    between atoms: S_15  and  C_17 
ROOT
ATOM      1  N   UNL d   1      57.399  -0.502  31.011  0.00  0.00    -0.181 NA
ATOM      2  C   UNL d   1      57.808  -0.112  30.410  0.00  0.00     0.282 C 
ATOM      3  O   UNL d   1      58.028   0.682  30.500  0.00  0.00    -0.265 OA
ENDROOT
BRANCH   1   4
ATOM      4  C   UNL d   1      57.199  -0.105  31.718  0.00  0.00     0.216 A 
ATOM      5  N   UNL d   1      56.487  -0.178  32.128  0.00  0.00    -0.200 NA
ATOM      6  C   UNL d   1      56.531   0.311  32.789  0.00  0.00     0.172 A 
ATOM      7  N   UNL d   1      57.263   0.676  32.778  0.00  0.00    -0.187 NA
ATOM      8  S   UNL d   1      57.673   0.420  32.120  0.00  0.00     0.054 SA
BRANCH   6   9
ATOM      9  C   UNL d   1      55.961   0.435  33.377  0.00  0.00     0.036 A 
ATOM     10  C   UNL d   1      55.171   0.536  33.169  0.00  0.00     0.003 A 
ATOM     11  C   UNL d   1      54.603   0.660  33.754  0.00  0.00     0.000 A 
ATOM     12  C   UNL d   1      54.825   0.682  34.546  0.00  0.00     0.000 A 
ATOM     13  C   UNL d   1      55.617   0.580  34.756  0.00  0.00     0.000 A 
ATOM     14  C   UNL d   1      56.185   0.457  34.171  0.00  0.00     0.003 A 
ENDBRANCH   6   9
ENDBRANCH   1   4
BRANCH   2  15
ATOM     15  C   UNL d   1      58.004  -0.514  29.710  0.00  0.00     0.070 C 
BRANCH  15  16
ATOM     16  C   UNL d   1      58.757  -0.834  29.613  0.00  0.00     0.042 C 
BRANCH  16  17
ATOM     17  S   UNL d   1      58.951  -1.205  28.902  0.00  0.00    -0.059 SA
BRANCH  17  18
ATOM     18  C   UNL d   1      59.650  -1.641  28.846  0.00  0.00     0.164 A 
ATOM     19  S   UNL d   1      59.804  -2.453  28.813  0.00  0.00    -0.039 SA
ATOM     20  C   UNL d   1      60.617  -2.553  28.759  0.00  0.00     0.134 A 
ATOM     21  C   UNL d   1      61.018  -3.284  28.713  0.00  0.00     0.030 C 
ATOM     22  N   UNL d   1      60.969  -1.809  28.758  0.00  0.00    -0.140 NA
ATOM     23  N   UNL d   1      60.375  -1.250  28.811  0.00  0.00    -0.134 NA
ENDBRANCH  17  18
ENDBRANCH  16  17
ENDBRANCH  15  16
ENDBRANCH   2  15
TORSDOF 6
ENDMDL
