MODEL 1
REMARK VINA RESULT:      14.6      0.000      0.000
REMARK  7 active torsions:
REMARK  status: ('A' for Active; 'I' for Inactive)
REMARK    1  A    between atoms: C_11  and  C_3 
REMARK    2  A    between atoms: C_10  and  C_5 
REMARK    3  A    between atoms: O_22  and  C_13 
REMARK    4  A    between atoms: O_25  and  C_14 
REMARK    5  A    between atoms: O_24  and  C_15 
REMARK    6  A    between atoms: O_26  and  C_21 
REMARK    7  A    between atoms: C_30  and  O_26 
ROOT
ATOM      1  N   UNL d   1      57.958  -1.577  30.616  0.00  0.00    -0.208 N 
ATOM      2  N   UNL d   1      58.297  -2.044  30.030  0.00  0.00    -0.162 NA
ATOM      3  C   UNL d   1      58.182  -0.848  30.932  0.00  0.00     0.184 A 
ATOM      4  C   UNL d   1      57.281  -1.956  30.897  0.00  0.00     0.088 A 
ATOM      5  C   UNL d   1      57.824  -2.722  29.947  0.00  0.00     0.126 A 
ATOM      6  O   UNL d   1      57.731  -0.500  31.526  0.00  0.00    -0.287 OA
ATOM      7  C   UNL d   1      56.828  -1.606  31.494  0.00  0.00     0.043 A 
ATOM      8  C   UNL d   1      57.055  -0.880  31.807  0.00  0.00     0.126 A 
ATOM      9  C   UNL d   1      57.196  -2.665  30.484  0.00  0.00     0.042 A 
ATOM     10  C   UNL d   1      56.611  -0.527  32.398  0.00  0.00     0.123 A 
ATOM     11  C   UNL d   1      56.154  -1.987  31.772  0.00  0.00     0.004 A 
ATOM     12  C   UNL d   1      55.705  -1.641  32.363  0.00  0.00     0.002 A 
ATOM     13  C   UNL d   1      55.935  -0.907  32.679  0.00  0.00     0.027 A 
ENDROOT
BRANCH   3  14
ATOM     14  C   UNL d   1      58.858  -0.469  30.651  0.00  0.00     0.045 A 
ATOM     15  C   UNL d   1      59.543  -0.439  31.120  0.00  0.00     0.030 A 
ATOM     16  C   UNL d   1      60.220  -0.059  30.839  0.00  0.00     0.118 A 
ATOM     17  C   UNL d   1      60.222   0.290  30.096  0.00  0.00     0.138 A 
ATOM     18  C   UNL d   1      59.534   0.259  29.625  0.00  0.00     0.118 A 
ATOM     19  C   UNL d   1      58.857  -0.120  29.906  0.00  0.00     0.030 A 
BRANCH  16  20
ATOM     20  O   UNL d   1      60.897  -0.031  31.307  0.00  0.00    -0.326 OA
ATOM     21  C   UNL d   1      60.941   0.502  31.938  0.00  0.00     0.181 C 
ENDBRANCH  16  20
BRANCH  17  22
ATOM     22  O   UNL d   1      60.899   0.669  29.816  0.00  0.00    -0.324 OA
ATOM     23  C   UNL d   1      61.125   0.576  29.028  0.00  0.00     0.182 C 
ENDBRANCH  17  22
BRANCH  18  24
ATOM     24  O   UNL d   1      59.529   0.608  28.878  0.00  0.00    -0.326 OA
ATOM     25  C   UNL d   1      58.820   0.678  28.457  0.00  0.00     0.181 C 
ENDBRANCH  18  24
ENDBRANCH   3  14
BRANCH   5  26
ATOM     26  C   UNL d   1      57.958  -3.348  29.415  0.00  0.00     0.119 A 
ATOM     27  O   UNL d   1      57.500  -4.030  29.344  0.00  0.00    -0.306 OA
ATOM     28  C   UNL d   1      57.844  -4.496  28.744  0.00  0.00     0.100 A 
ATOM     29  C   UNL d   1      57.563  -5.227  28.492  0.00  0.00     0.027 C 
ATOM     30  C   UNL d   1      58.509  -4.093  28.455  0.00  0.00     0.027 A 
ATOM     31  C   UNL d   1      58.590  -3.386  28.859  0.00  0.00     0.028 A 
ENDBRANCH   5  26
BRANCH  10  32
ATOM     32  O   UNL d   1      56.835   0.201  32.714  0.00  0.00    -0.303 OA
BRANCH  32  33
ATOM     33  C   UNL d   1      56.857   0.313  33.533  0.00  0.00     0.123 C 
ATOM     34  C   UNL d   1      57.503   0.682  33.882  0.00  0.00     0.029 C 
ENDBRANCH  32  33
ENDBRANCH  10  32
TORSDOF 7
ENDMDL
MODEL 2
REMARK VINA RESULT:      16.4      1.110      3.729
REMARK  7 active torsions:
REMARK  status: ('A' for Active; 'I' for Inactive)
REMARK    1  A    between atoms: C_11  and  C_3 
REMARK    2  A    between atoms: C_10  and  C_5 
REMARK    3  A    between atoms: O_22  and  C_13 
REMARK    4  A    between atoms: O_25  and  C_14 
REMARK    5  A    between atoms: O_24  and  C_15 
REMARK    6  A    between atoms: O_26  and  C_21 
REMARK    7  A    between atoms: C_30  and  O_26 
ROOT
ATOM      1  N   UNL d   1      58.642  -1.631  29.722  0.00  0.00    -0.208 N 
ATOM      2  N   UNL d   1      58.108  -2.255  29.676  0.00  0.00    -0.162 NA
ATOM      3  C   UNL d   1      58.636  -0.939  30.171  0.00  0.00     0.184 A 
ATOM      4  C   UNL d   1      59.269  -1.782  29.208  0.00  0.00     0.088 A 
ATOM      5  C   UNL d   1      58.409  -2.800  29.126  0.00  0.00     0.126 A 
ATOM      6  O   UNL d   1      59.254  -0.400  30.107  0.00  0.00    -0.287 OA
ATOM      7  C   UNL d   1      59.891  -1.240  29.143  0.00  0.00     0.043 A 
ATOM      8  C   UNL d   1      59.881  -0.551  29.593  0.00  0.00     0.126 A 
ATOM      9  C   UNL d   1      59.127  -2.505  28.838  0.00  0.00     0.042 A 
ATOM     10  C   UNL d   1      60.493  -0.010  29.534  0.00  0.00     0.123 A 
ATOM     11  C   UNL d   1      60.515  -1.394  28.630  0.00  0.00     0.004 A 
ATOM     12  C   UNL d   1      61.131  -0.858  28.565  0.00  0.00     0.002 A 
ATOM     13  C   UNL d   1      61.121  -0.161  29.020  0.00  0.00     0.027 A 
ENDROOT
BRANCH   3  14
ATOM     14  C   UNL d   1      58.008  -0.788  30.686  0.00  0.00     0.045 A 
ATOM     15  C   UNL d   1      57.519  -0.128  30.562  0.00  0.00     0.030 A 
ATOM     16  C   UNL d   1      56.892   0.023  31.076  0.00  0.00     0.118 A 
ATOM     17  C   UNL d   1      56.746  -0.476  31.712  0.00  0.00     0.138 A 
ATOM     18  C   UNL d   1      57.238  -1.140  31.835  0.00  0.00     0.118 A 
ATOM     19  C   UNL d   1      57.865  -1.290  31.321  0.00  0.00     0.030 A 
BRANCH  16  20
ATOM     20  O   UNL d   1      56.409   0.678  30.951  0.00  0.00    -0.326 OA
ATOM     21  C   UNL d   1      55.854   0.671  30.338  0.00  0.00     0.181 C 
ENDBRANCH  16  20
BRANCH  17  22
ATOM     22  O   UNL d   1      56.119  -0.324  32.225  0.00  0.00    -0.324 OA
ATOM     23  C   UNL d   1      56.264   0.030  32.957  0.00  0.00     0.182 C 
ENDBRANCH  17  22
BRANCH  18  24
ATOM     24  O   UNL d   1      57.097  -1.645  32.472  0.00  0.00    -0.326 OA
ATOM     25  C   UNL d   1      56.360  -2.011  32.555  0.00  0.00     0.181 C 
ENDBRANCH  18  24
ENDBRANCH   3  14
BRANCH   5  26
ATOM     26  C   UNL d   1      58.050  -3.517  28.903  0.00  0.00     0.119 A 
ATOM     27  O   UNL d   1      58.396  -4.265  28.943  0.00  0.00    -0.306 OA
ATOM     28  C   UNL d   1      57.832  -4.812  28.664  0.00  0.00     0.100 A 
ATOM     29  C   UNL d   1      57.946  -5.625  28.609  0.00  0.00     0.027 C 
ATOM     30  C   UNL d   1      57.147  -4.392  28.457  0.00  0.00     0.027 A 
ATOM     31  C   UNL d   1      57.268  -3.595  28.599  0.00  0.00     0.028 A 
ENDBRANCH   5  26
BRANCH  10  32
ATOM     32  O   UNL d   1      60.487   0.682  29.983  0.00  0.00    -0.303 OA
BRANCH  32  33
ATOM     33  C   UNL d   1      60.361   0.649  30.800  0.00  0.00     0.123 C 
ATOM     34  C   UNL d   1      60.999   0.679  31.317  0.00  0.00     0.029 C 
ENDBRANCH  32  33
ENDBRANCH  10  32
TORSDOF 7
ENDMDL
