MODEL 1
REMARK VINA RESULT:      -4.6      0.000      0.000
REMARK  3 active torsions:
REMARK  status: ('A' for Active; 'I' for Inactive)
REMARK    1  A    between atoms: C_2  and  C_1 
REMARK    2  A    between atoms: N_5  and  C_2 
REMARK    3  A    between atoms: C_9  and  C_4 
ROOT
ATOM      1  C   UNL d   1     -41.594-122.869 -51.216  0.00  0.00     0.126 A 
ATOM      2  O   UNL d   1     -41.882-123.002 -51.977  0.00  0.00    -0.305 OA
ATOM      3  C   UNL d   1     -41.592-122.398 -52.460  0.00  0.00     0.100 A 
ATOM      4  C   UNL d   1     -41.128-122.185 -51.236  0.00  0.00     0.029 A 
ATOM      5  C   UNL d   1     -41.126-121.898 -51.994  0.00  0.00     0.027 A 
ENDROOT
BRANCH   1   6
ATOM      6  C   UNL d   1     -41.699-123.284 -50.520  0.00  0.00     0.143 C 
ATOM      7  S   UNL d   1     -41.123-123.817 -50.268  0.00  0.00    -0.057 SA
BRANCH   6   8
ATOM      8  N   UNL d   1     -42.376-123.172 -50.069  0.00  0.00    -0.290 N 
ATOM      9  C   UNL d   1     -42.460-122.502 -49.595  0.00  0.00     0.108 A 
ATOM     10  C   UNL d   1     -43.144-122.394 -49.142  0.00  0.00     0.142 A 
ATOM     11  O   UNL d   1     -43.738-122.964 -49.171  0.00  0.00    -0.300 OA
ATOM     12  C   UNL d   1     -43.656-123.635 -49.644  0.00  0.00     0.142 A 
ATOM     13  C   UNL d   1     -42.975-123.734 -50.090  0.00  0.00     0.108 A 
ENDBRANCH   6   8
ENDBRANCH   1   6
BRANCH   3  14
ATOM     14  C   UNL d   1     -41.743-122.316 -53.257  0.00  0.00     0.023 A 
ATOM     15  C   UNL d   1     -41.348-122.799 -53.798  0.00  0.00     0.003 A 
ATOM     16  C   UNL d   1     -41.493-122.725 -54.598  0.00  0.00     0.007 A 
ATOM     17  C   UNL d   1     -42.036-122.165 -54.875  0.00  0.00     0.035 A 
ATOM     18  C   UNL d   1     -42.433-121.680 -54.335  0.00  0.00     0.007 A 
ATOM     19 BR   UNL d   1     -42.182-122.091 -55.684  0.00  0.00    -0.049 Br
ATOM     20  C   UNL d   1     -42.289-121.754 -53.539  0.00  0.00     0.003 A 
ENDBRANCH   3  14
TORSDOF 3
ENDMDL
MODEL 2
REMARK VINA RESULT:      -4.2      2.298      4.375
REMARK  3 active torsions:
REMARK  status: ('A' for Active; 'I' for Inactive)
REMARK    1  A    between atoms: C_2  and  C_1 
REMARK    2  A    between atoms: N_5  and  C_2 
REMARK    3  A    between atoms: C_9  and  C_4 
ROOT
ATOM      1  C   UNL d   1     -41.463-122.838 -52.830  0.00  0.00     0.126 A 
ATOM      2  O   UNL d   1     -41.768-123.188 -52.148  0.00  0.00    -0.305 OA
ATOM      3  C   UNL d   1     -41.613-122.677 -51.517  0.00  0.00     0.100 A 
ATOM      4  C   UNL d   1     -41.123-122.114 -52.614  0.00  0.00     0.029 A 
ATOM      5  C   UNL d   1     -41.214-122.016 -51.814  0.00  0.00     0.027 A 
ENDROOT
BRANCH   1   6
ATOM      6  C   UNL d   1     -41.456-123.088 -53.607  0.00  0.00     0.143 C 
ATOM      7  S   UNL d   1     -41.124-123.817 -53.802  0.00  0.00    -0.057 SA
BRANCH   6   8
ATOM      8  N   UNL d   1     -41.778-122.617 -54.198  0.00  0.00    -0.290 N 
ATOM      9  C   UNL d   1     -42.564-122.368 -54.155  0.00  0.00     0.108 A 
ATOM     10  C   UNL d   1     -42.883-121.894 -54.753  0.00  0.00     0.142 A 
ATOM     11  O   UNL d   1     -42.409-121.674 -55.390  0.00  0.00    -0.300 OA
ATOM     12  C   UNL d   1     -41.623-121.923 -55.434  0.00  0.00     0.142 A 
ATOM     13  C   UNL d   1     -41.314-122.393 -54.837  0.00  0.00     0.108 A 
ENDBRANCH   6   8
ENDBRANCH   1   6
BRANCH   3  14
ATOM     14  C   UNL d   1     -41.820-122.809 -50.740  0.00  0.00     0.023 A 
ATOM     15  C   UNL d   1     -42.486-122.436 -50.427  0.00  0.00     0.003 A 
ATOM     16  C   UNL d   1     -42.702-122.562 -49.650  0.00  0.00     0.007 A 
ATOM     17  C   UNL d   1     -42.255-123.066 -49.168  0.00  0.00     0.035 A 
ATOM     18  C   UNL d   1     -41.587-123.442 -49.480  0.00  0.00     0.007 A 
ATOM     19 BR   UNL d   1     -42.474-123.193 -48.383  0.00  0.00    -0.049 Br
ATOM     20  C   UNL d   1     -41.373-123.315 -50.253  0.00  0.00     0.003 A 
ENDBRANCH   3  14
TORSDOF 3
ENDMDL
MODEL 3
REMARK VINA RESULT:      -2.1      1.339      1.657
REMARK  3 active torsions:
REMARK  status: ('A' for Active; 'I' for Inactive)
REMARK    1  A    between atoms: C_2  and  C_1 
REMARK    2  A    between atoms: N_5  and  C_2 
REMARK    3  A    between atoms: C_9  and  C_4 
ROOT
ATOM      1  C   UNL d   1     -42.195-122.924 -50.400  0.00  0.00     0.126 A 
ATOM      2  O   UNL d   1     -42.170-123.185 -51.181  0.00  0.00    -0.305 OA
ATOM      3  C   UNL d   1     -41.747-122.624 -51.616  0.00  0.00     0.100 A 
ATOM      4  C   UNL d   1     -41.788-122.204 -50.358  0.00  0.00     0.029 A 
ATOM      5  C   UNL d   1     -41.514-122.021 -51.100  0.00  0.00     0.027 A 
ENDROOT
BRANCH   1   6
ATOM      6  C   UNL d   1     -42.535-123.251 -49.733  0.00  0.00     0.143 C 
ATOM      7  S   UNL d   1     -43.288-123.583 -49.775  0.00  0.00    -0.057 SA
BRANCH   6   8
ATOM      8  N   UNL d   1     -42.130-123.251 -49.018  0.00  0.00    -0.290 N 
ATOM      9  C   UNL d   1     -42.316-122.703 -48.429  0.00  0.00     0.108 A 
ATOM     10  C   UNL d   1     -41.905-122.707 -47.711  0.00  0.00     0.142 A 
ATOM     11  O   UNL d   1     -41.310-123.264 -47.592  0.00  0.00    -0.300 OA
ATOM     12  C   UNL d   1     -41.123-123.812 -48.179  0.00  0.00     0.142 A 
ATOM     13  C   UNL d   1     -41.535-123.801 -48.888  0.00  0.00     0.108 A 
ENDBRANCH   6   8
ENDBRANCH   1   6
BRANCH   3  14
ATOM     14  C   UNL d   1     -41.590-122.665 -52.415  0.00  0.00     0.023 A 
ATOM     15  C   UNL d   1     -41.705-121.998 -52.887  0.00  0.00     0.003 A 
ATOM     16  C   UNL d   1     -41.550-122.030 -53.689  0.00  0.00     0.007 A 
ATOM     17  C   UNL d   1     -41.278-122.730 -54.035  0.00  0.00     0.035 A 
ATOM     18  C   UNL d   1     -41.163-123.401 -53.563  0.00  0.00     0.007 A 
ATOM     19 BR   UNL d   1     -41.123-122.762 -54.845  0.00  0.00    -0.049 Br
ATOM     20  C   UNL d   1     -41.316-123.368 -52.766  0.00  0.00     0.003 A 
ENDBRANCH   3  14
TORSDOF 3
ENDMDL
