MODEL 1
REMARK VINA RESULT:     123.0      0.000      0.000
REMARK  6 active torsions:
REMARK  status: ('A' for Active; 'I' for Inactive)
REMARK    1  A    between atoms: C_5  and  S_1 
REMARK    2  A    between atoms: N_6  and  S_1 
REMARK       I    between atoms: N_2  and  C_3 
REMARK    3  A    between atoms: C_3  and  C_14 
REMARK    4  A    between atoms: C_4  and  C_7 
REMARK    5  A    between atoms: C_23  and  N_6 
REMARK    6  A    between atoms: C_24  and  C_23 
ROOT
ATOM      1  C   UNL d   1      61.362  43.556  51.883  0.00  0.00     0.057 A 
ATOM      2  C   UNL d   1      61.448  44.087  52.509  0.00  0.00     0.005 A 
ATOM      3  C   UNL d   1      61.074  43.822  51.156  0.00  0.00     0.005 A 
ATOM      4  C   UNL d   1      60.959  45.141  51.683  0.00  0.00     0.020 A 
ATOM      5  C   UNL d   1      61.247  44.877  52.410  0.00  0.00     0.002 A 
ATOM      6  C   UNL d   1      60.872  44.614  51.056  0.00  0.00     0.002 A 
ENDROOT
BRANCH   4   7
ATOM      7  C   UNL d   1      60.757  45.933  51.583  0.00  0.00     0.112 C 
BRANCH   7   8
ATOM      8  N   UNL d   1      61.337  46.484  51.403  0.00  0.00    -0.157 NA
BRANCH   8   9
ATOM      9  S   UNL d   1      61.127  47.286  51.303  0.00  0.00     0.285 S 
ATOM     10  O   UNL d   1      61.114  47.378  52.135  0.00  0.00    -0.198 OA
ATOM     11  O   UNL d   1      61.141  47.191  50.485  0.00  0.00    -0.198 OA
BRANCH   9  12
ATOM     12  C   UNL d   1      60.919  48.079  51.215  0.00  0.00     0.105 A 
ATOM     13  C   UNL d   1      60.628  48.352  50.499  0.00  0.00     0.017 A 
ATOM     14  C   UNL d   1      60.419  49.146  50.410  0.00  0.00     0.072 A 
ATOM     15  C   UNL d   1      60.506  49.665  51.051  0.00  0.00     0.004 A 
ATOM     16  C   UNL d   1      60.797  49.392  51.768  0.00  0.00     0.001 A 
ATOM     17  C   UNL d   1      61.002  48.599  51.847  0.00  0.00     0.013 A 
BRANCH  14  18
ATOM     18  C   UNL d   1      60.127  49.423  49.695  0.00  0.00     0.419 C 
ATOM     19  F   UNL d   1      60.821  49.179  49.316  0.00  0.00    -0.166 F 
ATOM     20  F   UNL d   1      59.430  49.669  50.071  0.00  0.00    -0.166 F 
ATOM     21  F   UNL d   1      59.832  49.704  48.971  0.00  0.00    -0.166 F 
ENDBRANCH  14  18
ENDBRANCH   9  12
ENDBRANCH   8   9
ENDBRANCH   7   8
ENDBRANCH   4   7
BRANCH   1  22
ATOM     22  C   UNL d   1      61.567  42.751  51.983  0.00  0.00     0.265 C 
ATOM     23  N   UNL d   1      62.063  42.380  51.431  0.00  0.00    -0.268 N 
ATOM     24  C   UNL d   1      62.353  42.806  50.785  0.00  0.00     0.108 A 
ATOM     25  C   UNL d   1      62.263  41.588  51.532  0.00  0.00     0.108 A 
ATOM     26  C   UNL d   1      62.849  42.431  50.234  0.00  0.00     0.118 A 
ATOM     27  C   UNL d   1      63.141  42.857  49.585  0.00  0.00     0.028 C 
ATOM     28  O   UNL d   1      63.050  41.637  50.334  0.00  0.00    -0.304 OA
ATOM     29  C   UNL d   1      62.761  41.208  50.980  0.00  0.00     0.118 A 
ATOM     30  C   UNL d   1      62.965  40.412  51.077  0.00  0.00     0.028 C 
ATOM     31  O   UNL d   1      61.274  42.329  52.632  0.00  0.00    -0.267 OA
ENDBRANCH   1  22
TORSDOF 6
ENDMDL
