MODEL 1
REMARK VINA RESULT:      -1.8      0.000      0.000
REMARK  5 active torsions:
REMARK  status: ('A' for Active; 'I' for Inactive)
REMARK    1  A    between atoms: N_8  and  C_1 
REMARK    2  A    between atoms: C_11  and  C_2 
REMARK    3  A    between atoms: C_4  and  C_6 
REMARK       I    between atoms: C_6  and  N_8 
REMARK    4  A    between atoms: O_17  and  C_11 
REMARK    5  A    between atoms: C_19  and  O_17 
ROOT
ATOM      1  C   UNL d   1     -41.337-122.985 -52.453  0.00  0.00     0.114 A 
ATOM      2  C   UNL d   1     -41.856-122.539 -51.317  0.00  0.00     0.094 A 
ATOM      3  S   UNL d   1     -41.792-123.181 -51.797  0.00  0.00    -0.062 SA
ATOM      4  C   UNL d   1     -41.422-121.929 -51.697  0.00  0.00     0.013 A 
ATOM      5  C   UNL d   1     -41.123-122.204 -52.364  0.00  0.00     0.027 A 
ATOM      6  C   UNL d   1     -41.325-121.159 -51.416  0.00  0.00     0.001 C 
ENDROOT
BRANCH   1   7
ATOM      7  N   UNL d   1     -41.124-123.493 -53.108  0.00  0.00    -0.201 NA
ATOM      8  C   UNL d   1     -41.401-123.322 -53.857  0.00  0.00     0.286 C 
ATOM      9  O   UNL d   1     -41.191-123.817 -54.485  0.00  0.00    -0.265 OA
BRANCH   8  10
ATOM     10  C   UNL d   1     -41.882-122.665 -53.980  0.00  0.00     0.088 A 
ATOM     11  S   UNL d   1     -41.639-121.949 -54.280  0.00  0.00    -0.071 SA
ATOM     12  C   UNL d   1     -42.288-121.451 -54.310  0.00  0.00     0.087 A 
ATOM     13 CL   UNL d   1     -42.258-120.693 -54.579  0.00  0.00    -0.075 Cl
ATOM     14  C   UNL d   1     -42.951-121.887 -54.016  0.00  0.00     0.019 A 
ATOM     15  C   UNL d   1     -42.695-122.619 -53.818  0.00  0.00     0.013 A 
ENDBRANCH   8  10
ENDBRANCH   1   7
BRANCH   2  16
ATOM     16  C   UNL d   1     -42.265-122.486 -50.595  0.00  0.00     0.306 C 
ATOM     17  O   UNL d   1     -42.860-121.935 -50.529  0.00  0.00    -0.258 OA
BRANCH  16  18
ATOM     18  O   UNL d   1     -42.084-122.968 -49.963  0.00  0.00    -0.271 OA
BRANCH  18  19
ATOM     19  C   UNL d   1     -42.501-122.908 -49.260  0.00  0.00     0.126 C 
ATOM     20  C   UNL d   1     -42.260-123.361 -48.615  0.00  0.00     0.029 C 
ENDBRANCH  18  19
ENDBRANCH  16  18
ENDBRANCH   2  16
TORSDOF 5
ENDMDL
MODEL 2
REMARK VINA RESULT:      -1.5      2.164      4.023
REMARK  5 active torsions:
REMARK  status: ('A' for Active; 'I' for Inactive)
REMARK    1  A    between atoms: N_8  and  C_1 
REMARK    2  A    between atoms: C_11  and  C_2 
REMARK    3  A    between atoms: C_4  and  C_6 
REMARK       I    between atoms: C_6  and  N_8 
REMARK    4  A    between atoms: O_17  and  C_11 
REMARK    5  A    between atoms: C_19  and  O_17 
ROOT
ATOM      1  C   UNL d   1     -41.277-122.925 -50.115  0.00  0.00     0.114 A 
ATOM      2  C   UNL d   1     -41.542-122.733 -51.400  0.00  0.00     0.094 A 
ATOM      3  S   UNL d   1     -41.430-123.293 -50.834  0.00  0.00    -0.062 SA
ATOM      4  C   UNL d   1     -41.453-121.995 -51.009  0.00  0.00     0.013 A 
ATOM      5  C   UNL d   1     -41.298-122.122 -50.254  0.00  0.00     0.027 A 
ATOM      6  C   UNL d   1     -41.519-121.252 -51.361  0.00  0.00     0.001 C 
ENDROOT
BRANCH   1   7
ATOM      7  N   UNL d   1     -41.124-123.301 -49.361  0.00  0.00    -0.201 NA
ATOM      8  C   UNL d   1     -41.746-123.454 -48.854  0.00  0.00     0.286 C 
ATOM      9  O   UNL d   1     -41.591-123.817 -48.128  0.00  0.00    -0.265 OA
BRANCH   8  10
ATOM     10  C   UNL d   1     -42.514-123.249 -49.069  0.00  0.00     0.088 A 
ATOM     11  S   UNL d   1     -43.097-123.767 -49.299  0.00  0.00    -0.071 SA
ATOM     12  C   UNL d   1     -43.773-123.335 -49.463  0.00  0.00     0.087 A 
ATOM     13 CL   UNL d   1     -44.465-123.665 -49.708  0.00  0.00    -0.075 Cl
ATOM     14  C   UNL d   1     -43.589-122.521 -49.325  0.00  0.00     0.019 A 
ATOM     15  C   UNL d   1     -42.825-122.480 -49.087  0.00  0.00     0.013 A 
ENDBRANCH   8  10
ENDBRANCH   1   7
BRANCH   2  16
ATOM     16  C   UNL d   1     -41.711-122.854 -52.205  0.00  0.00     0.306 C 
ATOM     17  O   UNL d   1     -42.487-122.813 -52.447  0.00  0.00    -0.258 OA
BRANCH  16  18
ATOM     18  O   UNL d   1     -41.123-123.011 -52.747  0.00  0.00    -0.271 OA
BRANCH  18  19
ATOM     19  C   UNL d   1     -41.297-123.063 -53.547  0.00  0.00     0.126 C 
ATOM     20  C   UNL d   1     -41.336-123.809 -53.897  0.00  0.00     0.029 C 
ENDBRANCH  18  19
ENDBRANCH  16  18
ENDBRANCH   2  16
TORSDOF 5
ENDMDL
MODEL 3
REMARK VINA RESULT:      -1.3      1.762      3.984
REMARK  5 active torsions:
REMARK  status: ('A' for Active; 'I' for Inactive)
REMARK    1  A    between atoms: N_8  and  C_1 
REMARK    2  A    between atoms: C_11  and  C_2 
REMARK    3  A    between atoms: C_4  and  C_6 
REMARK       I    between atoms: C_6  and  N_8 
REMARK    4  A    between atoms: O_17  and  C_11 
REMARK    5  A    between atoms: C_19  and  O_17 
ROOT
ATOM      1  C   UNL d   1     -41.436-121.981 -52.212  0.00  0.00     0.114 A 
ATOM      2  C   UNL d   1     -41.865-122.517 -53.346  0.00  0.00     0.094 A 
ATOM      3  S   UNL d   1     -41.894-121.860 -52.883  0.00  0.00    -0.062 SA
ATOM      4  C   UNL d   1     -41.369-123.059 -52.938  0.00  0.00     0.013 A 
ATOM      5  C   UNL d   1     -41.123-122.731 -52.273  0.00  0.00     0.027 A 
ATOM      6  C   UNL d   1     -41.169-123.817 -53.195  0.00  0.00     0.001 C 
ENDROOT
BRANCH   1   7
ATOM      7  N   UNL d   1     -41.304-121.434 -51.566  0.00  0.00    -0.201 NA
ATOM      8  C   UNL d   1     -41.490-121.659 -50.803  0.00  0.00     0.286 C 
ATOM      9  O   UNL d   1     -41.361-121.125 -50.185  0.00  0.00    -0.265 OA
BRANCH   8  10
ATOM     10  C   UNL d   1     -41.801-122.407 -50.657  0.00  0.00     0.088 A 
ATOM     11  S   UNL d   1     -42.564-122.567 -50.427  0.00  0.00    -0.071 SA
ATOM     12  C   UNL d   1     -42.642-123.377 -50.343  0.00  0.00     0.087 A 
ATOM     13 CL   UNL d   1     -43.325-123.740 -50.121  0.00  0.00    -0.075 Cl
ATOM     14  C   UNL d   1     -41.892-123.721 -50.531  0.00  0.00     0.019 A 
ATOM     15  C   UNL d   1     -41.390-123.126 -50.720  0.00  0.00     0.013 A 
ENDBRANCH   8  10
ENDBRANCH   1   7
BRANCH   2  16
ATOM     16  C   UNL d   1     -42.244-122.639 -54.075  0.00  0.00     0.306 C 
ATOM     17  O   UNL d   1     -42.521-123.386 -54.245  0.00  0.00    -0.258 OA
BRANCH  16  18
ATOM     18  O   UNL d   1     -42.343-122.035 -54.614  0.00  0.00    -0.271 OA
BRANCH  18  19
ATOM     19  C   UNL d   1     -42.249-122.174 -55.416  0.00  0.00     0.126 C 
ATOM     20  C   UNL d   1     -42.290-121.536 -55.937  0.00  0.00     0.029 C 
ENDBRANCH  18  19
ENDBRANCH  16  18
ENDBRANCH   2  16
TORSDOF 5
ENDMDL
