MODEL 1
REMARK VINA RESULT:      -9.0      0.000      0.000
REMARK  3 active torsions:
REMARK  status: ('A' for Active; 'I' for Inactive)
REMARK    1  A    between atoms: C_8  and  N_1 
REMARK    2  A    between atoms: C_9  and  C_14 
REMARK       I    between atoms: N_10  and  C_9 
REMARK    3  A    between atoms: C_16  and  N_12 
ROOT
ATOM      1  C   UNL d   1      49.620  34.752  52.125  0.00  0.00     0.066 A 
ATOM      2  C   UNL d   1      50.622  33.795  52.474  0.00  0.00     0.058 A 
ATOM      3  C   UNL d   1      49.912  34.183  52.639  0.00  0.00     0.022 A 
ATOM      4  C   UNL d   1      50.037  34.941  51.433  0.00  0.00     0.017 A 
ATOM      5  C   UNL d   1      51.040  33.984  51.782  0.00  0.00     0.005 A 
ATOM      6  C   UNL d   1      50.745  34.556  51.267  0.00  0.00     0.002 A 
ENDROOT
BRANCH   1   7
ATOM      7  N   UNL d   1      48.913  35.138  52.291  0.00  0.00    -0.261 N 
ATOM      8  C   UNL d   1      48.330  34.985  51.729  0.00  0.00     0.174 A 
ATOM      9  O   UNL d   1      47.540  35.223  51.628  0.00  0.00    -0.316 OA
ATOM     10  C   UNL d   1      48.306  35.691  52.765  0.00  0.00     0.079 A 
ATOM     11  C   UNL d   1      48.431  34.504  51.072  0.00  0.00     0.055 C 
ATOM     12  C   UNL d   1      47.015  35.705  52.043  0.00  0.00     0.094 A 
ATOM     13  C   UNL d   1      46.304  35.690  51.611  0.00  0.00     0.024 A 
ATOM     14  C   UNL d   1      47.058  36.155  52.735  0.00  0.00     0.022 A 
ATOM     15  C   UNL d   1      45.651  36.119  51.874  0.00  0.00     0.002 A 
ATOM     16  C   UNL d   1      45.701  36.567  52.568  0.00  0.00    -0.000 A 
ATOM     17  C   UNL d   1      46.405  36.584  52.998  0.00  0.00    -0.001 A 
ATOM     18  C   UNL d   1      47.641  36.307  53.297  0.00  0.00     0.137 A 
ATOM     19  N   UNL d   1      48.435  36.072  53.405  0.00  0.00    -0.216 NA
ATOM     20  C   UNL d   1      48.960  35.590  52.991  0.00  0.00     0.348 A 
ATOM     21  O   UNL d   1      49.697  35.549  53.353  0.00  0.00    -0.245 OA
ENDBRANCH   1   7
BRANCH   2  22
ATOM     22  C   UNL d   1      50.911  33.224  52.996  0.00  0.00     0.265 C 
ATOM     23  N   UNL d   1      51.664  33.305  53.319  0.00  0.00    -0.269 N 
ATOM     24  C   UNL d   1      52.137  33.954  53.128  0.00  0.00     0.102 A 
ATOM     25  C   UNL d   1      51.952  32.730  53.843  0.00  0.00     0.102 A 
ATOM     26  C   UNL d   1      52.888  34.027  53.455  0.00  0.00     0.100 A 
ATOM     27  N   UNL d   1      53.176  33.453  53.978  0.00  0.00    -0.299 N 
ATOM     28  C   UNL d   1      52.703  32.804  54.170  0.00  0.00     0.100 A 
ATOM     29  O   UNL d   1      50.440  32.570  53.192  0.00  0.00    -0.267 OA
BRANCH  27  30
ATOM     30  C   UNL d   1      53.927  33.531  54.303  0.00  0.00     0.092 A 
ATOM     31  C   UNL d   1      54.583  33.251  53.888  0.00  0.00     0.156 A 
ATOM     32  F   UNL d   1      54.479  32.895  53.150  0.00  0.00    -0.203 F 
ATOM     33  C   UNL d   1      55.343  33.327  54.211  0.00  0.00     0.031 A 
ATOM     34  C   UNL d   1      55.435  33.687  54.954  0.00  0.00     0.002 A 
ATOM     35  C   UNL d   1      54.773  33.967  55.367  0.00  0.00     0.002 A 
ATOM     36  C   UNL d   1      54.022  33.887  55.039  0.00  0.00     0.020 A 
ENDBRANCH  27  30
ENDBRANCH   2  22
TORSDOF 3
ENDMDL
MODEL 2
REMARK VINA RESULT:      -9.0      1.770      6.529
REMARK  3 active torsions:
REMARK  status: ('A' for Active; 'I' for Inactive)
REMARK    1  A    between atoms: C_8  and  N_1 
REMARK    2  A    between atoms: C_9  and  C_14 
REMARK       I    between atoms: N_10  and  C_9 
REMARK    3  A    between atoms: C_16  and  N_12 
ROOT
ATOM      1  C   UNL d   1      51.011  34.121  52.676  0.00  0.00     0.066 A 
ATOM      2  C   UNL d   1      49.808  34.891  52.642  0.00  0.00     0.058 A 
ATOM      3  C   UNL d   1      50.439  34.564  53.063  0.00  0.00     0.022 A 
ATOM      4  C   UNL d   1      50.961  33.999  51.857  0.00  0.00     0.017 A 
ATOM      5  C   UNL d   1      49.757  34.769  51.822  0.00  0.00     0.005 A 
ATOM      6  C   UNL d   1      50.334  34.324  51.436  0.00  0.00     0.002 A 
ENDROOT
BRANCH   1   7
ATOM      7  N   UNL d   1      51.639  33.796  53.098  0.00  0.00    -0.261 N 
ATOM      8  C   UNL d   1      52.246  34.338  53.230  0.00  0.00     0.174 A 
ATOM      9  O   UNL d   1      52.983  34.306  53.612  0.00  0.00    -0.316 OA
ATOM     10  C   UNL d   1      52.134  33.134  53.561  0.00  0.00     0.079 A 
ATOM     11  C   UNL d   1      52.237  35.118  52.974  0.00  0.00     0.055 C 
ATOM     12  C   UNL d   1      53.411  33.729  54.014  0.00  0.00     0.094 A 
ATOM     13  C   UNL d   1      54.118  34.095  54.253  0.00  0.00     0.024 A 
ATOM     14  C   UNL d   1      53.283  32.934  54.205  0.00  0.00     0.022 A 
ATOM     15  C   UNL d   1      54.684  33.668  54.676  0.00  0.00     0.002 A 
ATOM     16  C   UNL d   1      54.548  32.874  54.863  0.00  0.00    -0.000 A 
ATOM     17  C   UNL d   1      53.848  32.508  54.628  0.00  0.00    -0.001 A 
ATOM     18  C   UNL d   1      52.676  32.393  54.073  0.00  0.00     0.137 A 
ATOM     19  N   UNL d   1      51.934  32.417  53.691  0.00  0.00    -0.216 NA
ATOM     20  C   UNL d   1      51.506  32.994  53.289  0.00  0.00     0.348 A 
ATOM     21  O   UNL d   1      50.783  32.713  53.014  0.00  0.00    -0.245 OA
ENDBRANCH   1   7
BRANCH   2  22
ATOM     22  C   UNL d   1      49.235  35.336  53.036  0.00  0.00     0.265 C 
ATOM     23  N   UNL d   1      48.478  35.404  52.720  0.00  0.00    -0.269 N 
ATOM     24  C   UNL d   1      48.283  35.033  52.009  0.00  0.00     0.102 A 
ATOM     25  C   UNL d   1      47.903  35.852  53.118  0.00  0.00     0.102 A 
ATOM     26  C   UNL d   1      47.524  35.107  51.699  0.00  0.00     0.100 A 
ATOM     27  N   UNL d   1      46.950  35.553  52.097  0.00  0.00    -0.299 N 
ATOM     28  C   UNL d   1      47.146  35.925  52.808  0.00  0.00     0.100 A 
ATOM     29  O   UNL d   1      49.425  35.711  53.751  0.00  0.00    -0.267 OA
BRANCH  27  30
ATOM     30  C   UNL d   1      46.193  35.624  51.784  0.00  0.00     0.092 A 
ATOM     31  C   UNL d   1      45.547  35.345  52.212  0.00  0.00     0.156 A 
ATOM     32  F   UNL d   1      45.664  34.996  52.952  0.00  0.00    -0.203 F 
ATOM     33  C   UNL d   1      44.781  35.413  51.901  0.00  0.00     0.031 A 
ATOM     34  C   UNL d   1      44.675  35.766  51.156  0.00  0.00     0.002 A 
ATOM     35  C   UNL d   1      45.329  36.045  50.730  0.00  0.00     0.002 A 
ATOM     36  C   UNL d   1      46.085  35.973  51.047  0.00  0.00     0.020 A 
ENDBRANCH  27  30
ENDBRANCH   2  22
TORSDOF 3
ENDMDL
MODEL 3
REMARK VINA RESULT:      -8.8      2.354      6.477
REMARK  3 active torsions:
REMARK  status: ('A' for Active; 'I' for Inactive)
REMARK    1  A    between atoms: C_8  and  N_1 
REMARK    2  A    between atoms: C_9  and  C_14 
REMARK       I    between atoms: N_10  and  C_9 
REMARK    3  A    between atoms: C_16  and  N_12 
ROOT
ATOM      1  C   UNL d   1      53.077  32.610  53.335  0.00  0.00     0.066 A 
ATOM      2  C   UNL d   1      52.441  33.881  53.485  0.00  0.00     0.058 A 
ATOM      3  C   UNL d   1      52.453  33.065  53.613  0.00  0.00     0.022 A 
ATOM      4  C   UNL d   1      53.701  32.967  52.921  0.00  0.00     0.017 A 
ATOM      5  C   UNL d   1      53.066  34.238  53.071  0.00  0.00     0.005 A 
ATOM      6  C   UNL d   1      53.691  33.779  52.792  0.00  0.00     0.002 A 
ENDROOT
BRANCH   1   7
ATOM      7  N   UNL d   1      53.087  31.797  53.464  0.00  0.00    -0.261 N 
ATOM      8  C   UNL d   1      53.379  31.599  54.208  0.00  0.00     0.174 A 
ATOM      9  O   UNL d   1      53.506  30.885  54.614  0.00  0.00    -0.316 OA
ATOM     10  C   UNL d   1      52.962  30.877  53.272  0.00  0.00     0.079 A 
ATOM     11  C   UNL d   1      53.634  32.142  54.769  0.00  0.00     0.055 C 
ATOM     12  C   UNL d   1      53.396  30.086  54.444  0.00  0.00     0.094 A 
ATOM     13  C   UNL d   1      53.649  29.673  55.120  0.00  0.00     0.024 A 
ATOM     14  C   UNL d   1      53.111  29.661  53.795  0.00  0.00     0.022 A 
ATOM     15  C   UNL d   1      53.614  28.849  55.140  0.00  0.00     0.002 A 
ATOM     16  C   UNL d   1      53.327  28.431  54.486  0.00  0.00    -0.000 A 
ATOM     17  C   UNL d   1      53.076  28.837  53.814  0.00  0.00    -0.001 A 
ATOM     18  C   UNL d   1      52.819  29.860  53.050  0.00  0.00     0.137 A 
ATOM     19  N   UNL d   1      52.688  30.573  52.636  0.00  0.00    -0.216 NA
ATOM     20  C   UNL d   1      52.798  31.372  52.806  0.00  0.00     0.348 A 
ATOM     21  O   UNL d   1      52.571  31.858  52.183  0.00  0.00    -0.245 OA
ENDBRANCH   1   7
BRANCH   2  22
ATOM     22  C   UNL d   1      51.811  34.333  53.767  0.00  0.00     0.265 C 
ATOM     23  N   UNL d   1      51.146  34.450  53.297  0.00  0.00    -0.269 N 
ATOM     24  C   UNL d   1      51.099  34.119  52.542  0.00  0.00     0.102 A 
ATOM     25  C   UNL d   1      50.513  34.906  53.582  0.00  0.00     0.102 A 
ATOM     26  C   UNL d   1      50.431  34.241  52.078  0.00  0.00     0.100 A 
ATOM     27  N   UNL d   1      49.799  34.696  52.364  0.00  0.00    -0.299 N 
ATOM     28  C   UNL d   1      49.846  35.027  53.118  0.00  0.00     0.100 A 
ATOM     29  O   UNL d   1      51.852  34.668  54.524  0.00  0.00    -0.267 OA
BRANCH  27  30
ATOM     30  C   UNL d   1      49.133  34.815  51.896  0.00  0.00     0.092 A 
ATOM     31  C   UNL d   1      48.505  35.264  52.187  0.00  0.00     0.156 A 
ATOM     32  F   UNL d   1      48.550  35.589  52.945  0.00  0.00    -0.203 F 
ATOM     33  C   UNL d   1      47.831  35.387  51.721  0.00  0.00     0.031 A 
ATOM     34  C   UNL d   1      47.796  35.055  50.960  0.00  0.00     0.002 A 
ATOM     35  C   UNL d   1      48.431  34.604  50.672  0.00  0.00     0.002 A 
ATOM     36  C   UNL d   1      49.096  34.487  51.143  0.00  0.00     0.020 A 
ENDBRANCH  27  30
ENDBRANCH   2  22
TORSDOF 3
ENDMDL
MODEL 4
REMARK VINA RESULT:      -8.7      2.024      6.406
REMARK  3 active torsions:
REMARK  status: ('A' for Active; 'I' for Inactive)
REMARK    1  A    between atoms: C_8  and  N_1 
REMARK    2  A    between atoms: C_9  and  C_14 
REMARK       I    between atoms: N_10  and  C_9 
REMARK    3  A    between atoms: C_16  and  N_12 
ROOT
ATOM      1  C   UNL d   1      51.867  33.458  53.144  0.00  0.00     0.066 A 
ATOM      2  C   UNL d   1      50.948  34.270  52.411  0.00  0.00     0.058 A 
ATOM      3  C   UNL d   1      51.401  33.583  52.480  0.00  0.00     0.022 A 
ATOM      4  C   UNL d   1      51.887  34.023  53.751  0.00  0.00     0.017 A 
ATOM      5  C   UNL d   1      50.968  34.835  53.019  0.00  0.00     0.005 A 
ATOM      6  C   UNL d   1      51.437  34.708  53.684  0.00  0.00     0.002 A 
ENDROOT
BRANCH   1   7
ATOM      7  N   UNL d   1      52.318  32.773  53.211  0.00  0.00    -0.261 N 
ATOM      8  C   UNL d   1      51.855  32.097  53.296  0.00  0.00     0.174 A 
ATOM      9  O   UNL d   1      52.016  31.286  53.383  0.00  0.00    -0.316 OA
ATOM     10  C   UNL d   1      53.100  32.238  53.254  0.00  0.00     0.079 A 
ATOM     11  C   UNL d   1      51.034  32.094  53.313  0.00  0.00     0.055 C 
ATOM     12  C   UNL d   1      52.697  30.824  53.420  0.00  0.00     0.094 A 
ATOM     13  C   UNL d   1      52.436  30.040  53.513  0.00  0.00     0.024 A 
ATOM     14  C   UNL d   1      53.509  30.978  53.386  0.00  0.00     0.022 A 
ATOM     15  C   UNL d   1      52.982  29.425  53.570  0.00  0.00     0.002 A 
ATOM     16  C   UNL d   1      53.792  29.586  53.536  0.00  0.00    -0.000 A 
ATOM     17  C   UNL d   1      54.055  30.362  53.444  0.00  0.00    -0.001 A 
ATOM     18  C   UNL d   1      53.972  31.654  53.301  0.00  0.00     0.137 A 
ATOM     19  N   UNL d   1      53.818  32.470  53.213  0.00  0.00    -0.216 NA
ATOM     20  C   UNL d   1      53.137  32.932  53.176  0.00  0.00     0.348 A 
ATOM     21  O   UNL d   1      53.306  33.731  53.083  0.00  0.00    -0.245 OA
ENDBRANCH   1   7
BRANCH   2  22
ATOM     22  C   UNL d   1      50.480  34.390  51.741  0.00  0.00     0.265 C 
ATOM     23  N   UNL d   1      49.720  34.696  51.819  0.00  0.00    -0.269 N 
ATOM     24  C   UNL d   1      49.417  34.886  52.563  0.00  0.00     0.102 A 
ATOM     25  C   UNL d   1      49.252  34.817  51.144  0.00  0.00     0.102 A 
ATOM     26  C   UNL d   1      48.656  35.192  52.633  0.00  0.00     0.100 A 
ATOM     27  N   UNL d   1      48.189  35.312  51.959  0.00  0.00    -0.299 N 
ATOM     28  C   UNL d   1      48.492  35.122  51.215  0.00  0.00     0.100 A 
ATOM     29  O   UNL d   1      50.780  34.201  50.992  0.00  0.00    -0.267 OA
BRANCH  27  30
ATOM     30  C   UNL d   1      47.429  35.618  52.034  0.00  0.00     0.092 A 
ATOM     31  C   UNL d   1      47.311  36.319  52.450  0.00  0.00     0.156 A 
ATOM     32  F   UNL d   1      47.955  36.709  52.789  0.00  0.00    -0.203 F 
ATOM     33  C   UNL d   1      46.546  36.632  52.529  0.00  0.00     0.031 A 
ATOM     34  C   UNL d   1      45.905  36.231  52.184  0.00  0.00     0.002 A 
ATOM     35  C   UNL d   1      46.031  35.526  51.766  0.00  0.00     0.002 A 
ATOM     36  C   UNL d   1      46.793  35.223  51.693  0.00  0.00     0.020 A 
ENDBRANCH  27  30
ENDBRANCH   2  22
TORSDOF 3
ENDMDL
MODEL 5
REMARK VINA RESULT:      -7.5      1.615      6.404
REMARK  3 active torsions:
REMARK  status: ('A' for Active; 'I' for Inactive)
REMARK    1  A    between atoms: C_8  and  N_1 
REMARK    2  A    between atoms: C_9  and  C_14 
REMARK       I    between atoms: N_10  and  C_9 
REMARK    3  A    between atoms: C_16  and  N_12 
ROOT
ATOM      1  C   UNL d   1      51.863  33.142  53.242  0.00  0.00     0.066 A 
ATOM      2  C   UNL d   1      50.801  33.604  52.404  0.00  0.00     0.058 A 
ATOM      3  C   UNL d   1      51.582  33.658  52.668  0.00  0.00     0.022 A 
ATOM      4  C   UNL d   1      51.364  32.561  53.560  0.00  0.00     0.017 A 
ATOM      5  C   UNL d   1      50.301  33.022  52.723  0.00  0.00     0.005 A 
ATOM      6  C   UNL d   1      50.586  32.505  53.298  0.00  0.00     0.002 A 
ENDROOT
BRANCH   1   7
ATOM      7  N   UNL d   1      52.641  33.197  53.504  0.00  0.00    -0.261 N 
ATOM      8  C   UNL d   1      52.731  33.744  54.113  0.00  0.00     0.174 A 
ATOM      9  O   UNL d   1      53.374  34.011  54.567  0.00  0.00    -0.316 OA
ATOM     10  C   UNL d   1      53.569  33.007  53.542  0.00  0.00     0.079 A 
ATOM     11  C   UNL d   1      52.121  34.191  54.432  0.00  0.00     0.055 C 
ATOM     12  C   UNL d   1      54.180  33.843  54.597  0.00  0.00     0.094 A 
ATOM     13  C   UNL d   1      54.491  34.328  55.197  0.00  0.00     0.024 A 
ATOM     14  C   UNL d   1      54.687  33.336  54.186  0.00  0.00     0.022 A 
ATOM     15  C   UNL d   1      55.295  34.301  55.378  0.00  0.00     0.002 A 
ATOM     16  C   UNL d   1      55.796  33.791  54.962  0.00  0.00    -0.000 A 
ATOM     17  C   UNL d   1      55.492  33.308  54.366  0.00  0.00    -0.001 A 
ATOM     18  C   UNL d   1      54.596  32.789  53.576  0.00  0.00     0.137 A 
ATOM     19  N   UNL d   1      53.955  32.515  53.116  0.00  0.00    -0.216 NA
ATOM     20  C   UNL d   1      53.149  32.683  53.086  0.00  0.00     0.348 A 
ATOM     21  O   UNL d   1      52.760  32.241  52.511  0.00  0.00    -0.245 OA
ENDBRANCH   1   7
BRANCH   2  22
ATOM     22  C   UNL d   1      50.524  34.126  51.827  0.00  0.00     0.265 C 
ATOM     23  N   UNL d   1      49.816  34.528  51.943  0.00  0.00    -0.269 N 
ATOM     24  C   UNL d   1      49.376  34.417  52.633  0.00  0.00     0.102 A 
ATOM     25  C   UNL d   1      49.539  35.053  51.362  0.00  0.00     0.102 A 
ATOM     26  C   UNL d   1      48.669  34.824  52.741  0.00  0.00     0.100 A 
ATOM     27  N   UNL d   1      48.393  35.347  52.161  0.00  0.00    -0.299 N 
ATOM     28  C   UNL d   1      48.833  35.458  51.471  0.00  0.00     0.100 A 
ATOM     29  O   UNL d   1      50.962  34.241  51.133  0.00  0.00    -0.267 OA
BRANCH  27  30
ATOM     30  C   UNL d   1      47.685  35.751  52.274  0.00  0.00     0.092 A 
ATOM     31  C   UNL d   1      47.621  36.297  52.888  0.00  0.00     0.156 A 
ATOM     32  F   UNL d   1      48.266  36.434  53.385  0.00  0.00    -0.203 F 
ATOM     33  C   UNL d   1      46.910  36.708  53.007  0.00  0.00     0.031 A 
ATOM     34  C   UNL d   1      46.267  36.563  52.500  0.00  0.00     0.002 A 
ATOM     35  C   UNL d   1      46.338  36.012  51.884  0.00  0.00     0.002 A 
ATOM     36  C   UNL d   1      47.047  35.610  51.774  0.00  0.00     0.020 A 
ENDBRANCH  27  30
ENDBRANCH   2  22
TORSDOF 3
ENDMDL
MODEL 6
REMARK VINA RESULT:      -6.3      1.686      2.703
REMARK  3 active torsions:
REMARK  status: ('A' for Active; 'I' for Inactive)
REMARK    1  A    between atoms: C_8  and  N_1 
REMARK    2  A    between atoms: C_9  and  C_14 
REMARK       I    between atoms: N_10  and  C_9 
REMARK    3  A    between atoms: C_16  and  N_12 
ROOT
ATOM      1  C   UNL d   1      47.609  35.951  52.873  0.00  0.00     0.066 A 
ATOM      2  C   UNL d   1      48.475  35.111  52.108  0.00  0.00     0.058 A 
ATOM      3  C   UNL d   1      48.019  35.246  52.783  0.00  0.00     0.022 A 
ATOM      4  C   UNL d   1      47.648  36.534  52.284  0.00  0.00     0.017 A 
ATOM      5  C   UNL d   1      48.515  35.695  51.518  0.00  0.00     0.005 A 
ATOM      6  C   UNL d   1      48.102  36.402  51.611  0.00  0.00     0.002 A 
ENDROOT
BRANCH   1   7
ATOM      7  N   UNL d   1      47.155  36.084  53.547  0.00  0.00    -0.261 N 
ATOM      8  C   UNL d   1      46.379  35.822  53.462  0.00  0.00     0.174 A 
ATOM      9  O   UNL d   1      45.708  35.818  53.952  0.00  0.00    -0.316 OA
ATOM     10  C   UNL d   1      46.958  36.374  54.427  0.00  0.00     0.079 A 
ATOM     11  C   UNL d   1      46.078  35.466  52.786  0.00  0.00     0.055 C 
ATOM     12  C   UNL d   1      45.539  36.071  54.718  0.00  0.00     0.094 A 
ATOM     13  C   UNL d   1      44.738  35.887  54.847  0.00  0.00     0.024 A 
ATOM     14  C   UNL d   1      45.972  36.437  55.320  0.00  0.00     0.022 A 
ATOM     15  C   UNL d   1      44.383  36.067  55.569  0.00  0.00     0.002 A 
ATOM     16  C   UNL d   1      44.822  36.433  56.167  0.00  0.00    -0.000 A 
ATOM     17  C   UNL d   1      45.616  36.617  56.042  0.00  0.00    -0.001 A 
ATOM     18  C   UNL d   1      46.748  36.698  55.405  0.00  0.00     0.137 A 
ATOM     19  N   UNL d   1      47.427  36.706  54.918  0.00  0.00    -0.216 NA
ATOM     20  C   UNL d   1      47.596  36.453  54.153  0.00  0.00     0.348 A 
ATOM     21  O   UNL d   1      48.377  36.599  53.941  0.00  0.00    -0.245 OA
ENDBRANCH   1   7
BRANCH   2  22
ATOM     22  C   UNL d   1      48.886  34.399  52.023  0.00  0.00     0.265 C 
ATOM     23  N   UNL d   1      49.647  34.326  52.326  0.00  0.00    -0.269 N 
ATOM     24  C   UNL d   1      50.009  34.958  52.717  0.00  0.00     0.102 A 
ATOM     25  C   UNL d   1      50.059  33.610  52.240  0.00  0.00     0.102 A 
ATOM     26  C   UNL d   1      50.770  34.876  53.017  0.00  0.00     0.100 A 
ATOM     27  N   UNL d   1      51.181  34.161  52.931  0.00  0.00    -0.299 N 
ATOM     28  C   UNL d   1      50.819  33.529  52.540  0.00  0.00     0.100 A 
ATOM     29  O   UNL d   1      48.528  33.763  51.632  0.00  0.00    -0.267 OA
BRANCH  27  30
ATOM     30  C   UNL d   1      51.942  34.084  53.233  0.00  0.00     0.092 A 
ATOM     31  C   UNL d   1      52.550  34.553  52.932  0.00  0.00     0.156 A 
ATOM     32  F   UNL d   1      52.390  35.095  52.330  0.00  0.00    -0.203 F 
ATOM     33  C   UNL d   1      53.319  34.479  53.233  0.00  0.00     0.031 A 
ATOM     34  C   UNL d   1      53.468  33.930  53.838  0.00  0.00     0.002 A 
ATOM     35  C   UNL d   1      52.853  33.461  54.137  0.00  0.00     0.002 A 
ATOM     36  C   UNL d   1      52.093  33.541  53.832  0.00  0.00     0.020 A 
ENDBRANCH  27  30
ENDBRANCH   2  22
TORSDOF 3
ENDMDL
