MODEL 1
REMARK VINA RESULT:      -8.5      0.000      0.000
REMARK  3 active torsions:
REMARK  status: ('A' for Active; 'I' for Inactive)
REMARK    1  A    between atoms: C_2  and  C_1 
REMARK       I    between atoms: N_7  and  C_2 
REMARK    2  A    between atoms: C_9  and  N_7 
REMARK    3  A    between atoms: O_13  and  C_11 
ROOT
ATOM      1  C   UNL d   1      52.960  34.568  54.567  0.00  0.00     0.280 C 
ATOM      2  N   UNL d   1      53.472  34.024  54.908  0.00  0.00    -0.208 NA
ATOM      3  O   UNL d   1      52.645  35.178  55.019  0.00  0.00    -0.265 OA
ENDROOT
BRANCH   1   4
ATOM      4  C   UNL d   1      52.760  34.501  53.768  0.00  0.00     0.065 A 
ATOM      5  C   UNL d   1      52.012  34.349  53.464  0.00  0.00     0.011 A 
ATOM      6  C   UNL d   1      52.060  34.329  52.640  0.00  0.00     0.030 A 
ATOM      7  C   UNL d   1      51.289  34.227  53.840  0.00  0.00     0.001 A 
ATOM      8  C   UNL d   1      51.384  34.185  52.191  0.00  0.00     0.006 A 
ATOM      9  S   UNL d   1      52.849  34.469  52.418  0.00  0.00    -0.086 SA
ATOM     10  C   UNL d   1      50.660  34.062  52.566  0.00  0.00     0.001 A 
ATOM     11  C   UNL d   1      50.612  34.083  53.390  0.00  0.00     0.000 A 
ATOM     12  C   UNL d   1      53.290  34.577  53.110  0.00  0.00     0.040 A 
ENDBRANCH   1   4
BRANCH   2  13
ATOM     13  C   UNL d   1      53.791  33.405  54.451  0.00  0.00     0.087 A 
ATOM     14  C   UNL d   1      53.451  32.656  54.493  0.00  0.00     0.043 A 
ATOM     15  C   UNL d   1      53.771  32.041  54.035  0.00  0.00     0.096 A 
ATOM     16  C   UNL d   1      54.423  32.184  53.546  0.00  0.00     0.024 A 
ATOM     17  C   UNL d   1      54.755  32.942  53.513  0.00  0.00     0.004 A 
ATOM     18  C   UNL d   1      54.441  33.552  53.964  0.00  0.00     0.019 A 
BRANCH  15  19
ATOM     19  O   UNL d   1      53.431  31.293  54.077  0.00  0.00    -0.328 OA
ATOM     20  C   UNL d   1      53.356  30.831  53.397  0.00  0.00     0.181 C 
ENDBRANCH  15  19
ENDBRANCH   2  13
TORSDOF 3
ENDMDL
MODEL 2
REMARK VINA RESULT:      -8.5      1.129      3.021
REMARK  3 active torsions:
REMARK  status: ('A' for Active; 'I' for Inactive)
REMARK    1  A    between atoms: C_2  and  C_1 
REMARK       I    between atoms: N_7  and  C_2 
REMARK    2  A    between atoms: C_9  and  N_7 
REMARK    3  A    between atoms: O_13  and  C_11 
ROOT
ATOM      1  C   UNL d   1      53.840  33.101  54.964  0.00  0.00     0.280 C 
ATOM      2  N   UNL d   1      53.342  33.753  54.994  0.00  0.00    -0.208 NA
ATOM      3  O   UNL d   1      54.229  32.847  55.642  0.00  0.00    -0.265 OA
ENDROOT
BRANCH   1   4
ATOM      4  C   UNL d   1      53.952  32.698  54.250  0.00  0.00     0.065 A 
ATOM      5  C   UNL d   1      53.750  31.918  54.094  0.00  0.00     0.011 A 
ATOM      6  C   UNL d   1      53.957  31.741  53.315  0.00  0.00     0.030 A 
ATOM      7  C   UNL d   1      53.401  31.343  54.571  0.00  0.00     0.001 A 
ATOM      8  C   UNL d   1      53.815  30.988  53.011  0.00  0.00     0.006 A 
ATOM      9  S   UNL d   1      54.295  32.419  52.971  0.00  0.00    -0.086 SA
ATOM     10  C   UNL d   1      53.466  30.412  53.487  0.00  0.00     0.001 A 
ATOM     11  C   UNL d   1      53.259  30.590  54.267  0.00  0.00     0.000 A 
ATOM     12  C   UNL d   1      54.296  33.018  53.543  0.00  0.00     0.040 A 
ENDBRANCH   1   4
BRANCH   2  13
ATOM     13  C   UNL d   1      52.948  34.010  54.307  0.00  0.00     0.087 A 
ATOM     14  C   UNL d   1      52.178  33.754  54.163  0.00  0.00     0.043 A 
ATOM     15  C   UNL d   1      51.788  34.012  53.477  0.00  0.00     0.096 A 
ATOM     16  C   UNL d   1      52.171  34.520  52.948  0.00  0.00     0.024 A 
ATOM     17  C   UNL d   1      52.945  34.770  53.105  0.00  0.00     0.004 A 
ATOM     18  C   UNL d   1      53.334  34.516  53.782  0.00  0.00     0.019 A 
BRANCH  15  19
ATOM     19  O   UNL d   1      51.019  33.756  53.334  0.00  0.00    -0.328 OA
ATOM     20  C   UNL d   1      50.549  34.141  52.775  0.00  0.00     0.181 C 
ENDBRANCH  15  19
ENDBRANCH   2  13
TORSDOF 3
ENDMDL
MODEL 3
REMARK VINA RESULT:      -8.5      1.319      2.012
REMARK  3 active torsions:
REMARK  status: ('A' for Active; 'I' for Inactive)
REMARK    1  A    between atoms: C_2  and  C_1 
REMARK       I    between atoms: N_7  and  C_2 
REMARK    2  A    between atoms: C_9  and  N_7 
REMARK    3  A    between atoms: O_13  and  C_11 
ROOT
ATOM      1  C   UNL d   1      52.765  31.939  52.977  0.00  0.00     0.280 C 
ATOM      2  N   UNL d   1      53.401  31.675  53.424  0.00  0.00    -0.208 NA
ATOM      3  O   UNL d   1      52.255  31.398  52.627  0.00  0.00    -0.265 OA
ENDROOT
BRANCH   1   4
ATOM      4  C   UNL d   1      52.636  32.750  52.878  0.00  0.00     0.065 A 
ATOM      5  C   UNL d   1      51.940  33.155  53.035  0.00  0.00     0.011 A 
ATOM      6  C   UNL d   1      52.053  33.954  52.860  0.00  0.00     0.030 A 
ATOM      7  C   UNL d   1      51.212  32.892  53.318  0.00  0.00     0.001 A 
ATOM      8  C   UNL d   1      51.438  34.491  52.968  0.00  0.00     0.006 A 
ATOM      9  S   UNL d   1      52.832  34.056  52.588  0.00  0.00    -0.086 SA
ATOM     10  C   UNL d   1      50.709  34.229  53.251  0.00  0.00     0.001 A 
ATOM     11  C   UNL d   1      50.596  33.430  53.426  0.00  0.00     0.000 A 
ATOM     12  C   UNL d   1      53.202  33.316  52.595  0.00  0.00     0.040 A 
ENDBRANCH   1   4
BRANCH   2  13
ATOM     13  C   UNL d   1      53.918  32.224  53.779  0.00  0.00     0.087 A 
ATOM     14  C   UNL d   1      53.812  32.424  54.571  0.00  0.00     0.043 A 
ATOM     15  C   UNL d   1      54.329  32.971  54.922  0.00  0.00     0.096 A 
ATOM     16  C   UNL d   1      54.941  33.307  54.479  0.00  0.00     0.024 A 
ATOM     17  C   UNL d   1      55.037  33.096  53.683  0.00  0.00     0.004 A 
ATOM     18  C   UNL d   1      54.527  32.556  53.333  0.00  0.00     0.019 A 
BRANCH  15  19
ATOM     19  O   UNL d   1      54.222  33.172  55.713  0.00  0.00    -0.328 OA
ATOM     20  C   UNL d   1      54.726  33.715  56.077  0.00  0.00     0.181 C 
ENDBRANCH  15  19
ENDBRANCH   2  13
TORSDOF 3
ENDMDL
MODEL 4
REMARK VINA RESULT:      -8.3      1.794      2.882
REMARK  3 active torsions:
REMARK  status: ('A' for Active; 'I' for Inactive)
REMARK    1  A    between atoms: C_2  and  C_1 
REMARK       I    between atoms: N_7  and  C_2 
REMARK    2  A    between atoms: C_9  and  N_7 
REMARK    3  A    between atoms: O_13  and  C_11 
ROOT
ATOM      1  C   UNL d   1      52.508  32.668  53.324  0.00  0.00     0.280 C 
ATOM      2  N   UNL d   1      52.153  31.934  53.225  0.00  0.00    -0.208 NA
ATOM      3  O   UNL d   1      52.055  33.353  53.288  0.00  0.00    -0.265 OA
ENDROOT
BRANCH   1   4
ATOM      4  C   UNL d   1      53.322  32.718  53.460  0.00  0.00     0.065 A 
ATOM      5  C   UNL d   1      53.686  33.064  54.109  0.00  0.00     0.011 A 
ATOM      6  C   UNL d   1      54.505  32.993  54.023  0.00  0.00     0.030 A 
ATOM      7  C   UNL d   1      53.371  33.438  54.773  0.00  0.00     0.001 A 
ATOM      8  C   UNL d   1      55.008  33.295  54.601  0.00  0.00     0.006 A 
ATOM      9  S   UNL d   1      54.661  32.596  53.309  0.00  0.00    -0.086 SA
ATOM     10  C   UNL d   1      54.694  33.669  55.266  0.00  0.00     0.001 A 
ATOM     11  C   UNL d   1      53.875  33.740  55.351  0.00  0.00     0.000 A 
ATOM     12  C   UNL d   1      53.934  32.422  52.953  0.00  0.00     0.040 A 
ENDBRANCH   1   4
BRANCH   2  13
ATOM     13  C   UNL d   1      52.612  31.239  53.261  0.00  0.00     0.087 A 
ATOM     14  C   UNL d   1      52.656  30.821  53.969  0.00  0.00     0.043 A 
ATOM     15  C   UNL d   1      53.113  30.129  54.003  0.00  0.00     0.096 A 
ATOM     16  C   UNL d   1      53.519  29.867  53.330  0.00  0.00     0.024 A 
ATOM     17  C   UNL d   1      53.467  30.298  52.624  0.00  0.00     0.004 A 
ATOM     18  C   UNL d   1      53.015  30.982  52.588  0.00  0.00     0.019 A 
BRANCH  15  19
ATOM     19  O   UNL d   1      53.157  29.712  54.710  0.00  0.00    -0.328 OA
ATOM     20  C   UNL d   1      53.319  28.902  54.707  0.00  0.00     0.181 C 
ENDBRANCH  15  19
ENDBRANCH   2  13
TORSDOF 3
ENDMDL
MODEL 5
REMARK VINA RESULT:      -7.7      1.350      3.409
REMARK  3 active torsions:
REMARK  status: ('A' for Active; 'I' for Inactive)
REMARK    1  A    between atoms: C_2  and  C_1 
REMARK       I    between atoms: N_7  and  C_2 
REMARK    2  A    between atoms: C_9  and  N_7 
REMARK    3  A    between atoms: O_13  and  C_11 
ROOT
ATOM      1  C   UNL d   1      53.103  31.917  53.196  0.00  0.00     0.280 C 
ATOM      2  N   UNL d   1      52.360  32.036  52.867  0.00  0.00    -0.208 NA
ATOM      3  O   UNL d   1      53.398  31.155  53.284  0.00  0.00    -0.265 OA
ENDROOT
BRANCH   1   4
ATOM      4  C   UNL d   1      53.556  32.565  53.439  0.00  0.00     0.065 A 
ATOM      5  C   UNL d   1      53.835  32.706  54.198  0.00  0.00     0.011 A 
ATOM      6  C   UNL d   1      54.261  33.413  54.197  0.00  0.00     0.030 A 
ATOM      7  C   UNL d   1      53.753  32.273  54.895  0.00  0.00     0.001 A 
ATOM      8  C   UNL d   1      54.606  33.689  54.893  0.00  0.00     0.006 A 
ATOM      9  S   UNL d   1      54.251  33.725  53.426  0.00  0.00    -0.086 SA
ATOM     10  C   UNL d   1      54.524  33.257  55.591  0.00  0.00     0.001 A 
ATOM     11  C   UNL d   1      54.098  32.549  55.591  0.00  0.00     0.000 A 
ATOM     12  C   UNL d   1      53.817  33.207  52.949  0.00  0.00     0.040 A 
ENDBRANCH   1   4
BRANCH   2  13
ATOM     13  C   UNL d   1      52.061  32.808  52.778  0.00  0.00     0.087 A 
ATOM     14  C   UNL d   1      51.476  33.076  53.292  0.00  0.00     0.043 A 
ATOM     15  C   UNL d   1      51.180  33.846  53.201  0.00  0.00     0.096 A 
ATOM     16  C   UNL d   1      51.471  34.335  52.600  0.00  0.00     0.024 A 
ATOM     17  C   UNL d   1      52.059  34.053  52.089  0.00  0.00     0.004 A 
ATOM     18  C   UNL d   1      52.355  33.292  52.177  0.00  0.00     0.019 A 
BRANCH  15  19
ATOM     19  O   UNL d   1      50.596  34.114  53.715  0.00  0.00    -0.328 OA
ATOM     20  C   UNL d   1      50.031  34.658  53.458  0.00  0.00     0.181 C 
ENDBRANCH  15  19
ENDBRANCH   2  13
TORSDOF 3
ENDMDL
MODEL 6
REMARK VINA RESULT:      -6.9      1.647      3.226
REMARK  3 active torsions:
REMARK  status: ('A' for Active; 'I' for Inactive)
REMARK    1  A    between atoms: C_2  and  C_1 
REMARK       I    between atoms: N_7  and  C_2 
REMARK    2  A    between atoms: C_9  and  N_7 
REMARK    3  A    between atoms: O_13  and  C_11 
ROOT
ATOM      1  C   UNL d   1      54.671  32.549  53.322  0.00  0.00     0.280 C 
ATOM      2  N   UNL d   1      54.870  33.133  53.864  0.00  0.00    -0.208 NA
ATOM      3  O   UNL d   1      55.258  32.176  52.883  0.00  0.00    -0.265 OA
ENDROOT
BRANCH   1   4
ATOM      4  C   UNL d   1      53.880  32.336  53.216  0.00  0.00     0.065 A 
ATOM      5  C   UNL d   1      53.563  31.584  53.301  0.00  0.00     0.011 A 
ATOM      6  C   UNL d   1      52.752  31.618  53.145  0.00  0.00     0.030 A 
ATOM      7  C   UNL d   1      53.916  30.867  53.503  0.00  0.00     0.001 A 
ATOM      8  C   UNL d   1      52.294  30.935  53.190  0.00  0.00     0.006 A 
ATOM      9  S   UNL d   1      52.553  32.403  52.958  0.00  0.00    -0.086 SA
ATOM     10  C   UNL d   1      52.646  30.216  53.392  0.00  0.00     0.001 A 
ATOM     11  C   UNL d   1      53.456  30.182  53.548  0.00  0.00     0.000 A 
ATOM     12  C   UNL d   1      53.245  32.856  53.000  0.00  0.00     0.040 A 
ENDBRANCH   1   4
BRANCH   2  13
ATOM     13  C   UNL d   1      54.276  33.511  54.308  0.00  0.00     0.087 A 
ATOM     14  C   UNL d   1      53.940  34.207  54.022  0.00  0.00     0.043 A 
ATOM     15  C   UNL d   1      53.348  34.582  54.467  0.00  0.00     0.096 A 
ATOM     16  C   UNL d   1      53.101  34.258  55.188  0.00  0.00     0.024 A 
ATOM     17  C   UNL d   1      53.448  33.557  55.463  0.00  0.00     0.004 A 
ATOM     18  C   UNL d   1      54.034  33.184  55.026  0.00  0.00     0.019 A 
BRANCH  15  19
ATOM     19  O   UNL d   1      53.012  35.277  54.182  0.00  0.00    -0.328 OA
ATOM     20  C   UNL d   1      52.934  35.935  54.674  0.00  0.00     0.181 C 
ENDBRANCH  15  19
ENDBRANCH   2  13
TORSDOF 3
ENDMDL
