MODEL 1
REMARK VINA RESULT:      28.2      0.000      0.000
REMARK  4 active torsions:
REMARK  status: ('A' for Active; 'I' for Inactive)
REMARK    1  A    between atoms: S_9  and  C_2 
REMARK    2  A    between atoms: C_11  and  C_3 
REMARK    3  A    between atoms: C_7  and  C_10 
REMARK       I    between atoms: N_8  and  C_7 
REMARK    4  A    between atoms: C_10  and  S_9 
ROOT
ATOM      1  N   UNL d   1      46.027 -17.845  42.887  0.00  0.00    -0.220 NA
ATOM      2  C   UNL d   1      46.141 -18.017  43.693  0.00  0.00     0.114 A 
ATOM      3  C   UNL d   1      46.085 -18.447  42.332  0.00  0.00     0.163 A 
ATOM      4  N   UNL d   1      46.255 -19.219  42.570  0.00  0.00    -0.227 NA
ATOM      5  C   UNL d   1      46.310 -18.789  43.931  0.00  0.00     0.042 A 
ATOM      6  C   UNL d   1      46.367 -19.389  43.363  0.00  0.00     0.085 A 
ATOM      7  C   UNL d   1      46.421 -18.955  44.716  0.00  0.00     0.004 A 
ATOM      8  C   UNL d   1      46.534 -20.150  43.593  0.00  0.00     0.019 A 
ATOM      9  C   UNL d   1      46.591 -19.727  44.954  0.00  0.00     0.000 A 
ATOM     10  C   UNL d   1      46.647 -20.326  44.386  0.00  0.00     0.002 A 
ENDROOT
BRANCH   2  11
ATOM     11  S   UNL d   1      46.084 -17.420  44.254  0.00  0.00    -0.062 SA
BRANCH  11  12
ATOM     12  C   UNL d   1      45.958 -16.648  44.026  0.00  0.00     0.098 C 
BRANCH  12  13
ATOM     13  C   UNL d   1      45.452 -16.156  44.457  0.00  0.00     0.271 C 
ATOM     14  N   UNL d   1      45.530 -15.338  44.420  0.00  0.00    -0.272 N 
ATOM     15  C   UNL d   1      45.027 -14.857  44.849  0.00  0.00     0.083 A 
ATOM     16  C   UNL d   1      46.121 -15.013  43.945  0.00  0.00     0.083 A 
ATOM     17  C   UNL d   1      45.101 -14.040  44.815  0.00  0.00     0.019 A 
ATOM     18  C   UNL d   1      45.687 -13.700  44.345  0.00  0.00     0.003 A 
ATOM     19  C   UNL d   1      46.194 -14.190  43.912  0.00  0.00     0.019 A 
ATOM     20  O   UNL d   1      44.863 -16.492  44.930  0.00  0.00    -0.266 OA
ENDBRANCH  12  13
ENDBRANCH  11  12
ENDBRANCH   2  11
BRANCH   3  21
ATOM     21  C   UNL d   1      45.974 -18.284  41.536  0.00  0.00     0.036 A 
ATOM     22  C   UNL d   1      45.210 -18.167  41.246  0.00  0.00     0.003 A 
ATOM     23  C   UNL d   1      45.097 -18.002  40.442  0.00  0.00     0.000 A 
ATOM     24  C   UNL d   1      45.748 -17.955  39.940  0.00  0.00     0.000 A 
ATOM     25  C   UNL d   1      46.513 -18.071  40.230  0.00  0.00     0.000 A 
ATOM     26  C   UNL d   1      46.624 -18.234  41.021  0.00  0.00     0.003 A 
ENDBRANCH   3  21
TORSDOF 4
ENDMDL
