MODEL 1
REMARK VINA RESULT:      32.8      0.000      0.000
REMARK  5 active torsions:
REMARK  status: ('A' for Active; 'I' for Inactive)
REMARK    1  A    between atoms: S_10  and  C_6 
REMARK    2  A    between atoms: C_15  and  S_10 
REMARK    3  A    between atoms: C_12  and  C_15 
REMARK       I    between atoms: N_16  and  C_12 
REMARK    4  A    between atoms: C_14  and  C_20 
REMARK    5  A    between atoms: C_20  and  N_16 
ROOT
ATOM      1  C   UNL d   1     -51.071  25.474  33.374  0.00  0.00     0.117 A 
ATOM      2  C   UNL d   1     -50.346  25.102  33.357  0.00  0.00     0.082 A 
ATOM      3  N   UNL d   1     -51.772  25.016  33.357  0.00  0.00    -0.214 NA
ATOM      4  C   UNL d   1     -50.292  24.287  33.325  0.00  0.00     0.283 A 
ATOM      5  N   UNL d   1     -50.993  23.828  33.308  0.00  0.00    -0.183 NA
ATOM      6  C   UNL d   1     -51.721  24.202  33.325  0.00  0.00     0.198 A 
ATOM      7  S   UNL d   1     -50.941  26.289  33.406  0.00  0.00    -0.068 SA
ATOM      8  C   UNL d   1     -49.772  25.688  33.379  0.00  0.00     0.013 A 
ATOM      9  C   UNL d   1     -50.131  26.437  33.410  0.00  0.00     0.031 A 
ATOM     10  O   UNL d   1     -49.536  23.907  33.308  0.00  0.00    -0.265 OA
ATOM     11  C   UNL d   1     -48.946  25.566  33.373  0.00  0.00     0.001 C 
ATOM     12  C   UNL d   1     -49.741  27.184  33.439  0.00  0.00     0.007 C 
ENDROOT
BRANCH   6  13
ATOM     13  S   UNL d   1     -52.418  23.746  33.308  0.00  0.00    -0.043 SA
BRANCH  13  14
ATOM     14  C   UNL d   1     -52.673  23.375  33.988  0.00  0.00     0.101 C 
BRANCH  14  15
ATOM     15  C   UNL d   1     -53.511  23.331  34.157  0.00  0.00     0.286 C 
ATOM     16  O   UNL d   1     -54.047  23.239  33.532  0.00  0.00    -0.265 OA
ATOM     17  N   UNL d   1     -53.773  23.379  34.930  0.00  0.00    -0.206 NA
BRANCH  17  18
ATOM     18  C   UNL d   1     -53.238  23.470  35.545  0.00  0.00     0.102 C 
BRANCH  18  19
ATOM     19  C   UNL d   1     -53.493  23.714  36.281  0.00  0.00     0.021 C 
ATOM     20  C   UNL d   1     -53.907  23.197  36.774  0.00  0.00     0.002 C 
ENDBRANCH  18  19
ENDBRANCH  17  18
ENDBRANCH  14  15
ENDBRANCH  13  14
ENDBRANCH   6  13
TORSDOF 5
ENDMDL
MODEL 2
REMARK VINA RESULT:      34.0      1.933      4.447
REMARK  5 active torsions:
REMARK  status: ('A' for Active; 'I' for Inactive)
REMARK    1  A    between atoms: S_10  and  C_6 
REMARK    2  A    between atoms: C_15  and  S_10 
REMARK    3  A    between atoms: C_12  and  C_15 
REMARK       I    between atoms: N_16  and  C_12 
REMARK    4  A    between atoms: C_14  and  C_20 
REMARK    5  A    between atoms: C_20  and  N_16 
ROOT
ATOM      1  C   UNL d   1     -51.718  25.210  33.363  0.00  0.00     0.117 A 
ATOM      2  C   UNL d   1     -51.113  24.664  33.348  0.00  0.00     0.082 A 
ATOM      3  N   UNL d   1     -51.538  26.028  33.349  0.00  0.00    -0.214 NA
ATOM      4  C   UNL d   1     -50.331  24.903  33.321  0.00  0.00     0.283 A 
ATOM      5  N   UNL d   1     -50.151  25.722  33.307  0.00  0.00    -0.183 NA
ATOM      6  C   UNL d   1     -50.759  26.269  33.322  0.00  0.00     0.198 A 
ATOM      7  S   UNL d   1     -52.434  24.800  33.390  0.00  0.00    -0.068 SA
ATOM      8  C   UNL d   1     -51.457  23.920  33.367  0.00  0.00     0.013 A 
ATOM      9  C   UNL d   1     -52.285  23.989  33.393  0.00  0.00     0.031 A 
ATOM     10  O   UNL d   1     -49.708  24.331  33.306  0.00  0.00    -0.265 OA
ATOM     11  C   UNL d   1     -51.050  23.190  33.360  0.00  0.00     0.001 C 
ATOM     12  C   UNL d   1     -52.846  23.360  33.417  0.00  0.00     0.007 C 
ENDROOT
BRANCH   6  13
ATOM     13  S   UNL d   1     -50.580  27.082  33.308  0.00  0.00    -0.043 SA
BRANCH  13  14
ATOM     14  C   UNL d   1     -49.949  27.363  33.742  0.00  0.00     0.101 C 
BRANCH  14  15
ATOM     15  C   UNL d   1     -49.821  28.207  33.804  0.00  0.00     0.286 C 
ATOM     16  O   UNL d   1     -50.309  28.725  33.379  0.00  0.00    -0.265 OA
ATOM     17  N   UNL d   1     -49.220  28.494  34.279  0.00  0.00    -0.206 NA
BRANCH  17  18
ATOM     18  C   UNL d   1     -48.740  27.977  34.697  0.00  0.00     0.102 C 
BRANCH  18  19
ATOM     19  C   UNL d   1     -48.223  28.261  35.263  0.00  0.00     0.021 C 
ATOM     20  C   UNL d   1     -48.104  29.072  35.353  0.00  0.00     0.002 C 
ENDBRANCH  18  19
ENDBRANCH  17  18
ENDBRANCH  14  15
ENDBRANCH  13  14
ENDBRANCH   6  13
TORSDOF 5
ENDMDL
