MODEL 1
REMARK VINA RESULT:      33.2      0.000      0.000
REMARK  7 active torsions:
REMARK  status: ('A' for Active; 'I' for Inactive)
REMARK    1  A    between atoms: C_2  and  S_1 
REMARK    2  A    between atoms: N_7  and  S_1 
REMARK    3  A    between atoms: C_5  and  C_6 
REMARK    4  A    between atoms: C_6  and  C_8 
REMARK    5  A    between atoms: C_15  and  N_7 
REMARK    6  A    between atoms: C_8  and  C_12 
REMARK    7  A    between atoms: C_18  and  C_15 
ROOT
ATOM      1  C   UNL d   1      59.924  49.180  50.995  0.00  0.00     0.105 A 
ATOM      2  C   UNL d   1      59.885  49.320  51.797  0.00  0.00     0.012 A 
ATOM      3  C   UNL d   1      59.243  49.299  50.516  0.00  0.00     0.013 A 
ATOM      4  C   UNL d   1      58.541  49.556  50.863  0.00  0.00     0.001 A 
ATOM      5  C   UNL d   1      59.183  49.577  52.144  0.00  0.00     0.001 A 
ATOM      6  C   UNL d   1      58.515  49.697  51.692  0.00  0.00     0.000 A 
ATOM      7  C   UNL d   1      60.578  49.196  52.271  0.00  0.00     0.001 C 
ENDROOT
BRANCH   1   8
ATOM      8  S   UNL d   1      60.623  48.923  50.649  0.00  0.00     0.285 S 
ATOM      9  O   UNL d   1      60.652  49.615  50.194  0.00  0.00    -0.198 OA
ATOM     10  O   UNL d   1      60.593  48.221  51.110  0.00  0.00    -0.198 OA
BRANCH   8  11
ATOM     11  N   UNL d   1      61.338  48.660  50.295  0.00  0.00    -0.153 NA
BRANCH  11  12
ATOM     12  C   UNL d   1      61.528  47.855  50.294  0.00  0.00     0.157 C 
BRANCH  12  13
ATOM     13  C   UNL d   1      62.014  47.547  49.704  0.00  0.00     0.256 C 
ATOM     14  O   UNL d   1      62.067  46.727  49.596  0.00  0.00    -0.281 OA
ENDBRANCH  12  13
ENDBRANCH  11  12
ENDBRANCH   8  11
ENDBRANCH   1   8
BRANCH   4  15
ATOM     15  C   UNL d   1      57.859  49.676  50.380  0.00  0.00     0.006 C 
BRANCH  15  16
ATOM     16  C   UNL d   1      57.154  49.313  50.595  0.00  0.00     0.070 C 
BRANCH  16  17
ATOM     17  C   UNL d   1      56.594  49.109  50.013  0.00  0.00     0.211 C 
ATOM     18  O   UNL d   1      56.407  48.314  49.897  0.00  0.00    -0.644 OA
ATOM     19  O   UNL d   1      56.235  49.691  49.562  0.00  0.00    -0.644 OA
ENDBRANCH  16  17
ENDBRANCH  15  16
ENDBRANCH   4  15
TORSDOF 7
ENDMDL
