MODEL 1
REMARK VINA RESULT:      59.7      0.000      0.000
REMARK  8 active torsions:
REMARK  status: ('A' for Active; 'I' for Inactive)
REMARK    1  A    between atoms: C_7  and  N_1 
REMARK    2  A    between atoms: C_2  and  C_5 
REMARK    3  A    between atoms: C_9  and  C_4 
REMARK       I    between atoms: N_20  and  C_9 
REMARK    4  A    between atoms: O_25  and  C_14 
REMARK    5  A    between atoms: O_26  and  C_16 
REMARK    6  A    between atoms: C_27  and  N_20 
REMARK    7  A    between atoms: C_23  and  C_28 
REMARK    8  A    between atoms: C_28  and  C_27 
ROOT
ATOM      1  C   UNL d   1     -54.846-100.904 -41.334  0.00  0.00     0.101 A 
ATOM      2  O   UNL d   1     -54.882-101.519 -40.786  0.00  0.00    -0.302 OA
ATOM      3  C   UNL d   1     -54.799-101.190 -40.037  0.00  0.00     0.158 A 
ATOM      4  C   UNL d   1     -54.741-100.200 -40.934  0.00  0.00     0.027 A 
ATOM      5  C   UNL d   1     -54.711-100.373 -40.120  0.00  0.00     0.032 A 
ENDROOT
BRANCH   3   6
ATOM      6  C   UNL d   1     -54.802-101.602 -39.321  0.00  0.00     0.302 C 
ATOM      7  O   UNL d   1     -54.812-101.194 -38.609  0.00  0.00    -0.263 OA
ATOM      8  N   UNL d   1     -54.795-102.426 -39.326  0.00  0.00    -0.205 NA
BRANCH   8   9
ATOM      9  C   UNL d   1     -54.798-102.839 -38.609  0.00  0.00     0.102 C 
BRANCH   9  10
ATOM     10  C   UNL d   1     -55.486-102.880 -38.156  0.00  0.00     0.021 C 
BRANCH  10  11
ATOM     11  C   UNL d   1     -55.547-102.450 -37.463  0.00  0.00     0.004 A 
ATOM     12  C   UNL d   1     -55.198-101.708 -37.414  0.00  0.00     0.026 A 
ATOM     13  C   UNL d   1     -55.260-101.274 -36.715  0.00  0.00     0.116 A 
ATOM     14  C   UNL d   1     -55.671-101.585 -36.068  0.00  0.00     0.116 A 
ATOM     15  C   UNL d   1     -56.018-102.329 -36.121  0.00  0.00     0.026 A 
ATOM     16  C   UNL d   1     -55.956-102.762 -36.821  0.00  0.00     0.002 A 
BRANCH  13  17
ATOM     17  O   UNL d   1     -54.910-100.525 -36.660  0.00  0.00    -0.326 OA
ATOM     18  C   UNL d   1     -54.977-100.095 -35.956  0.00  0.00     0.181 C 
ENDBRANCH  13  17
BRANCH  14  19
ATOM     19  O   UNL d   1     -55.731-101.152 -35.372  0.00  0.00    -0.326 OA
ATOM     20  C   UNL d   1     -55.460-100.376 -35.346  0.00  0.00     0.181 C 
ENDBRANCH  14  19
ENDBRANCH  10  11
ENDBRANCH   9  10
ENDBRANCH   8   9
ENDBRANCH   3   6
BRANCH   1  21
ATOM     21  C   UNL d   1     -54.906-100.995 -42.152  0.00  0.00     0.034 A 
ATOM     22  C   UNL d   1     -54.957-101.749 -42.491  0.00  0.00     0.004 A 
ATOM     23  C   UNL d   1     -55.017-101.826 -43.310  0.00  0.00     0.024 A 
ATOM     24  C   UNL d   1     -55.026-101.160 -43.788  0.00  0.00     0.128 A 
ATOM     25  C   UNL d   1     -54.976-100.406 -43.449  0.00  0.00     0.035 A 
ATOM     26  C   UNL d   1     -54.916-100.322 -42.633  0.00  0.00     0.061 A 
ATOM     27 CL   UNL d   1     -54.866 -99.573 -42.303  0.00  0.00    -0.082 Cl
BRANCH  24  28
ATOM     28  N   UNL d   1     -55.086-101.236 -44.610  0.00  0.00    -0.114 N 
ATOM     29  O   UNL d   1     -55.145-101.981 -44.957  0.00  0.00    -0.532 OA
ATOM     30  O   UNL d   1     -55.087-100.562 -45.084  0.00  0.00    -0.532 OA
ENDBRANCH  24  28
ENDBRANCH   1  21
TORSDOF 8
ENDMDL
