MODEL 1
REMARK VINA RESULT:      64.6      0.000      0.000
REMARK  4 active torsions:
REMARK  status: ('A' for Active; 'I' for Inactive)
REMARK    1  A    between atoms: S_4  and  C_1 
REMARK    2  A    between atoms: N_7  and  C_3 
REMARK    3  A    between atoms: C_11  and  S_4 
REMARK    4  A    between atoms: C_8  and  C_6 
ROOT
ATOM      1  C   UNL d   1     -50.881  26.151  33.460  0.00  0.00     0.210 A 
ATOM      2  N   UNL d   1     -50.549  26.902  33.452  0.00  0.00    -0.205 NA
ATOM      3  C   UNL d   1     -51.698  26.230  33.376  0.00  0.00     0.199 A 
ATOM      4  O   UNL d   1     -51.865  27.034  33.316  0.00  0.00    -0.268 OA
ATOM      5  C   UNL d   1     -51.160  27.447  33.363  0.00  0.00     0.208 A 
ENDROOT
BRANCH   1   6
ATOM      6  S   UNL d   1     -50.405  25.483  33.542  0.00  0.00     0.230 S 
ATOM      7  O   UNL d   1     -50.713  24.786  33.847  0.00  0.00    -0.215 OA
ATOM      8  O   UNL d   1     -49.608  25.515  33.315  0.00  0.00    -0.215 OA
BRANCH   6   9
ATOM      9  C   UNL d   1     -49.923  24.820  33.621  0.00  0.00     0.090 A 
ATOM     10  C   UNL d   1     -49.155  24.840  33.333  0.00  0.00     0.011 A 
ATOM     11  C   UNL d   1     -48.662  24.177  33.408  0.00  0.00     0.001 A 
ATOM     12  C   UNL d   1     -48.949  23.495  33.776  0.00  0.00     0.000 A 
ATOM     13  C   UNL d   1     -49.725  23.475  34.067  0.00  0.00     0.001 A 
ATOM     14  C   UNL d   1     -50.211  24.139  33.989  0.00  0.00     0.011 A 
ENDBRANCH   6   9
ENDBRANCH   1   6
BRANCH   3  15
ATOM     15  N   UNL d   1     -52.249  25.616  33.355  0.00  0.00    -0.283 N 
ATOM     16  C   UNL d   1     -51.992  24.946  33.346  0.00  0.00     0.082 A 
ATOM     17  C   UNL d   1     -52.345  24.164  33.325  0.00  0.00     0.019 A 
ATOM     18  C   UNL d   1     -53.039  23.922  33.309  0.00  0.00     0.002 A 
ATOM     19  C   UNL d   1     -53.731  24.399  33.308  0.00  0.00     0.002 A 
ATOM     20  C   UNL d   1     -53.738  25.285  33.325  0.00  0.00     0.019 A 
ATOM     21  C   UNL d   1     -53.055  25.836  33.346  0.00  0.00     0.082 A 
ENDBRANCH   3  15
BRANCH   5  22
ATOM     22  C   UNL d   1     -50.829  28.195  33.355  0.00  0.00     0.141 A 
ATOM     23  O   UNL d   1     -50.999  28.995  33.309  0.00  0.00    -0.302 OA
ATOM     24  C   UNL d   1     -50.290  29.413  33.342  0.00  0.00     0.123 A 
ATOM     25  C   UNL d   1     -49.680  28.861  33.408  0.00  0.00     0.029 A 
ATOM     26  C   UNL d   1     -50.012  28.110  33.417  0.00  0.00     0.030 A 
ENDBRANCH   5  22
TORSDOF 4
ENDMDL
