MODEL 1
REMARK VINA RESULT:      92.8      0.000      0.000
REMARK  5 active torsions:
REMARK  status: ('A' for Active; 'I' for Inactive)
REMARK       I    between atoms: C_2  and  N_6 
REMARK    1  A    between atoms: C_7  and  C_2 
REMARK    2  A    between atoms: N_3  and  C_4 
REMARK    3  A    between atoms: C_12  and  N_5 
REMARK    4  A    between atoms: N_6  and  C_18 
REMARK    5  A    between atoms: O_33  and  C_30 
ROOT
ATOM      1  C   UNL d   1     -49.337  27.603  33.831  0.00  0.00     0.086 A 
ATOM      2  C   UNL d   1     -50.151  27.714  33.841  0.00  0.00     0.074 A 
ATOM      3  C   UNL d   1     -49.023  26.850  33.748  0.00  0.00     0.102 C 
ATOM      4  N   UNL d   1     -48.711  26.093  33.664  0.00  0.00    -0.191 NA
ATOM      5  C   UNL d   1     -50.467  28.469  33.925  0.00  0.00     0.020 A 
ATOM      6  C   UNL d   1     -48.828  28.255  33.905  0.00  0.00     0.031 A 
ATOM      7  C   UNL d   1     -49.136  29.013  33.989  0.00  0.00     0.085 A 
ATOM      8  C   UNL d   1     -49.965  29.126  34.000  0.00  0.00     0.021 A 
ENDROOT
BRANCH   2   9
ATOM      9  N   UNL d   1     -50.664  27.070  33.768  0.00  0.00    -0.301 N 
ATOM     10  C   UNL d   1     -50.402  26.392  33.384  0.00  0.00     0.100 A 
ATOM     11  C   UNL d   1     -50.912  25.741  33.307  0.00  0.00     0.100 A 
ATOM     12  N   UNL d   1     -51.677  25.783  33.617  0.00  0.00    -0.301 N 
ATOM     13  C   UNL d   1     -51.933  26.468  34.001  0.00  0.00     0.100 A 
ATOM     14  C   UNL d   1     -51.429  27.112  34.078  0.00  0.00     0.100 A 
BRANCH  12  15
ATOM     15  C   UNL d   1     -52.187  25.132  33.539  0.00  0.00     0.064 A 
ATOM     16  C   UNL d   1     -51.886  24.368  33.585  0.00  0.00     0.020 A 
ATOM     17  C   UNL d   1     -52.393  23.719  33.508  0.00  0.00     0.026 A 
ATOM     18  C   UNL d   1     -53.208  23.834  33.384  0.00  0.00     0.094 A 
ATOM     19  C   UNL d   1     -53.517  24.606  33.337  0.00  0.00     0.026 A 
ATOM     20  C   UNL d   1     -53.005  25.254  33.415  0.00  0.00     0.020 A 
BRANCH  18  21
ATOM     21  O   UNL d   1     -53.721  23.190  33.306  0.00  0.00    -0.328 OA
ATOM     22  C   UNL d   1     -54.527  23.303  33.423  0.00  0.00     0.181 C 
ENDBRANCH  18  21
ENDBRANCH  12  15
ENDBRANCH   2   9
BRANCH   7  23
ATOM     23  N   UNL d   1     -48.634  29.662  34.063  0.00  0.00    -0.208 NA
ATOM     24  C   UNL d   1     -48.631  30.100  34.758  0.00  0.00     0.279 C 
ATOM     25  O   UNL d   1     -49.125  29.894  35.381  0.00  0.00    -0.265 OA
BRANCH  24  26
ATOM     26  C   UNL d   1     -48.126  30.752  34.830  0.00  0.00     0.060 A 
ATOM     27  C   UNL d   1     -48.275  31.431  34.409  0.00  0.00     0.031 A 
ATOM     28  C   UNL d   1     -47.769  32.079  34.483  0.00  0.00     0.119 A 
ATOM     29  O   UNL d   1     -47.774  32.820  34.140  0.00  0.00    -0.300 OA
ATOM     30  C   UNL d   1     -47.123  32.032  34.981  0.00  0.00     0.119 A 
ATOM     31  C   UNL d   1     -47.127  33.238  34.425  0.00  0.00     0.304 A 
ATOM     32  O   UNL d   1     -46.724  32.751  34.945  0.00  0.00    -0.300 OA
ATOM     33  C   UNL d   1     -46.970  31.347  35.408  0.00  0.00     0.026 A 
ATOM     34  C   UNL d   1     -47.472  30.705  35.333  0.00  0.00     0.007 A 
ENDBRANCH  24  26
ENDBRANCH   7  23
TORSDOF 5
ENDMDL
