MODEL 1
REMARK VINA RESULT:      51.3      0.000      0.000
REMARK  3 active torsions:
REMARK  status: ('A' for Active; 'I' for Inactive)
REMARK    1  A    between atoms: N_4  and  C_2 
REMARK    2  A    between atoms: C_10  and  C_3 
REMARK       I    between atoms: C_7  and  N_4 
REMARK    3  A    between atoms: C_8  and  C_7 
ROOT
ATOM      1  N   UNL d   1     -49.946  27.230  33.925  0.00  0.00    -0.051 NA
ATOM      2  C   UNL d   1     -49.139  27.380  33.921  0.00  0.00     0.760 A 
ATOM      3  C   UNL d   1     -50.059  26.472  33.604  0.00  0.00     0.147 A 
ATOM      4  N   UNL d   1     -48.745  26.719  33.599  0.00  0.00    -0.019 NA
ATOM      5  S   UNL d   1     -49.321  26.168  33.408  0.00  0.00     0.052 SA
ENDROOT
BRANCH   2   6
ATOM      6  N   UNL d   1     -48.695  28.039  34.170  0.00  0.00    -0.018 NA
ATOM      7  C   UNL d   1     -48.626  28.220  34.972  0.00  0.00     0.301 C 
ATOM      8  O   UNL d   1     -49.003  27.740  35.536  0.00  0.00    -0.264 OA
BRANCH   7   9
ATOM      9  C   UNL d   1     -48.187  28.874  35.214  0.00  0.00     0.088 A 
ATOM     10  S   UNL d   1     -47.769  28.940  35.933  0.00  0.00    -0.082 SA
ATOM     11  C   UNL d   1     -47.406  29.689  35.948  0.00  0.00     0.036 A 
ATOM     12  C   UNL d   1     -47.598  30.078  35.247  0.00  0.00     0.008 A 
ATOM     13  C   UNL d   1     -48.077  29.576  34.797  0.00  0.00     0.012 A 
ENDBRANCH   7   9
ENDBRANCH   2   6
BRANCH   3  14
ATOM     14  C   UNL d   1     -50.789  26.104  33.507  0.00  0.00     0.026 A 
ATOM     15  C   UNL d   1     -51.482  26.567  33.499  0.00  0.00     0.002 A 
ATOM     16  C   UNL d   1     -52.220  26.199  33.400  0.00  0.00     0.000 A 
ATOM     17  C   UNL d   1     -52.264  25.382  33.312  0.00  0.00     0.000 A 
ATOM     18  C   UNL d   1     -51.582  24.918  33.319  0.00  0.00     0.000 A 
ATOM     19  C   UNL d   1     -50.845  25.277  33.416  0.00  0.00     0.002 A 
ENDBRANCH   3  14
TORSDOF 3
ENDMDL
MODEL 2
REMARK VINA RESULT:      51.7      2.248      5.217
REMARK  3 active torsions:
REMARK  status: ('A' for Active; 'I' for Inactive)
REMARK    1  A    between atoms: N_4  and  C_2 
REMARK    2  A    between atoms: C_10  and  C_3 
REMARK       I    between atoms: C_7  and  N_4 
REMARK    3  A    between atoms: C_8  and  C_7 
ROOT
ATOM      1  N   UNL d   1     -51.392  26.536  33.900  0.00  0.00    -0.051 NA
ATOM      2  C   UNL d   1     -51.584  25.765  33.694  0.00  0.00     0.760 A 
ATOM      3  C   UNL d   1     -50.573  26.624  33.792  0.00  0.00     0.147 A 
ATOM      4  N   UNL d   1     -50.888  25.370  33.459  0.00  0.00    -0.019 NA
ATOM      5  S   UNL d   1     -50.274  25.908  33.523  0.00  0.00     0.052 SA
ENDROOT
BRANCH   2   6
ATOM      6  N   UNL d   1     -52.310  25.356  33.688  0.00  0.00    -0.018 NA
ATOM      7  C   UNL d   1     -52.332  24.542  33.561  0.00  0.00     0.301 C 
ATOM      8  O   UNL d   1     -51.624  24.125  33.437  0.00  0.00    -0.264 OA
BRANCH   7   9
ATOM      9  C   UNL d   1     -53.053  24.142  33.555  0.00  0.00     0.088 A 
ATOM     10  S   UNL d   1     -53.785  24.456  33.799  0.00  0.00    -0.082 SA
ATOM     11  C   UNL d   1     -54.362  23.864  33.701  0.00  0.00     0.036 A 
ATOM     12  C   UNL d   1     -53.988  23.194  33.401  0.00  0.00     0.008 A 
ATOM     13  C   UNL d   1     -53.184  23.366  33.312  0.00  0.00     0.012 A 
ENDBRANCH   7   9
ENDBRANCH   2   6
BRANCH   3  14
ATOM     14  C   UNL d   1     -50.150  27.316  33.935  0.00  0.00     0.026 A 
ATOM     15  C   UNL d   1     -49.358  27.265  34.193  0.00  0.00     0.002 A 
ATOM     16  C   UNL d   1     -48.928  27.960  34.338  0.00  0.00     0.000 A 
ATOM     17  C   UNL d   1     -49.283  28.695  34.227  0.00  0.00     0.000 A 
ATOM     18  C   UNL d   1     -50.065  28.752  33.972  0.00  0.00     0.000 A 
ATOM     19  C   UNL d   1     -50.499  28.065  33.826  0.00  0.00     0.002 A 
ENDBRANCH   3  14
TORSDOF 3
ENDMDL
