MODEL 1
REMARK VINA RESULT:      48.4      0.000      0.000
REMARK  5 active torsions:
REMARK  status: ('A' for Active; 'I' for Inactive)
REMARK    1  A    between atoms: C_3  and  C_1 
REMARK    2  A    between atoms: C_9  and  N_2 
REMARK    3  A    between atoms: C_7  and  C_3 
REMARK    4  A    between atoms: C_8  and  C_3 
REMARK    5  A    between atoms: C_20  and  C_6 
ROOT
ATOM      1  C   UNL d   1     -51.004  26.321  33.727  0.00  0.00     0.103 A 
ATOM      2  N   UNL d   1     -51.672  25.849  33.619  0.00  0.00    -0.269 N 
ATOM      3  S   UNL d   1     -51.224  27.116  33.638  0.00  0.00    -0.064 SA
ATOM      4  C   UNL d   1     -52.310  26.348  33.462  0.00  0.00     0.271 A 
ATOM      5  C   UNL d   1     -52.040  27.129  33.473  0.00  0.00     0.087 A 
ATOM      6  O   UNL d   1     -53.092  26.112  33.318  0.00  0.00    -0.266 OA
ENDROOT
BRANCH   2   7
ATOM      7  C   UNL d   1     -52.159  25.186  33.558  0.00  0.00     0.068 A 
ATOM      8  C   UNL d   1     -52.974  25.287  33.499  0.00  0.00     0.020 A 
ATOM      9  C   UNL d   1     -53.461  24.625  33.438  0.00  0.00     0.031 A 
ATOM     10  C   UNL d   1     -53.126  23.874  33.436  0.00  0.00     0.140 A 
ATOM     11  C   UNL d   1     -52.312  23.780  33.494  0.00  0.00     0.031 A 
ATOM     12  F   UNL d   1     -53.617  23.206  33.374  0.00  0.00    -0.204 F 
ATOM     13  C   UNL d   1     -51.823  24.439  33.556  0.00  0.00     0.020 A 
ENDBRANCH   2   7
BRANCH   1  14
ATOM     14  C   UNL d   1     -50.236  26.056  33.897  0.00  0.00     0.103 C 
BRANCH  14  15
ATOM     15  C   UNL d   1     -49.602  26.580  33.817  0.00  0.00     0.300 C 
ATOM     16  O   UNL d   1     -48.839  26.359  34.060  0.00  0.00    -0.264 OA
ATOM     17  N   UNL d   1     -49.727  27.334  33.491  0.00  0.00    -0.102 N 
ENDBRANCH  14  15
BRANCH  14  18
ATOM     18  C   UNL d   1     -50.107  25.285  34.141  0.00  0.00     0.129 C 
ATOM     19  N   UNL d   1     -49.410  25.088  34.543  0.00  0.00    -0.146 N 
ENDBRANCH  14  18
ENDBRANCH   1  14
BRANCH   5  20
ATOM     20  C   UNL d   1     -52.496  27.804  33.344  0.00  0.00     0.011 C 
ATOM     21  C   UNL d   1     -52.171  28.553  33.486  0.00  0.00     0.001 C 
ENDBRANCH   5  20
TORSDOF 5
ENDMDL
MODEL 2
REMARK VINA RESULT:      50.6      1.827      2.842
REMARK  5 active torsions:
REMARK  status: ('A' for Active; 'I' for Inactive)
REMARK    1  A    between atoms: C_3  and  C_1 
REMARK    2  A    between atoms: C_9  and  N_2 
REMARK    3  A    between atoms: C_7  and  C_3 
REMARK    4  A    between atoms: C_8  and  C_3 
REMARK    5  A    between atoms: C_20  and  C_6 
ROOT
ATOM      1  C   UNL d   1     -51.668  25.695  34.127  0.00  0.00     0.103 A 
ATOM      2  N   UNL d   1     -51.188  25.063  33.903  0.00  0.00    -0.269 N 
ATOM      3  S   UNL d   1     -52.460  25.481  34.009  0.00  0.00    -0.064 SA
ATOM      4  C   UNL d   1     -51.680  24.453  33.644  0.00  0.00     0.271 A 
ATOM      5  C   UNL d   1     -52.465  24.705  33.707  0.00  0.00     0.087 A 
ATOM      6  O   UNL d   1     -51.435  23.710  33.367  0.00  0.00    -0.266 OA
ENDROOT
BRANCH   2   7
ATOM      7  C   UNL d   1     -50.519  24.603  33.754  0.00  0.00     0.068 A 
ATOM      8  C   UNL d   1     -49.822  24.969  33.513  0.00  0.00     0.020 A 
ATOM      9  C   UNL d   1     -49.154  24.510  33.365  0.00  0.00     0.031 A 
ATOM     10  C   UNL d   1     -49.193  23.694  33.459  0.00  0.00     0.140 A 
ATOM     11  C   UNL d   1     -49.892  23.335  33.699  0.00  0.00     0.031 A 
ATOM     12  F   UNL d   1     -48.519  23.231  33.309  0.00  0.00    -0.204 F 
ATOM     13  C   UNL d   1     -50.561  23.791  33.848  0.00  0.00     0.020 A 
ENDBRANCH   2   7
BRANCH   1  14
ATOM     14  C   UNL d   1     -51.411  26.427  34.422  0.00  0.00     0.103 C 
BRANCH  14  15
ATOM     15  C   UNL d   1     -50.848  26.443  35.027  0.00  0.00     0.300 C 
ATOM     16  O   UNL d   1     -51.037  26.161  35.786  0.00  0.00    -0.264 OA
ATOM     17  N   UNL d   1     -50.088  26.742  34.877  0.00  0.00    -0.102 N 
ENDBRANCH  14  15
BRANCH  14  18
ATOM     18  C   UNL d   1     -51.712  27.126  34.119  0.00  0.00     0.129 C 
ATOM     19  N   UNL d   1     -51.646  27.289  33.310  0.00  0.00    -0.146 N 
ENDBRANCH  14  18
ENDBRANCH   1  14
BRANCH   5  20
ATOM     20  C   UNL d   1     -53.134  24.268  33.508  0.00  0.00     0.011 C 
ATOM     21  C   UNL d   1     -53.837  24.660  33.306  0.00  0.00     0.001 C 
ENDBRANCH   5  20
TORSDOF 5
ENDMDL
