MODEL 1
REMARK VINA RESULT:      -8.8      0.000      0.000
REMARK  4 active torsions:
REMARK  status: ('A' for Active; 'I' for Inactive)
REMARK    1  A    between atoms: N_14  and  C_6 
REMARK    2  A    between atoms: C_19  and  N_14 
REMARK    3  A    between atoms: O_17  and  C_20 
REMARK    4  A    between atoms: C_20  and  C_19 
ROOT
ATOM      1  N   UNL d   1      52.830  32.232  53.479  0.00  0.00    -0.183 N 
ATOM      2  C   UNL d   1      52.820  33.061  53.524  0.00  0.00     0.169 A 
ATOM      3  C   UNL d   1      52.147  33.481  53.324  0.00  0.00     0.073 A 
ATOM      4  C   UNL d   1      51.485  33.068  53.079  0.00  0.00     0.185 A 
ATOM      5  N   UNL d   1      51.496  32.239  53.035  0.00  0.00    -0.142 NA
ATOM      6  C   UNL d   1      53.512  31.830  53.683  0.00  0.00     0.218 A 
ATOM      7  N   UNL d   1      53.491  33.465  53.771  0.00  0.00    -0.226 NA
ATOM      8  C   UNL d   1      52.136  34.300  53.368  0.00  0.00     0.007 A 
ATOM      9  N   UNL d   1      50.796  33.479  52.873  0.00  0.00    -0.225 NA
ATOM     10  C   UNL d   1      54.179  32.225  53.928  0.00  0.00     0.071 A 
ATOM     11  C   UNL d   1      51.464  34.720  53.168  0.00  0.00     0.019 A 
ATOM     12  C   UNL d   1      54.168  33.054  53.973  0.00  0.00     0.087 A 
ATOM     13  C   UNL d   1      50.785  34.307  52.918  0.00  0.00     0.083 A 
ATOM     14  C   UNL d   1      52.811  34.705  53.616  0.00  0.00     0.000 C 
ATOM     15  C   UNL d   1      54.868  33.470  54.230  0.00  0.00     0.021 C 
ATOM     16  C   UNL d   1      50.112  34.719  52.717  0.00  0.00     0.021 C 
ENDROOT
BRANCH   6  17
ATOM     17  N   UNL d   1      53.514  30.975  53.635  0.00  0.00    -0.378 NA
BRANCH  17  18
ATOM     18  C   UNL d   1      53.682  30.146  53.640  0.00  0.00     0.189 C 
BRANCH  18  19
ATOM     19  C   UNL d   1      53.181  29.615  54.072  0.00  0.00     0.151 C 
BRANCH  19  20
ATOM     20  O   UNL d   1      53.445  28.835  54.244  0.00  0.00    -0.323 OA
ATOM     21  C   UNL d   1      53.379  28.509  55.030  0.00  0.00     0.182 C 
ENDBRANCH  19  20
ENDBRANCH  18  19
ENDBRANCH  17  18
ENDBRANCH   6  17
TORSDOF 4
ENDMDL
MODEL 2
REMARK VINA RESULT:      -8.8      1.912      4.146
REMARK  4 active torsions:
REMARK  status: ('A' for Active; 'I' for Inactive)
REMARK    1  A    between atoms: N_14  and  C_6 
REMARK    2  A    between atoms: C_19  and  N_14 
REMARK    3  A    between atoms: O_17  and  C_20 
REMARK    4  A    between atoms: C_20  and  C_19 
ROOT
ATOM      1  N   UNL d   1      51.944  33.349  52.984  0.00  0.00    -0.183 N 
ATOM      2  C   UNL d   1      52.682  33.192  53.330  0.00  0.00     0.169 A 
ATOM      3  C   UNL d   1      52.988  32.433  53.331  0.00  0.00     0.073 A 
ATOM      4  C   UNL d   1      52.553  31.834  52.985  0.00  0.00     0.185 A 
ATOM      5  N   UNL d   1      51.816  31.991  52.639  0.00  0.00    -0.142 NA
ATOM      6  C   UNL d   1      51.655  34.113  52.992  0.00  0.00     0.218 A 
ATOM      7  N   UNL d   1      53.110  33.802  53.675  0.00  0.00    -0.226 NA
ATOM      8  C   UNL d   1      53.718  32.277  53.674  0.00  0.00     0.007 A 
ATOM      9  N   UNL d   1      52.850  31.060  52.979  0.00  0.00    -0.225 NA
ATOM     10  C   UNL d   1      52.074  34.721  53.332  0.00  0.00     0.071 A 
ATOM     11  C   UNL d   1      54.024  31.519  53.675  0.00  0.00     0.019 A 
ATOM     12  C   UNL d   1      52.812  34.563  53.678  0.00  0.00     0.087 A 
ATOM     13  C   UNL d   1      53.588  30.903  53.325  0.00  0.00     0.083 A 
ATOM     14  C   UNL d   1      54.147  32.891  54.020  0.00  0.00     0.000 C 
ATOM     15  C   UNL d   1      53.254  35.200  54.036  0.00  0.00     0.021 C 
ATOM     16  C   UNL d   1      53.887  30.145  53.323  0.00  0.00     0.021 C 
ENDROOT
BRANCH   6  17
ATOM     17  N   UNL d   1      50.893  34.267  52.633  0.00  0.00    -0.378 NA
BRANCH  17  18
ATOM     18  C   UNL d   1      50.093  34.462  52.440  0.00  0.00     0.189 C 
BRANCH  18  19
ATOM     19  C   UNL d   1      49.838  34.460  51.632  0.00  0.00     0.151 C 
BRANCH  19  20
ATOM     20  O   UNL d   1      49.038  34.638  51.442  0.00  0.00    -0.323 OA
ATOM     21  C   UNL d   1      48.716  34.463  50.672  0.00  0.00     0.182 C 
ENDBRANCH  19  20
ENDBRANCH  18  19
ENDBRANCH  17  18
ENDBRANCH   6  17
TORSDOF 4
ENDMDL
MODEL 3
REMARK VINA RESULT:      -8.2      2.149      4.267
REMARK  4 active torsions:
REMARK  status: ('A' for Active; 'I' for Inactive)
REMARK    1  A    between atoms: N_14  and  C_6 
REMARK    2  A    between atoms: C_19  and  N_14 
REMARK    3  A    between atoms: O_17  and  C_20 
REMARK    4  A    between atoms: C_20  and  C_19 
ROOT
ATOM      1  N   UNL d   1      52.287  33.632  53.567  0.00  0.00    -0.183 N 
ATOM      2  C   UNL d   1      52.910  33.118  53.759  0.00  0.00     0.169 A 
ATOM      3  C   UNL d   1      53.534  33.374  54.223  0.00  0.00     0.073 A 
ATOM      4  C   UNL d   1      53.531  34.145  54.494  0.00  0.00     0.185 A 
ATOM      5  N   UNL d   1      52.908  34.659  54.302  0.00  0.00    -0.142 NA
ATOM      6  C   UNL d   1      51.673  33.359  53.103  0.00  0.00     0.218 A 
ATOM      7  N   UNL d   1      52.902  32.345  53.480  0.00  0.00    -0.226 NA
ATOM      8  C   UNL d   1      54.151  32.866  54.412  0.00  0.00     0.007 A 
ATOM      9  N   UNL d   1      54.156  34.418  54.964  0.00  0.00    -0.225 NA
ATOM     10  C   UNL d   1      51.660  32.595  52.825  0.00  0.00     0.071 A 
ATOM     11  C   UNL d   1      54.774  33.120  54.875  0.00  0.00     0.019 A 
ATOM     12  C   UNL d   1      52.283  32.081  53.017  0.00  0.00     0.087 A 
ATOM     13  C   UNL d   1      54.779  33.905  55.156  0.00  0.00     0.083 A 
ATOM     14  C   UNL d   1      54.141  32.089  54.132  0.00  0.00     0.000 C 
ATOM     15  C   UNL d   1      52.272  31.278  52.726  0.00  0.00     0.021 C 
ATOM     16  C   UNL d   1      55.397  34.165  55.618  0.00  0.00     0.021 C 
ENDROOT
BRANCH   6  17
ATOM     17  N   UNL d   1      51.034  33.895  52.910  0.00  0.00    -0.378 NA
BRANCH  17  18
ATOM     18  C   UNL d   1      50.395  34.333  52.572  0.00  0.00     0.189 C 
BRANCH  18  19
ATOM     19  C   UNL d   1      49.838  34.728  53.075  0.00  0.00     0.151 C 
BRANCH  19  20
ATOM     20  O   UNL d   1      49.184  35.137  52.739  0.00  0.00    -0.323 OA
ATOM     21  C   UNL d   1      48.655  35.599  53.222  0.00  0.00     0.182 C 
ENDBRANCH  19  20
ENDBRANCH  18  19
ENDBRANCH  17  18
ENDBRANCH   6  17
TORSDOF 4
ENDMDL
MODEL 4
REMARK VINA RESULT:      -7.0      1.056      2.679
REMARK  4 active torsions:
REMARK  status: ('A' for Active; 'I' for Inactive)
REMARK    1  A    between atoms: N_14  and  C_6 
REMARK    2  A    between atoms: C_19  and  N_14 
REMARK    3  A    between atoms: O_17  and  C_20 
REMARK    4  A    between atoms: C_20  and  C_19 
ROOT
ATOM      1  N   UNL d   1      53.111  32.177  53.633  0.00  0.00    -0.183 N 
ATOM      2  C   UNL d   1      53.082  32.992  53.787  0.00  0.00     0.169 A 
ATOM      3  C   UNL d   1      53.659  33.351  54.243  0.00  0.00     0.073 A 
ATOM      4  C   UNL d   1      54.263  32.890  54.546  0.00  0.00     0.185 A 
ATOM      5  N   UNL d   1      54.291  32.075  54.392  0.00  0.00    -0.142 NA
ATOM      6  C   UNL d   1      52.526  31.836  53.175  0.00  0.00     0.218 A 
ATOM      7  N   UNL d   1      52.470  33.444  53.477  0.00  0.00    -0.226 NA
ATOM      8  C   UNL d   1      53.631  34.157  54.395  0.00  0.00     0.007 A 
ATOM      9  N   UNL d   1      54.853  33.239  55.010  0.00  0.00    -0.225 NA
ATOM     10  C   UNL d   1      51.919  32.279  52.867  0.00  0.00     0.071 A 
ATOM     11  C   UNL d   1      54.206  34.516  54.851  0.00  0.00     0.019 A 
ATOM     12  C   UNL d   1      51.890  33.094  53.020  0.00  0.00     0.087 A 
ATOM     13  C   UNL d   1      54.825  34.054  55.163  0.00  0.00     0.083 A 
ATOM     14  C   UNL d   1      53.015  34.610  54.084  0.00  0.00     0.000 C 
ATOM     15  C   UNL d   1      51.253  33.562  52.697  0.00  0.00     0.021 C 
ATOM     16  C   UNL d   1      55.402  34.405  55.619  0.00  0.00     0.021 C 
ENDROOT
BRANCH   6  17
ATOM     17  N   UNL d   1      52.563  30.995  53.022  0.00  0.00    -0.378 NA
BRANCH  17  18
ATOM     18  C   UNL d   1      52.471  30.155  52.988  0.00  0.00     0.189 C 
BRANCH  18  19
ATOM     19  C   UNL d   1      53.037  29.650  53.367  0.00  0.00     0.151 C 
BRANCH  19  20
ATOM     20  O   UNL d   1      52.775  29.018  53.857  0.00  0.00    -0.323 OA
ATOM     21  C   UNL d   1      53.266  28.712  54.484  0.00  0.00     0.182 C 
ENDBRANCH  19  20
ENDBRANCH  18  19
ENDBRANCH  17  18
ENDBRANCH   6  17
TORSDOF 4
ENDMDL
MODEL 5
REMARK VINA RESULT:      -6.3      9.411     10.434
REMARK  4 active torsions:
REMARK  status: ('A' for Active; 'I' for Inactive)
REMARK    1  A    between atoms: N_14  and  C_6 
REMARK    2  A    between atoms: C_19  and  N_14 
REMARK    3  A    between atoms: O_17  and  C_20 
REMARK    4  A    between atoms: C_20  and  C_19 
ROOT
ATOM      1  N   UNL d   1      44.934  29.636  58.912  0.00  0.00    -0.183 N 
ATOM      2  C   UNL d   1      44.906  29.535  58.088  0.00  0.00     0.169 A 
ATOM      3  C   UNL d   1      44.964  28.789  57.758  0.00  0.00     0.073 A 
ATOM      4  C   UNL d   1      45.050  28.145  58.254  0.00  0.00     0.185 A 
ATOM      5  N   UNL d   1      45.078  28.246  59.077  0.00  0.00    -0.142 NA
ATOM      6  C   UNL d   1      44.874  30.389  59.224  0.00  0.00     0.218 A 
ATOM      7  N   UNL d   1      44.820  30.190  57.600  0.00  0.00    -0.226 NA
ATOM      8  C   UNL d   1      44.937  28.689  56.943  0.00  0.00     0.007 A 
ATOM      9  N   UNL d   1      45.110  27.384  57.934  0.00  0.00    -0.225 NA
ATOM     10  C   UNL d   1      44.789  31.040  58.744  0.00  0.00     0.071 A 
ATOM     11  C   UNL d   1      44.994  27.944  56.612  0.00  0.00     0.019 A 
ATOM     12  C   UNL d   1      44.761  30.939  57.921  0.00  0.00     0.087 A 
ATOM     13  C   UNL d   1      45.082  27.283  57.111  0.00  0.00     0.083 A 
ATOM     14  C   UNL d   1      44.850  29.348  56.453  0.00  0.00     0.000 C 
ATOM     15  C   UNL d   1      44.671  31.621  57.416  0.00  0.00     0.021 C 
ATOM     16  C   UNL d   1      45.140  26.537  56.788  0.00  0.00     0.021 C 
ENDROOT
BRANCH   6  17
ATOM     17  N   UNL d   1      44.904  30.484  60.074  0.00  0.00    -0.378 NA
BRANCH  17  18
ATOM     18  C   UNL d   1      45.055  30.699  60.878  0.00  0.00     0.189 C 
BRANCH  18  19
ATOM     19  C   UNL d   1      44.478  30.533  61.477  0.00  0.00     0.151 C 
BRANCH  19  20
ATOM     20  O   UNL d   1      44.653  30.691  62.284  0.00  0.00    -0.323 OA
ATOM     21  C   UNL d   1      44.314  30.220  62.911  0.00  0.00     0.182 C 
ENDBRANCH  19  20
ENDBRANCH  18  19
ENDBRANCH  17  18
ENDBRANCH   6  17
TORSDOF 4
ENDMDL
MODEL 6
REMARK VINA RESULT:      -6.2      9.109      9.924
REMARK  4 active torsions:
REMARK  status: ('A' for Active; 'I' for Inactive)
REMARK    1  A    between atoms: N_14  and  C_6 
REMARK    2  A    between atoms: C_19  and  N_14 
REMARK    3  A    between atoms: O_17  and  C_20 
REMARK    4  A    between atoms: C_20  and  C_19 
ROOT
ATOM      1  N   UNL d   1      44.928  28.923  57.928  0.00  0.00    -0.183 N 
ATOM      2  C   UNL d   1      44.772  29.726  58.063  0.00  0.00     0.169 A 
ATOM      3  C   UNL d   1      44.739  30.023  58.825  0.00  0.00     0.073 A 
ATOM      4  C   UNL d   1      44.863  29.511  59.451  0.00  0.00     0.185 A 
ATOM      5  N   UNL d   1      45.019  28.707  59.316  0.00  0.00    -0.142 NA
ATOM      6  C   UNL d   1      44.957  28.645  57.160  0.00  0.00     0.218 A 
ATOM      7  N   UNL d   1      44.648  30.231  57.426  0.00  0.00    -0.226 NA
ATOM      8  C   UNL d   1      44.584  30.818  58.959  0.00  0.00     0.007 A 
ATOM      9  N   UNL d   1      44.833  29.796  60.228  0.00  0.00    -0.225 NA
ATOM     10  C   UNL d   1      44.836  29.140  56.527  0.00  0.00     0.071 A 
ATOM     11  C   UNL d   1      44.551  31.114  59.720  0.00  0.00     0.019 A 
ATOM     12  C   UNL d   1      44.679  29.944  56.662  0.00  0.00     0.087 A 
ATOM     13  C   UNL d   1      44.677  30.600  60.363  0.00  0.00     0.083 A 
ATOM     14  C   UNL d   1      44.460  31.324  58.318  0.00  0.00     0.000 C 
ATOM     15  C   UNL d   1      44.552  30.465  55.998  0.00  0.00     0.021 C 
ATOM     16  C   UNL d   1      44.645  30.889  61.124  0.00  0.00     0.021 C 
ENDROOT
BRANCH   6  17
ATOM     17  N   UNL d   1      45.119  27.815  57.030  0.00  0.00    -0.378 NA
BRANCH  17  18
ATOM     18  C   UNL d   1      45.428  27.052  56.833  0.00  0.00     0.189 C 
BRANCH  18  19
ATOM     19  C   UNL d   1      44.913  26.448  56.536  0.00  0.00     0.151 C 
BRANCH  19  20
ATOM     20  O   UNL d   1      45.234  25.783  56.133  0.00  0.00    -0.323 OA
ATOM     21  C   UNL d   1      44.757  25.096  55.966  0.00  0.00     0.182 C 
ENDBRANCH  19  20
ENDBRANCH  18  19
ENDBRANCH  17  18
ENDBRANCH   6  17
TORSDOF 4
ENDMDL
MODEL 7
REMARK VINA RESULT:      -6.0      9.597     10.962
REMARK  4 active torsions:
REMARK  status: ('A' for Active; 'I' for Inactive)
REMARK    1  A    between atoms: N_14  and  C_6 
REMARK    2  A    between atoms: C_19  and  N_14 
REMARK    3  A    between atoms: O_17  and  C_20 
REMARK    4  A    between atoms: C_20  and  C_19 
ROOT
ATOM      1  N   UNL d   1      44.912  28.603  58.690  0.00  0.00    -0.183 N 
ATOM      2  C   UNL d   1      44.895  28.082  58.044  0.00  0.00     0.169 A 
ATOM      3  C   UNL d   1      44.828  27.275  58.160  0.00  0.00     0.073 A 
ATOM      4  C   UNL d   1      44.780  26.991  58.925  0.00  0.00     0.185 A 
ATOM      5  N   UNL d   1      44.797  27.512  59.572  0.00  0.00    -0.142 NA
ATOM      6  C   UNL d   1      44.979  29.405  58.554  0.00  0.00     0.218 A 
ATOM      7  N   UNL d   1      44.944  28.379  57.280  0.00  0.00    -0.226 NA
ATOM      8  C   UNL d   1      44.811  26.760  57.521  0.00  0.00     0.007 A 
ATOM      9  N   UNL d   1      44.712  26.177  59.059  0.00  0.00    -0.225 NA
ATOM     10  C   UNL d   1      45.028  29.704  57.800  0.00  0.00     0.071 A 
ATOM     11  C   UNL d   1      44.745  25.954  57.636  0.00  0.00     0.019 A 
ATOM     12  C   UNL d   1      45.011  29.184  57.154  0.00  0.00     0.087 A 
ATOM     13  C   UNL d   1      44.695  25.656  58.413  0.00  0.00     0.083 A 
ATOM     14  C   UNL d   1      44.861  27.059  56.753  0.00  0.00     0.000 C 
ATOM     15  C   UNL d   1      45.063  29.496  56.360  0.00  0.00     0.021 C 
ATOM     16  C   UNL d   1      44.629  24.854  58.535  0.00  0.00     0.021 C 
ENDROOT
BRANCH   6  17
ATOM     17  N   UNL d   1      44.996  29.935  59.226  0.00  0.00    -0.378 NA
BRANCH  17  18
ATOM     18  C   UNL d   1      45.018  30.584  59.769  0.00  0.00     0.189 C 
BRANCH  18  19
ATOM     19  C   UNL d   1      44.689  30.499  60.546  0.00  0.00     0.151 C 
BRANCH  19  20
ATOM     20  O   UNL d   1      44.871  31.062  61.144  0.00  0.00    -0.323 OA
ATOM     21  C   UNL d   1      44.314  31.245  61.763  0.00  0.00     0.182 C 
ENDBRANCH  19  20
ENDBRANCH  18  19
ENDBRANCH  17  18
ENDBRANCH   6  17
TORSDOF 4
ENDMDL
