MODEL 1
REMARK VINA RESULT:      -7.5      0.000      0.000
REMARK  5 active torsions:
REMARK  status: ('A' for Active; 'I' for Inactive)
REMARK    1  A    between atoms: C_4  and  C_1 
REMARK       I    between atoms: N_8  and  C_4 
REMARK    2  A    between atoms: C_17  and  N_8 
REMARK    3  A    between atoms: C_18  and  N_8 
REMARK    4  A    between atoms: C_15  and  C_11 
REMARK    5  A    between atoms: C_12  and  C_15 
ROOT
ATOM      1  C   UNL d   1     -48.885  13.068  22.245  0.00  0.00     0.120 A 
ATOM      2  C   UNL d   1     -48.727  12.278  22.487  0.00  0.00     0.305 A 
ATOM      3  O   UNL d   1     -47.986  12.094  22.800  0.00  0.00    -0.273 OA
ATOM      4  C   UNL d   1     -48.298  13.647  22.325  0.00  0.00     0.012 A 
ATOM      5  C   UNL d   1     -47.404  12.679  22.877  0.00  0.00     0.103 A 
ATOM      6  C   UNL d   1     -47.560  13.455  22.639  0.00  0.00     0.023 A 
ATOM      7  O   UNL d   1     -49.304  11.668  22.418  0.00  0.00    -0.259 OA
ATOM      8  C   UNL d   1     -46.682  12.475  23.189  0.00  0.00     0.023 A 
ATOM      9  C   UNL d   1     -46.994  14.028  22.713  0.00  0.00     0.002 A 
ATOM     10  C   UNL d   1     -46.256  13.836  23.028  0.00  0.00     0.000 A 
ATOM     11  C   UNL d   1     -46.097  13.045  23.270  0.00  0.00     0.002 A 
ENDROOT
BRANCH   1  12
ATOM     12  C   UNL d   1     -49.630  13.293  21.920  0.00  0.00     0.270 C 
ATOM     13  N   UNL d   1     -50.167  13.680  22.399  0.00  0.00    -0.272 N 
ATOM     14  O   UNL d   1     -49.814  13.116  21.109  0.00  0.00    -0.266 OA
BRANCH  13  15
ATOM     15  C   UNL d   1     -49.979  13.846  23.183  0.00  0.00     0.083 C 
ATOM     16  C   UNL d   1     -50.552  14.116  23.696  0.00  0.00     0.021 C 
ENDBRANCH  13  15
BRANCH  13  17
ATOM     17  C   UNL d   1     -50.901  13.908  22.103  0.00  0.00     0.083 C 
ATOM     18  C   UNL d   1     -51.062  14.703  21.984  0.00  0.00     0.021 C 
ENDBRANCH  13  17
ENDBRANCH   1  12
BRANCH   8  19
ATOM     19  C   UNL d   1     -46.534  11.699  23.424  0.00  0.00     0.002 C 
BRANCH  19  20
ATOM     20  C   UNL d   1     -45.773  11.447  23.551  0.00  0.00     0.000 C 
ATOM     21  C   UNL d   1     -45.613  10.638  23.698  0.00  0.00     0.000 C 
ENDBRANCH  19  20
ENDBRANCH   8  19
TORSDOF 5
ENDMDL
MODEL 2
REMARK VINA RESULT:      -7.2      1.273      1.884
REMARK  5 active torsions:
REMARK  status: ('A' for Active; 'I' for Inactive)
REMARK    1  A    between atoms: C_4  and  C_1 
REMARK       I    between atoms: N_8  and  C_4 
REMARK    2  A    between atoms: C_17  and  N_8 
REMARK    3  A    between atoms: C_18  and  N_8 
REMARK    4  A    between atoms: C_15  and  C_11 
REMARK    5  A    between atoms: C_12  and  C_15 
ROOT
ATOM      1  C   UNL d   1     -48.634  13.838  22.953  0.00  0.00     0.120 A 
ATOM      2  C   UNL d   1     -48.007  14.238  22.559  0.00  0.00     0.305 A 
ATOM      3  O   UNL d   1     -47.258  13.894  22.544  0.00  0.00    -0.273 OA
ATOM      4  C   UNL d   1     -48.489  13.109  23.320  0.00  0.00     0.012 A 
ATOM      5  C   UNL d   1     -47.120  13.165  22.912  0.00  0.00     0.103 A 
ATOM      6  C   UNL d   1     -47.736  12.772  23.300  0.00  0.00     0.023 A 
ATOM      7  O   UNL d   1     -48.124  14.980  22.177  0.00  0.00    -0.259 OA
ATOM      8  C   UNL d   1     -46.374  12.846  22.885  0.00  0.00     0.023 A 
ATOM      9  C   UNL d   1     -47.606  12.060  23.661  0.00  0.00     0.002 A 
ATOM     10  C   UNL d   1     -46.853  11.723  23.641  0.00  0.00     0.000 A 
ATOM     11  C   UNL d   1     -46.226  12.123  23.246  0.00  0.00     0.002 A 
ENDROOT
BRANCH   1  12
ATOM     12  C   UNL d   1     -49.412  14.158  22.989  0.00  0.00     0.270 C 
ATOM     13  N   UNL d   1     -49.984  13.860  22.486  0.00  0.00    -0.272 N 
ATOM     14  O   UNL d   1     -49.595  14.780  23.539  0.00  0.00    -0.266 OA
BRANCH  13  15
ATOM     15  C   UNL d   1     -49.797  13.258  21.957  0.00  0.00     0.083 C 
ATOM     16  C   UNL d   1     -50.385  12.882  21.536  0.00  0.00     0.021 C 
ENDBRANCH  13  15
BRANCH  13  17
ATOM     17  C   UNL d   1     -50.751  14.158  22.504  0.00  0.00     0.083 C 
ATOM     18  C   UNL d   1     -51.064  14.517  21.837  0.00  0.00     0.021 C 
ENDBRANCH  13  17
ENDBRANCH   1  12
BRANCH   8  19
ATOM     19  C   UNL d   1     -45.765  13.243  22.496  0.00  0.00     0.002 C 
BRANCH  19  20
ATOM     20  C   UNL d   1     -45.113  12.837  22.233  0.00  0.00     0.000 C 
ATOM     21  C   UNL d   1     -44.528  13.225  21.776  0.00  0.00     0.000 C 
ENDBRANCH  19  20
ENDBRANCH   8  19
TORSDOF 5
ENDMDL
MODEL 3
REMARK VINA RESULT:      -7.0      1.400      1.711
REMARK  5 active torsions:
REMARK  status: ('A' for Active; 'I' for Inactive)
REMARK    1  A    between atoms: C_4  and  C_1 
REMARK       I    between atoms: N_8  and  C_4 
REMARK    2  A    between atoms: C_17  and  N_8 
REMARK    3  A    between atoms: C_18  and  N_8 
REMARK    4  A    between atoms: C_15  and  C_11 
REMARK    5  A    between atoms: C_12  and  C_15 
ROOT
ATOM      1  C   UNL d   1     -48.360  12.536  22.866  0.00  0.00     0.120 A 
ATOM      2  C   UNL d   1     -47.753  11.995  22.648  0.00  0.00     0.305 A 
ATOM      3  O   UNL d   1     -46.988  12.277  22.525  0.00  0.00    -0.273 OA
ATOM      4  C   UNL d   1     -48.181  13.340  22.954  0.00  0.00     0.012 A 
ATOM      5  C   UNL d   1     -46.816  13.083  22.615  0.00  0.00     0.103 A 
ATOM      6  C   UNL d   1     -47.413  13.614  22.829  0.00  0.00     0.023 A 
ATOM      7  O   UNL d   1     -47.906  11.172  22.551  0.00  0.00    -0.259 OA
ATOM      8  C   UNL d   1     -46.056  13.338  22.490  0.00  0.00     0.023 A 
ATOM      9  C   UNL d   1     -47.248  14.401  22.918  0.00  0.00     0.002 A 
ATOM     10  C   UNL d   1     -46.480  14.675  22.794  0.00  0.00     0.000 A 
ATOM     11  C   UNL d   1     -45.873  14.134  22.576  0.00  0.00     0.002 A 
ENDROOT
BRANCH   1  12
ATOM     12  C   UNL d   1     -49.153  12.284  22.999  0.00  0.00     0.270 C 
ATOM     13  N   UNL d   1     -49.724  12.472  22.445  0.00  0.00    -0.272 N 
ATOM     14  O   UNL d   1     -49.350  11.842  23.698  0.00  0.00    -0.266 OA
BRANCH  13  15
ATOM     15  C   UNL d   1     -49.523  12.901  21.771  0.00  0.00     0.083 C 
ATOM     16  C   UNL d   1     -50.043  12.955  21.147  0.00  0.00     0.021 C 
ENDBRANCH  13  15
BRANCH  13  17
ATOM     17  C   UNL d   1     -50.505  12.236  22.555  0.00  0.00     0.083 C 
ATOM     18  C   UNL d   1     -51.064  12.780  22.803  0.00  0.00     0.021 C 
ENDBRANCH  13  17
ENDBRANCH   1  12
BRANCH   8  19
ATOM     19  C   UNL d   1     -45.467  12.803  22.276  0.00  0.00     0.002 C 
BRANCH  19  20
ATOM     20  C   UNL d   1     -44.783  13.064  21.924  0.00  0.00     0.000 C 
ATOM     21  C   UNL d   1     -44.129  12.548  21.833  0.00  0.00     0.000 C 
ENDBRANCH  19  20
ENDBRANCH   8  19
TORSDOF 5
ENDMDL
MODEL 4
REMARK VINA RESULT:      -5.7      8.723      9.872
REMARK  5 active torsions:
REMARK  status: ('A' for Active; 'I' for Inactive)
REMARK    1  A    between atoms: C_4  and  C_1 
REMARK       I    between atoms: N_8  and  C_4 
REMARK    2  A    between atoms: C_17  and  N_8 
REMARK    3  A    between atoms: C_18  and  N_8 
REMARK    4  A    between atoms: C_15  and  C_11 
REMARK    5  A    between atoms: C_12  and  C_15 
ROOT
ATOM      1  C   UNL d   1     -39.997  14.621  20.202  0.00  0.00     0.120 A 
ATOM      2  C   UNL d   1     -40.577  15.158  19.912  0.00  0.00     0.305 A 
ATOM      3  O   UNL d   1     -40.693  15.224  19.098  0.00  0.00    -0.273 OA
ATOM      4  C   UNL d   1     -39.553  14.169  19.668  0.00  0.00     0.012 A 
ATOM      5  C   UNL d   1     -40.246  14.768  18.570  0.00  0.00     0.103 A 
ATOM      6  C   UNL d   1     -39.676  14.240  18.855  0.00  0.00     0.023 A 
ATOM      7  O   UNL d   1     -41.043  15.631  20.430  0.00  0.00    -0.259 OA
ATOM      8  C   UNL d   1     -40.377  14.849  17.773  0.00  0.00     0.023 A 
ATOM      9  C   UNL d   1     -39.237  13.794  18.342  0.00  0.00     0.002 A 
ATOM     10  C   UNL d   1     -39.360  13.866  17.530  0.00  0.00     0.000 A 
ATOM     11  C   UNL d   1     -39.940  14.403  17.239  0.00  0.00     0.002 A 
ENDROOT
BRANCH   1  12
ATOM     12  C   UNL d   1     -39.851  14.528  21.026  0.00  0.00     0.270 C 
ATOM     13  N   UNL d   1     -39.199  14.897  21.354  0.00  0.00    -0.272 N 
ATOM     14  O   UNL d   1     -40.374  14.058  21.503  0.00  0.00    -0.266 OA
BRANCH  13  15
ATOM     15  C   UNL d   1     -38.698  15.351  20.884  0.00  0.00     0.083 C 
ATOM     16  C   UNL d   1     -38.117  15.809  21.223  0.00  0.00     0.021 C 
ENDBRANCH  13  15
BRANCH  13  17
ATOM     17  C   UNL d   1     -39.038  14.820  22.158  0.00  0.00     0.083 C 
ATOM     18  C   UNL d   1     -38.436  14.323  22.406  0.00  0.00     0.021 C 
ENDBRANCH  13  17
ENDBRANCH   1  12
BRANCH   8  19
ATOM     19  C   UNL d   1     -40.947  15.376  17.496  0.00  0.00     0.002 C 
BRANCH  19  20
ATOM     20  C   UNL d   1     -41.057  15.480  16.698  0.00  0.00     0.000 C 
ATOM     21  C   UNL d   1     -41.711  15.920  16.414  0.00  0.00     0.000 C 
ENDBRANCH  19  20
ENDBRANCH   8  19
TORSDOF 5
ENDMDL
MODEL 5
REMARK VINA RESULT:      -5.7      1.208      1.800
REMARK  5 active torsions:
REMARK  status: ('A' for Active; 'I' for Inactive)
REMARK    1  A    between atoms: C_4  and  C_1 
REMARK       I    between atoms: N_8  and  C_4 
REMARK    2  A    between atoms: C_17  and  N_8 
REMARK    3  A    between atoms: C_18  and  N_8 
REMARK    4  A    between atoms: C_15  and  C_11 
REMARK    5  A    between atoms: C_12  and  C_15 
ROOT
ATOM      1  C   UNL d   1     -47.491  13.128  22.916  0.00  0.00     0.120 A 
ATOM      2  C   UNL d   1     -47.447  12.385  23.310  0.00  0.00     0.305 A 
ATOM      3  O   UNL d   1     -46.732  11.975  23.318  0.00  0.00    -0.273 OA
ATOM      4  C   UNL d   1     -46.817  13.434  22.543  0.00  0.00     0.012 A 
ATOM      5  C   UNL d   1     -46.063  12.288  22.942  0.00  0.00     0.103 A 
ATOM      6  C   UNL d   1     -46.105  13.018  22.555  0.00  0.00     0.023 A 
ATOM      7  O   UNL d   1     -48.115  12.049  23.698  0.00  0.00    -0.259 OA
ATOM      8  C   UNL d   1     -45.368  11.867  22.963  0.00  0.00     0.023 A 
ATOM      9  C   UNL d   1     -45.454  13.326  22.188  0.00  0.00     0.002 A 
ATOM     10  C   UNL d   1     -44.742  12.909  22.200  0.00  0.00     0.000 A 
ATOM     11  C   UNL d   1     -44.698  12.167  22.595  0.00  0.00     0.002 A 
ENDROOT
BRANCH   1  12
ATOM     12  C   UNL d   1     -48.205  13.574  22.888  0.00  0.00     0.270 C 
ATOM     13  N   UNL d   1     -48.730  13.438  22.277  0.00  0.00    -0.272 N 
ATOM     14  O   UNL d   1     -48.371  14.155  23.486  0.00  0.00    -0.266 OA
BRANCH  13  15
ATOM     15  C   UNL d   1     -48.561  12.873  21.702  0.00  0.00     0.083 C 
ATOM     16  C   UNL d   1     -49.142  12.615  21.193  0.00  0.00     0.021 C 
ENDBRANCH  13  15
BRANCH  13  17
ATOM     17  C   UNL d   1     -49.434  13.863  22.230  0.00  0.00     0.083 C 
ATOM     18  C   UNL d   1     -49.573  14.351  21.586  0.00  0.00     0.021 C 
ENDBRANCH  13  17
ENDBRANCH   1  12
BRANCH   8  19
ATOM     19  C   UNL d   1     -45.333  11.141  23.351  0.00  0.00     0.002 C 
BRANCH  19  20
ATOM     20  C   UNL d   1     -44.623  10.758  23.442  0.00  0.00     0.000 C 
ATOM     21  C   UNL d   1     -44.600   9.960  23.697  0.00  0.00     0.000 C 
ENDBRANCH  19  20
ENDBRANCH   8  19
TORSDOF 5
ENDMDL
MODEL 6
REMARK VINA RESULT:      -5.4      8.305      9.811
REMARK  5 active torsions:
REMARK  status: ('A' for Active; 'I' for Inactive)
REMARK    1  A    between atoms: C_4  and  C_1 
REMARK       I    between atoms: N_8  and  C_4 
REMARK    2  A    between atoms: C_17  and  N_8 
REMARK    3  A    between atoms: C_18  and  N_8 
REMARK    4  A    between atoms: C_15  and  C_11 
REMARK    5  A    between atoms: C_12  and  C_15 
ROOT
ATOM      1  C   UNL d   1     -40.062  15.199  18.039  0.00  0.00     0.120 A 
ATOM      2  C   UNL d   1     -40.601  14.570  18.188  0.00  0.00     0.305 A 
ATOM      3  O   UNL d   1     -40.829  14.410  18.964  0.00  0.00    -0.273 OA
ATOM      4  C   UNL d   1     -39.769  15.646  18.673  0.00  0.00     0.012 A 
ATOM      5  C   UNL d   1     -40.531  14.861  19.592  0.00  0.00     0.103 A 
ATOM      6  C   UNL d   1     -40.002  15.479  19.447  0.00  0.00     0.023 A 
ATOM      7  O   UNL d   1     -40.915  14.098  17.564  0.00  0.00    -0.259 OA
ATOM      8  C   UNL d   1     -40.770  14.685  20.349  0.00  0.00     0.023 A 
ATOM      9  C   UNL d   1     -39.710  15.922  20.057  0.00  0.00     0.002 A 
ATOM     10  C   UNL d   1     -39.943  15.755  20.831  0.00  0.00     0.000 A 
ATOM     11  C   UNL d   1     -40.482  15.126  20.979  0.00  0.00     0.002 A 
ENDROOT
BRANCH   1  12
ATOM     12  C   UNL d   1     -39.807  15.391  17.260  0.00  0.00     0.270 C 
ATOM     13  N   UNL d   1     -39.077  15.123  17.007  0.00  0.00    -0.272 N 
ATOM     14  O   UNL d   1     -40.304  15.856  16.749  0.00  0.00    -0.266 OA
BRANCH  13  15
ATOM     15  C   UNL d   1     -38.604  14.674  17.508  0.00  0.00     0.083 C 
ATOM     16  C   UNL d   1     -37.982  14.240  17.210  0.00  0.00     0.021 C 
ENDBRANCH  13  15
BRANCH  13  17
ATOM     17  C   UNL d   1     -38.808  15.299  16.249  0.00  0.00     0.083 C 
ATOM     18  C   UNL d   1     -38.181  15.817  16.149  0.00  0.00     0.021 C 
ENDBRANCH  13  17
ENDBRANCH   1  12
BRANCH   8  19
ATOM     19  C   UNL d   1     -41.298  14.068  20.486  0.00  0.00     0.002 C 
BRANCH  19  20
ATOM     20  C   UNL d   1     -41.609  13.952  21.227  0.00  0.00     0.000 C 
ATOM     21  C   UNL d   1     -42.183  13.355  21.357  0.00  0.00     0.000 C 
ENDBRANCH  19  20
ENDBRANCH   8  19
TORSDOF 5
ENDMDL
MODEL 7
REMARK VINA RESULT:      -5.3      8.608      9.966
REMARK  5 active torsions:
REMARK  status: ('A' for Active; 'I' for Inactive)
REMARK    1  A    between atoms: C_4  and  C_1 
REMARK       I    between atoms: N_8  and  C_4 
REMARK    2  A    between atoms: C_17  and  N_8 
REMARK    3  A    between atoms: C_18  and  N_8 
REMARK    4  A    between atoms: C_15  and  C_11 
REMARK    5  A    between atoms: C_12  and  C_15 
ROOT
ATOM      1  C   UNL d   1     -39.618  14.490  18.833  0.00  0.00     0.120 A 
ATOM      2  C   UNL d   1     -38.977  14.486  19.379  0.00  0.00     0.305 A 
ATOM      3  O   UNL d   1     -39.074  14.846  20.115  0.00  0.00    -0.273 OA
ATOM      4  C   UNL d   1     -40.333  14.854  19.041  0.00  0.00     0.012 A 
ATOM      5  C   UNL d   1     -39.792  15.208  20.316  0.00  0.00     0.103 A 
ATOM      6  C   UNL d   1     -40.421  15.212  19.779  0.00  0.00     0.023 A 
ATOM      7  O   UNL d   1     -38.239  14.124  19.195  0.00  0.00    -0.259 OA
ATOM      8  C   UNL d   1     -39.865  15.557  21.046  0.00  0.00     0.023 A 
ATOM      9  C   UNL d   1     -41.123  15.564  19.973  0.00  0.00     0.002 A 
ATOM     10  C   UNL d   1     -41.212  15.922  20.711  0.00  0.00     0.000 A 
ATOM     11  C   UNL d   1     -40.571  15.918  21.257  0.00  0.00     0.002 A 
ENDROOT
BRANCH   1  12
ATOM     12  C   UNL d   1     -39.555  14.132  18.073  0.00  0.00     0.270 C 
ATOM     13  N   UNL d   1     -39.423  14.610  17.423  0.00  0.00    -0.272 N 
ATOM     14  O   UNL d   1     -39.629  13.289  17.989  0.00  0.00    -0.266 OA
BRANCH  13  15
ATOM     15  C   UNL d   1     -39.353  15.425  17.514  0.00  0.00     0.083 C 
ATOM     16  C   UNL d   1     -39.459  15.922  16.878  0.00  0.00     0.021 C 
ENDBRANCH  13  15
BRANCH  13  17
ATOM     17  C   UNL d   1     -39.358  14.281  16.670  0.00  0.00     0.083 C 
ATOM     18  C   UNL d   1     -38.702  14.445  16.209  0.00  0.00     0.021 C 
ENDBRANCH  13  17
ENDBRANCH   1  12
BRANCH   8  19
ATOM     19  C   UNL d   1     -39.233  15.549  21.575  0.00  0.00     0.002 C 
BRANCH  19  20
ATOM     20  C   UNL d   1     -39.327  15.836  22.329  0.00  0.00     0.000 C 
ATOM     21  C   UNL d   1     -38.666  15.913  22.839  0.00  0.00     0.000 C 
ENDBRANCH  19  20
ENDBRANCH   8  19
TORSDOF 5
ENDMDL
MODEL 8
REMARK VINA RESULT:      -5.2      9.196     10.595
REMARK  5 active torsions:
REMARK  status: ('A' for Active; 'I' for Inactive)
REMARK    1  A    between atoms: C_4  and  C_1 
REMARK       I    between atoms: N_8  and  C_4 
REMARK    2  A    between atoms: C_17  and  N_8 
REMARK    3  A    between atoms: C_18  and  N_8 
REMARK    4  A    between atoms: C_15  and  C_11 
REMARK    5  A    between atoms: C_12  and  C_15 
ROOT
ATOM      1  C   UNL d   1     -39.864  14.475  18.578  0.00  0.00     0.120 A 
ATOM      2  C   UNL d   1     -39.824  14.927  17.869  0.00  0.00     0.305 A 
ATOM      3  O   UNL d   1     -39.382  14.641  17.234  0.00  0.00    -0.273 OA
ATOM      4  C   UNL d   1     -39.460  13.753  18.627  0.00  0.00     0.012 A 
ATOM      5  C   UNL d   1     -38.981  13.918  17.291  0.00  0.00     0.103 A 
ATOM      6  C   UNL d   1     -39.020  13.474  17.987  0.00  0.00     0.023 A 
ATOM      7  O   UNL d   1     -40.224  15.664  17.789  0.00  0.00    -0.259 OA
ATOM      8  C   UNL d   1     -38.551  13.657  16.653  0.00  0.00     0.023 A 
ATOM      9  C   UNL d   1     -38.630  12.768  18.046  0.00  0.00     0.002 A 
ATOM     10  C   UNL d   1     -38.190  12.489  17.406  0.00  0.00     0.000 A 
ATOM     11  C   UNL d   1     -38.150  12.942  16.697  0.00  0.00     0.002 A 
ENDROOT
BRANCH   1  12
ATOM     12  C   UNL d   1     -40.306  14.735  19.246  0.00  0.00     0.270 C 
ATOM     13  N   UNL d   1     -39.915  15.131  19.846  0.00  0.00    -0.272 N 
ATOM     14  O   UNL d   1     -41.142  14.587  19.291  0.00  0.00    -0.266 OA
BRANCH  13  15
ATOM     15  C   UNL d   1     -39.106  15.269  19.793  0.00  0.00     0.083 C 
ATOM     16  C   UNL d   1     -38.735  15.753  20.333  0.00  0.00     0.021 C 
ENDBRANCH  13  15
BRANCH  13  17
ATOM     17  C   UNL d   1     -40.328  15.394  20.508  0.00  0.00     0.083 C 
ATOM     18  C   UNL d   1     -40.288  14.970  21.208  0.00  0.00     0.021 C 
ENDBRANCH  13  17
ENDBRANCH   1  12
BRANCH   8  19
ATOM     19  C   UNL d   1     -38.517  14.105  15.962  0.00  0.00     0.002 C 
BRANCH  19  20
ATOM     20  C   UNL d   1     -37.941  13.960  15.408  0.00  0.00     0.000 C 
ATOM     21  C   UNL d   1     -37.943  14.372  14.678  0.00  0.00     0.000 C 
ENDBRANCH  19  20
ENDBRANCH   8  19
TORSDOF 5
ENDMDL
MODEL 9
REMARK VINA RESULT:      -4.9      8.952     10.412
REMARK  5 active torsions:
REMARK  status: ('A' for Active; 'I' for Inactive)
REMARK    1  A    between atoms: C_4  and  C_1 
REMARK       I    between atoms: N_8  and  C_4 
REMARK    2  A    between atoms: C_17  and  N_8 
REMARK    3  A    between atoms: C_18  and  N_8 
REMARK    4  A    between atoms: C_15  and  C_11 
REMARK    5  A    between atoms: C_12  and  C_15 
ROOT
ATOM      1  C   UNL d   1     -39.151  15.211  19.403  0.00  0.00     0.120 A 
ATOM      2  C   UNL d   1     -38.611  14.645  19.094  0.00  0.00     0.305 A 
ATOM      3  O   UNL d   1     -38.624  14.475  18.287  0.00  0.00    -0.273 OA
ATOM      4  C   UNL d   1     -39.685  15.589  18.894  0.00  0.00     0.012 A 
ATOM      5  C   UNL d   1     -39.161  14.857  17.784  0.00  0.00     0.103 A 
ATOM      6  C   UNL d   1     -39.692  15.414  18.088  0.00  0.00     0.023 A 
ATOM      7  O   UNL d   1     -38.056  14.245  19.586  0.00  0.00    -0.259 OA
ATOM      8  C   UNL d   1     -39.155  14.675  16.993  0.00  0.00     0.023 A 
ATOM      9  C   UNL d   1     -40.217  15.788  17.600  0.00  0.00     0.002 A 
ATOM     10  C   UNL d   1     -40.223  15.613  16.794  0.00  0.00     0.000 A 
ATOM     11  C   UNL d   1     -39.683  15.046  16.485  0.00  0.00     0.002 A 
ENDROOT
BRANCH   1  12
ATOM     12  C   UNL d   1     -39.167  15.409  20.222  0.00  0.00     0.270 C 
ATOM     13  N   UNL d   1     -39.762  15.100  20.690  0.00  0.00    -0.272 N 
ATOM     14  O   UNL d   1     -38.572  15.921  20.550  0.00  0.00    -0.266 OA
BRANCH  13  15
ATOM     15  C   UNL d   1     -40.333  14.606  20.362  0.00  0.00     0.083 C 
ATOM     16  C   UNL d   1     -40.877  14.232  20.839  0.00  0.00     0.021 C 
ENDBRANCH  13  15
BRANCH  13  17
ATOM     17  C   UNL d   1     -39.796  15.281  21.493  0.00  0.00     0.083 C 
ATOM     18  C   UNL d   1     -40.274  15.893  21.752  0.00  0.00     0.021 C 
ENDBRANCH  13  17
ENDBRANCH   1  12
BRANCH   8  19
ATOM     19  C   UNL d   1     -38.623  14.119  16.697  0.00  0.00     0.002 C 
BRANCH  19  20
ATOM     20  C   UNL d   1     -38.528  14.027  15.896  0.00  0.00     0.000 C 
ATOM     21  C   UNL d   1     -37.940  13.513  15.594  0.00  0.00     0.000 C 
ENDBRANCH  19  20
ENDBRANCH   8  19
TORSDOF 5
ENDMDL
