MODEL 1
REMARK VINA RESULT:      36.4      0.000      0.000
REMARK  3 active torsions:
REMARK  status: ('A' for Active; 'I' for Inactive)
REMARK    1  A    between atoms: N_2  and  C_1 
REMARK    2  A    between atoms: N_3  and  C_1 
REMARK       I    between atoms: C_4  and  N_2 
REMARK    3  A    between atoms: C_9  and  C_4 
ROOT
ATOM      1  C   UNL d   1     -55.763 -99.448 -44.566  0.00  0.00     0.209 C 
ATOM      2  S   UNL d   1     -55.224 -98.831 -44.486  0.00  0.00    -0.038 SA
ENDROOT
BRANCH   1   3
ATOM      3  N   UNL d   1     -56.560 -99.272 -44.713  0.00  0.00    -0.180 NA
ATOM      4  C   UNL d   1     -57.099 -99.287 -44.086  0.00  0.00     0.281 C 
ATOM      5  O   UNL d   1     -56.849 -99.475 -43.320  0.00  0.00    -0.265 OA
BRANCH   4   6
ATOM      6  C   UNL d   1     -57.890 -99.114 -44.227  0.00  0.00     0.058 A 
ATOM      7  C   UNL d   1     -58.406 -98.962 -43.594  0.00  0.00     0.005 A 
ATOM      8  C   UNL d   1     -59.197 -98.789 -43.731  0.00  0.00     0.000 A 
ATOM      9  C   UNL d   1     -59.482 -98.765 -44.512  0.00  0.00     0.000 A 
ATOM     10  C   UNL d   1     -58.970 -98.915 -45.144  0.00  0.00     0.000 A 
ATOM     11  C   UNL d   1     -58.178 -99.089 -44.995  0.00  0.00     0.005 A 
ENDBRANCH   4   6
ENDBRANCH   1   3
BRANCH   1  12
ATOM     12  N   UNL d   1     -55.516-100.226 -44.500  0.00  0.00    -0.281 N 
ATOM     13  C   UNL d   1     -55.148-100.482 -43.805  0.00  0.00     0.082 A 
ATOM     14  C   UNL d   1     -54.898-101.274 -43.741  0.00  0.00     0.019 A 
ATOM     15  C   UNL d   1     -55.017-101.796 -44.367  0.00  0.00     0.003 A 
ATOM     16  C   UNL d   1     -55.382-101.536 -45.055  0.00  0.00     0.019 A 
ATOM     17  C   UNL d   1     -54.770-102.577 -44.304  0.00  0.00     0.000 C 
ATOM     18  C   UNL d   1     -55.632-100.750 -45.124  0.00  0.00     0.082 A 
ENDBRANCH   1  12
TORSDOF 3
ENDMDL
