MODEL 1
REMARK VINA RESULT:      -0.8      0.000      0.000
REMARK  2 active torsions:
REMARK  status: ('A' for Active; 'I' for Inactive)
REMARK    1  A    between atoms: C_4  and  C_1 
REMARK    2  A    between atoms: C_8  and  C_2 
REMARK       I    between atoms: N_7  and  C_4 
ROOT
ATOM      1  C   UNL d   1      31.393  17.376 -24.432  0.00  0.00     0.081 A 
ATOM      2  C   UNL d   1      31.352  18.170 -24.273  0.00  0.00     0.104 A 
ATOM      3  C   UNL d   1      30.643  17.081 -24.585  0.00  0.00     0.033 A 
ATOM      4  O   UNL d   1      30.546  18.396 -24.326  0.00  0.00    -0.307 OA
ATOM      5  C   UNL d   1      30.113  17.720 -24.518  0.00  0.00     0.100 A 
ATOM      6  C   UNL d   1      30.359  16.331 -24.774  0.00  0.00     0.044 A 
ATOM      7  C   UNL d   1      29.306  17.597 -24.642  0.00  0.00     0.028 A 
ATOM      8  C   UNL d   1      29.548  16.204 -24.899  0.00  0.00     0.196 A 
ATOM      9  C   UNL d   1      29.018  16.843 -24.833  0.00  0.00     0.044 A 
ATOM     10  O   UNL d   1      29.275  15.463 -25.085  0.00  0.00    -0.287 OA
ENDROOT
BRANCH   1  11
ATOM     11  C   UNL d   1      32.095  16.918 -24.440  0.00  0.00     0.267 C 
ATOM     12  N   UNL d   1      32.279  16.438 -23.809  0.00  0.00    -0.268 N 
ATOM     13  C   UNL d   1      32.981  15.980 -23.816  0.00  0.00     0.110 A 
ATOM     14  C   UNL d   1      31.777  16.391 -23.144  0.00  0.00     0.110 A 
ATOM     15  C   UNL d   1      33.159  15.497 -23.172  0.00  0.00     0.142 A 
ATOM     16  O   UNL d   1      32.664  15.453 -22.520  0.00  0.00    -0.300 OA
ATOM     17  C   UNL d   1      31.963  15.907 -22.507  0.00  0.00     0.142 A 
ATOM     18  O   UNL d   1      32.590  16.962 -25.092  0.00  0.00    -0.267 OA
ENDBRANCH   1  11
BRANCH   2  19
ATOM     19  C   UNL d   1      31.986  18.678 -24.091  0.00  0.00     0.023 A 
ATOM     20  C   UNL d   1      32.448  18.965 -24.691  0.00  0.00     0.002 A 
ATOM     21  C   UNL d   1      33.082  19.473 -24.508  0.00  0.00     0.000 A 
ATOM     22  C   UNL d   1      33.241  19.683 -23.731  0.00  0.00     0.000 A 
ATOM     23  C   UNL d   1      32.766  19.387 -23.123  0.00  0.00     0.000 A 
ATOM     24  C   UNL d   1      32.134  18.882 -23.305  0.00  0.00     0.002 A 
ENDBRANCH   2  19
TORSDOF 2
ENDMDL
MODEL 2
REMARK VINA RESULT:       1.0      1.016      2.992
REMARK  2 active torsions:
REMARK  status: ('A' for Active; 'I' for Inactive)
REMARK    1  A    between atoms: C_4  and  C_1 
REMARK    2  A    between atoms: C_8  and  C_2 
REMARK       I    between atoms: N_7  and  C_4 
ROOT
ATOM      1  C   UNL d   1      31.230  17.207 -24.488  0.00  0.00     0.081 A 
ATOM      2  C   UNL d   1      30.432  17.279 -24.356  0.00  0.00     0.104 A 
ATOM      3  C   UNL d   1      31.557  17.943 -24.636  0.00  0.00     0.033 A 
ATOM      4  O   UNL d   1      30.239  18.092 -24.422  0.00  0.00    -0.307 OA
ATOM      5  C   UNL d   1      30.937  18.498 -24.596  0.00  0.00     0.100 A 
ATOM      6  C   UNL d   1      32.323  18.198 -24.803  0.00  0.00     0.044 A 
ATOM      7  C   UNL d   1      31.093  19.298 -24.722  0.00  0.00     0.028 A 
ATOM      8  C   UNL d   1      32.484  19.002 -24.931  0.00  0.00     0.196 A 
ATOM      9  C   UNL d   1      31.864  19.557 -24.890  0.00  0.00     0.044 A 
ATOM     10  O   UNL d   1      33.241  19.246 -25.095  0.00  0.00    -0.287 OA
ENDROOT
BRANCH   1  11
ATOM     11  C   UNL d   1      31.661  16.488 -24.475  0.00  0.00     0.267 C 
ATOM     12  N   UNL d   1      32.171  16.327 -23.861  0.00  0.00    -0.268 N 
ATOM     13  C   UNL d   1      32.603  15.608 -23.848  0.00  0.00     0.110 A 
ATOM     14  C   UNL d   1      32.277  16.870 -23.236  0.00  0.00     0.110 A 
ATOM     15  C   UNL d   1      33.118  15.454 -23.223  0.00  0.00     0.142 A 
ATOM     16  O   UNL d   1      33.219  15.989 -22.610  0.00  0.00    -0.300 OA
ATOM     17  C   UNL d   1      32.792  16.706 -22.618  0.00  0.00     0.142 A 
ATOM     18  O   UNL d   1      31.559  15.953 -25.088  0.00  0.00    -0.267 OA
ENDBRANCH   1  11
BRANCH   2  19
ATOM     19  C   UNL d   1      29.895  16.665 -24.185  0.00  0.00     0.023 A 
ATOM     20  C   UNL d   1      29.623  16.199 -24.788  0.00  0.00     0.002 A 
ATOM     21  C   UNL d   1      29.086  15.586 -24.618  0.00  0.00     0.000 A 
ATOM     22  C   UNL d   1      28.833  15.453 -23.848  0.00  0.00     0.000 A 
ATOM     23  C   UNL d   1      29.114  15.932 -23.237  0.00  0.00     0.000 A 
ATOM     24  C   UNL d   1      29.649  16.542 -23.407  0.00  0.00     0.002 A 
ENDBRANCH   2  19
TORSDOF 2
ENDMDL
