MODEL 1
REMARK VINA RESULT:      -6.1      0.000      0.000
REMARK  9 active torsions:
REMARK  status: ('A' for Active; 'I' for Inactive)
REMARK    1  A    between atoms: C_22  and  N_1 
REMARK    2  A    between atoms: S_10  and  C_2 
REMARK    3  A    between atoms: N_8  and  C_9 
REMARK    4  A    between atoms: C_24  and  S_10 
REMARK    5  A    between atoms: C_11  and  C_24 
REMARK       I    between atoms: N_15  and  C_11 
REMARK    6  A    between atoms: C_13  and  C_25 
REMARK    7  A    between atoms: C_25  and  N_15 
REMARK    8  A    between atoms: C_30  and  C_22 
REMARK    9  A    between atoms: C_31  and  C_30 
ROOT
ATOM      1  N   UNL d   1      52.150  33.999  53.357  0.00  0.00    -0.253 N 
ATOM      2  C   UNL d   1      51.971  33.260  53.038  0.00  0.00     0.182 A 
ATOM      3  C   UNL d   1      51.564  34.587  53.388  0.00  0.00     0.268 A 
ATOM      4  C   UNL d   1      50.807  34.434  53.101  0.00  0.00     0.076 A 
ATOM      5  N   UNL d   1      51.207  33.108  52.750  0.00  0.00    -0.222 NA
ATOM      6  C   UNL d   1      50.629  33.694  52.782  0.00  0.00     0.088 A 
ATOM      7  C   UNL d   1      50.230  35.019  53.133  0.00  0.00     0.024 A 
ATOM      8  C   UNL d   1      49.473  34.865  52.847  0.00  0.00     0.065 A 
ATOM      9  O   UNL d   1      51.742  35.327  53.707  0.00  0.00    -0.267 OA
ATOM     10  C   UNL d   1      49.873  33.539  52.496  0.00  0.00     0.021 A 
ATOM     11  C   UNL d   1      49.295  34.125  52.528  0.00  0.00     0.019 A 
ENDROOT
BRANCH   2  12
ATOM     12  S   UNL d   1      52.551  32.669  53.005  0.00  0.00    -0.044 SA
BRANCH  12  13
ATOM     13  C   UNL d   1      52.334  31.877  52.858  0.00  0.00     0.101 C 
BRANCH  13  14
ATOM     14  C   UNL d   1      52.903  31.278  52.914  0.00  0.00     0.286 C 
ATOM     15  N   UNL d   1      52.783  30.645  53.437  0.00  0.00    -0.204 NA
ATOM     16  O   UNL d   1      53.584  31.316  52.449  0.00  0.00    -0.265 OA
BRANCH  15  17
ATOM     17  C   UNL d   1      53.356  30.043  53.492  0.00  0.00     0.127 C 
BRANCH  17  18
ATOM     18  C   UNL d   1      53.323  29.502  54.122  0.00  0.00     0.119 A 
ATOM     19  O   UNL d   1      52.908  29.506  54.829  0.00  0.00    -0.304 OA
ATOM     20  C   UNL d   1      53.095  28.816  55.241  0.00  0.00     0.123 A 
ATOM     21  C   UNL d   1      53.626  28.379  54.791  0.00  0.00     0.029 A 
ATOM     22  C   UNL d   1      53.767  28.808  54.095  0.00  0.00     0.028 A 
ENDBRANCH  17  18
ENDBRANCH  15  17
ENDBRANCH  13  14
ENDBRANCH  12  13
ENDBRANCH   2  12
BRANCH   1  23
ATOM     23  C   UNL d   1      52.909  34.152  53.644  0.00  0.00     0.085 C 
BRANCH  23  24
ATOM     24  C   UNL d   1      53.049  34.156  54.458  0.00  0.00     0.019 C 
BRANCH  24  25
ATOM     25  C   UNL d   1      53.800  34.362  54.747  0.00  0.00     0.002 C 
ATOM     26  C   UNL d   1      54.147  33.911  55.361  0.00  0.00     0.000 C 
ENDBRANCH  24  25
ENDBRANCH  23  24
ENDBRANCH   1  23
BRANCH   8  27
ATOM     27  N   UNL d   1      48.896  35.450  52.879  0.00  0.00    -0.300 N 
ATOM     28  C   UNL d   1      48.523  35.708  52.179  0.00  0.00     0.107 A 
ATOM     29  C   UNL d   1      47.945  36.294  52.211  0.00  0.00     0.142 A 
ATOM     30  O   UNL d   1      47.729  36.632  52.942  0.00  0.00    -0.300 OA
ATOM     31  C   UNL d   1      48.101  36.374  53.642  0.00  0.00     0.142 A 
ATOM     32  C   UNL d   1      48.684  35.783  53.605  0.00  0.00     0.107 A 
ENDBRANCH   8  27
TORSDOF 9
ENDMDL
MODEL 2
REMARK VINA RESULT:      -5.5      1.124      5.990
REMARK  9 active torsions:
REMARK  status: ('A' for Active; 'I' for Inactive)
REMARK    1  A    between atoms: C_22  and  N_1 
REMARK    2  A    between atoms: S_10  and  C_2 
REMARK    3  A    between atoms: N_8  and  C_9 
REMARK    4  A    between atoms: C_24  and  S_10 
REMARK    5  A    between atoms: C_11  and  C_24 
REMARK       I    between atoms: N_15  and  C_11 
REMARK    6  A    between atoms: C_13  and  C_25 
REMARK    7  A    between atoms: C_25  and  N_15 
REMARK    8  A    between atoms: C_30  and  C_22 
REMARK    9  A    between atoms: C_31  and  C_30 
ROOT
ATOM      1  N   UNL d   1      52.345  33.693  53.235  0.00  0.00    -0.253 N 
ATOM      2  C   UNL d   1      51.563  33.556  53.013  0.00  0.00     0.182 A 
ATOM      3  C   UNL d   1      52.839  33.053  53.421  0.00  0.00     0.268 A 
ATOM      4  C   UNL d   1      52.551  32.282  53.385  0.00  0.00     0.076 A 
ATOM      5  N   UNL d   1      51.274  32.777  52.977  0.00  0.00    -0.222 NA
ATOM      6  C   UNL d   1      51.768  32.144  53.163  0.00  0.00     0.088 A 
ATOM      7  C   UNL d   1      53.044  31.650  53.570  0.00  0.00     0.024 A 
ATOM      8  C   UNL d   1      52.755  30.880  53.534  0.00  0.00     0.065 A 
ATOM      9  O   UNL d   1      53.622  33.190  53.643  0.00  0.00    -0.267 OA
ATOM     10  C   UNL d   1      51.479  31.375  53.127  0.00  0.00     0.021 A 
ATOM     11  C   UNL d   1      51.973  30.742  53.313  0.00  0.00     0.019 A 
ENDROOT
BRANCH   2  12
ATOM     12  S   UNL d   1      51.064  34.191  52.826  0.00  0.00    -0.044 SA
BRANCH  12  13
ATOM     13  C   UNL d   1      50.236  34.098  52.863  0.00  0.00     0.101 C 
BRANCH  13  14
ATOM     14  C   UNL d   1      49.743  34.670  52.523  0.00  0.00     0.286 C 
ATOM     15  N   UNL d   1      49.180  35.057  52.993  0.00  0.00    -0.204 NA
ATOM     16  O   UNL d   1      49.816  34.848  51.721  0.00  0.00    -0.265 OA
BRANCH  15  17
ATOM     17  C   UNL d   1      48.684  35.633  52.649  0.00  0.00     0.127 C 
BRANCH  17  18
ATOM     18  C   UNL d   1      48.087  35.986  53.108  0.00  0.00     0.119 A 
ATOM     19  O   UNL d   1      47.947  35.994  53.915  0.00  0.00    -0.304 OA
ATOM     20  C   UNL d   1      47.265  36.439  54.053  0.00  0.00     0.123 A 
ATOM     21  C   UNL d   1      46.980  36.709  53.331  0.00  0.00     0.029 A 
ATOM     22  C   UNL d   1      47.492  36.426  52.744  0.00  0.00     0.028 A 
ENDBRANCH  17  18
ENDBRANCH  15  17
ENDBRANCH  13  14
ENDBRANCH  12  13
ENDBRANCH   2  12
BRANCH   1  23
ATOM     23  C   UNL d   1      52.633  34.467  53.270  0.00  0.00     0.085 C 
BRANCH  23  24
ATOM     24  C   UNL d   1      52.888  34.778  53.991  0.00  0.00     0.019 C 
BRANCH  24  25
ATOM     25  C   UNL d   1      53.139  35.569  54.033  0.00  0.00     0.002 C 
ATOM     26  C   UNL d   1      53.144  35.965  54.771  0.00  0.00     0.000 C 
ENDBRANCH  24  25
ENDBRANCH  23  24
ENDBRANCH   1  23
BRANCH   8  27
ATOM     27  N   UNL d   1      53.248  30.248  53.720  0.00  0.00    -0.300 N 
ATOM     28  C   UNL d   1      53.030  29.710  54.318  0.00  0.00     0.107 A 
ATOM     29  C   UNL d   1      53.524  29.077  54.503  0.00  0.00     0.142 A 
ATOM     30  O   UNL d   1      54.243  28.970  54.096  0.00  0.00    -0.300 OA
ATOM     31  C   UNL d   1      54.461  29.509  53.497  0.00  0.00     0.142 A 
ATOM     32  C   UNL d   1      53.961  30.145  53.313  0.00  0.00     0.107 A 
ENDBRANCH   8  27
TORSDOF 9
ENDMDL
MODEL 3
REMARK VINA RESULT:      -4.9     10.089     11.965
REMARK  9 active torsions:
REMARK  status: ('A' for Active; 'I' for Inactive)
REMARK    1  A    between atoms: C_22  and  N_1 
REMARK    2  A    between atoms: S_10  and  C_2 
REMARK    3  A    between atoms: N_8  and  C_9 
REMARK    4  A    between atoms: C_24  and  S_10 
REMARK    5  A    between atoms: C_11  and  C_24 
REMARK       I    between atoms: N_15  and  C_11 
REMARK    6  A    between atoms: C_13  and  C_25 
REMARK    7  A    between atoms: C_25  and  N_15 
REMARK    8  A    between atoms: C_30  and  C_22 
REMARK    9  A    between atoms: C_31  and  C_30 
ROOT
ATOM      1  N   UNL d   1      44.924  27.311  57.609  0.00  0.00    -0.253 N 
ATOM      2  C   UNL d   1      44.727  27.223  58.405  0.00  0.00     0.182 A 
ATOM      3  C   UNL d   1      44.935  26.647  57.111  0.00  0.00     0.268 A 
ATOM      4  C   UNL d   1      44.751  25.902  57.409  0.00  0.00     0.076 A 
ATOM      5  N   UNL d   1      44.541  26.470  58.703  0.00  0.00    -0.222 NA
ATOM      6  C   UNL d   1      44.554  25.813  58.205  0.00  0.00     0.088 A 
ATOM      7  C   UNL d   1      44.763  25.246  56.912  0.00  0.00     0.024 A 
ATOM      8  C   UNL d   1      44.578  24.501  57.211  0.00  0.00     0.065 A 
ATOM      9  O   UNL d   1      45.132  26.736  56.314  0.00  0.00    -0.267 OA
ATOM     10  C   UNL d   1      44.369  25.069  58.505  0.00  0.00     0.021 A 
ATOM     11  C   UNL d   1      44.381  24.413  58.007  0.00  0.00     0.019 A 
ENDROOT
BRANCH   2  12
ATOM     12  S   UNL d   1      44.714  27.882  58.907  0.00  0.00    -0.044 SA
BRANCH  12  13
ATOM     13  C   UNL d   1      44.329  27.837  59.646  0.00  0.00     0.101 C 
BRANCH  13  14
ATOM     14  C   UNL d   1      44.488  28.406  60.227  0.00  0.00     0.286 C 
ATOM     15  N   UNL d   1      44.381  28.216  61.027  0.00  0.00    -0.204 NA
ATOM     16  O   UNL d   1      44.750  29.156  60.003  0.00  0.00    -0.265 OA
BRANCH  15  17
ATOM     17  C   UNL d   1      44.541  28.790  61.611  0.00  0.00     0.127 C 
BRANCH  17  18
ATOM     18  C   UNL d   1      44.486  28.583  62.414  0.00  0.00     0.119 A 
ATOM     19  O   UNL d   1      44.551  27.865  62.802  0.00  0.00    -0.304 OA
ATOM     20  C   UNL d   1      44.445  27.998  63.610  0.00  0.00     0.123 A 
ATOM     21  C   UNL d   1      44.314  28.801  63.726  0.00  0.00     0.029 A 
ATOM     22  C   UNL d   1      44.340  29.164  62.981  0.00  0.00     0.028 A 
ENDBRANCH  17  18
ENDBRANCH  15  17
ENDBRANCH  13  14
ENDBRANCH  12  13
ENDBRANCH   2  12
BRANCH   1  23
ATOM     23  C   UNL d   1      45.109  28.059  57.311  0.00  0.00     0.085 C 
BRANCH  23  24
ATOM     24  C   UNL d   1      44.629  28.403  56.734  0.00  0.00     0.019 C 
BRANCH  24  25
ATOM     25  C   UNL d   1      44.917  29.038  56.282  0.00  0.00     0.002 C 
ATOM     26  C   UNL d   1      44.693  29.821  56.474  0.00  0.00     0.000 C 
ENDBRANCH  24  25
ENDBRANCH  23  24
ENDBRANCH   1  23
BRANCH   8  27
ATOM     27  N   UNL d   1      44.591  23.846  56.714  0.00  0.00    -0.300 N 
ATOM     28  C   UNL d   1      44.365  23.923  55.915  0.00  0.00     0.107 A 
ATOM     29  C   UNL d   1      44.378  23.267  55.418  0.00  0.00     0.142 A 
ATOM     30  O   UNL d   1      44.615  22.522  55.709  0.00  0.00    -0.300 OA
ATOM     31  C   UNL d   1      44.840  22.445  56.508  0.00  0.00     0.142 A 
ATOM     32  C   UNL d   1      44.826  23.109  57.006  0.00  0.00     0.107 A 
ENDBRANCH   8  27
TORSDOF 9
ENDMDL
MODEL 4
REMARK VINA RESULT:      -4.1     10.501     11.913
REMARK  9 active torsions:
REMARK  status: ('A' for Active; 'I' for Inactive)
REMARK    1  A    between atoms: C_22  and  N_1 
REMARK    2  A    between atoms: S_10  and  C_2 
REMARK    3  A    between atoms: N_8  and  C_9 
REMARK    4  A    between atoms: C_24  and  S_10 
REMARK    5  A    between atoms: C_11  and  C_24 
REMARK       I    between atoms: N_15  and  C_11 
REMARK    6  A    between atoms: C_13  and  C_25 
REMARK    7  A    between atoms: C_25  and  N_15 
REMARK    8  A    between atoms: C_30  and  C_22 
REMARK    9  A    between atoms: C_31  and  C_30 
ROOT
ATOM      1  N   UNL d   1      44.568  28.625  59.419  0.00  0.00    -0.253 N 
ATOM      2  C   UNL d   1      44.495  28.155  60.093  0.00  0.00     0.182 A 
ATOM      3  C   UNL d   1      44.593  28.268  58.669  0.00  0.00     0.268 A 
ATOM      4  C   UNL d   1      44.546  27.449  58.598  0.00  0.00     0.076 A 
ATOM      5  N   UNL d   1      44.448  27.329  60.018  0.00  0.00    -0.222 NA
ATOM      6  C   UNL d   1      44.473  26.980  59.273  0.00  0.00     0.088 A 
ATOM      7  C   UNL d   1      44.571  27.100  57.854  0.00  0.00     0.024 A 
ATOM      8  C   UNL d   1      44.524  26.281  57.782  0.00  0.00     0.065 A 
ATOM      9  O   UNL d   1      44.666  28.738  57.995  0.00  0.00    -0.267 OA
ATOM     10  C   UNL d   1      44.426  26.161  59.203  0.00  0.00     0.021 A 
ATOM     11  C   UNL d   1      44.452  25.811  58.457  0.00  0.00     0.019 A 
ENDROOT
BRANCH   2  12
ATOM     12  S   UNL d   1      44.470  28.505  60.844  0.00  0.00    -0.044 SA
BRANCH  12  13
ATOM     13  C   UNL d   1      44.645  28.052  61.523  0.00  0.00     0.101 C 
BRANCH  13  14
ATOM     14  C   UNL d   1      44.677  28.419  62.264  0.00  0.00     0.286 C 
ATOM     15  N   UNL d   1      44.352  28.038  62.926  0.00  0.00    -0.204 NA
ATOM     16  O   UNL d   1      45.033  29.160  62.338  0.00  0.00    -0.265 OA
BRANCH  15  17
ATOM     17  C   UNL d   1      44.386  28.409  63.672  0.00  0.00     0.127 C 
BRANCH  17  18
ATOM     18  C   UNL d   1      44.406  27.943  64.360  0.00  0.00     0.119 A 
ATOM     19  O   UNL d   1      44.314  27.138  64.482  0.00  0.00    -0.304 OA
ATOM     20  C   UNL d   1      44.391  26.990  65.290  0.00  0.00     0.123 A 
ATOM     21  C   UNL d   1      44.530  27.704  65.674  0.00  0.00     0.029 A 
ATOM     22  C   UNL d   1      44.539  28.296  65.094  0.00  0.00     0.028 A 
ENDBRANCH  17  18
ENDBRANCH  15  17
ENDBRANCH  13  14
ENDBRANCH  12  13
ENDBRANCH   2  12
BRANCH   1  23
ATOM     23  C   UNL d   1      44.615  29.446  59.492  0.00  0.00     0.085 C 
BRANCH  23  24
ATOM     24  C   UNL d   1      44.895  29.900  58.862  0.00  0.00     0.019 C 
BRANCH  24  25
ATOM     25  C   UNL d   1      44.945  30.726  58.938  0.00  0.00     0.002 C 
ATOM     26  C   UNL d   1      45.095  31.197  58.263  0.00  0.00     0.000 C 
ENDBRANCH  24  25
ENDBRANCH  23  24
ENDBRANCH   1  23
BRANCH   8  27
ATOM     27  N   UNL d   1      44.550  25.931  57.038  0.00  0.00    -0.300 N 
ATOM     28  C   UNL d   1      44.341  26.373  56.362  0.00  0.00     0.107 A 
ATOM     29  C   UNL d   1      44.366  26.023  55.617  0.00  0.00     0.142 A 
ATOM     30  O   UNL d   1      44.600  25.227  55.533  0.00  0.00    -0.300 OA
ATOM     31  C   UNL d   1      44.809  24.785  56.209  0.00  0.00     0.142 A 
ATOM     32  C   UNL d   1      44.782  25.142  56.959  0.00  0.00     0.107 A 
ENDBRANCH   8  27
TORSDOF 9
ENDMDL
MODEL 5
REMARK VINA RESULT:      -3.7      2.008      6.362
REMARK  9 active torsions:
REMARK  status: ('A' for Active; 'I' for Inactive)
REMARK    1  A    between atoms: C_22  and  N_1 
REMARK    2  A    between atoms: S_10  and  C_2 
REMARK    3  A    between atoms: N_8  and  C_9 
REMARK    4  A    between atoms: C_24  and  S_10 
REMARK    5  A    between atoms: C_11  and  C_24 
REMARK       I    between atoms: N_15  and  C_11 
REMARK    6  A    between atoms: C_13  and  C_25 
REMARK    7  A    between atoms: C_25  and  N_15 
REMARK    8  A    between atoms: C_30  and  C_22 
REMARK    9  A    between atoms: C_31  and  C_30 
ROOT
ATOM      1  N   UNL d   1      50.099  34.239  52.553  0.00  0.00    -0.253 N 
ATOM      2  C   UNL d   1      49.995  34.855  53.092  0.00  0.00     0.182 A 
ATOM      3  C   UNL d   1      50.800  33.794  52.566  0.00  0.00     0.268 A 
ATOM      4  C   UNL d   1      51.390  33.967  53.114  0.00  0.00     0.076 A 
ATOM      5  N   UNL d   1      50.592  35.026  53.644  0.00  0.00    -0.222 NA
ATOM      6  C   UNL d   1      51.286  34.583  53.653  0.00  0.00     0.088 A 
ATOM      7  C   UNL d   1      52.084  33.524  53.123  0.00  0.00     0.024 A 
ATOM      8  C   UNL d   1      52.674  33.696  53.671  0.00  0.00     0.065 A 
ATOM      9  O   UNL d   1      50.904  33.178  52.027  0.00  0.00    -0.267 OA
ATOM     10  C   UNL d   1      51.875  34.756  54.201  0.00  0.00     0.021 A 
ATOM     11  C   UNL d   1      52.570  34.312  54.210  0.00  0.00     0.019 A 
ENDROOT
BRANCH   2  12
ATOM     12  S   UNL d   1      49.297  35.302  53.085  0.00  0.00    -0.044 SA
BRANCH  12  13
ATOM     13  C   UNL d   1      48.943  35.537  53.802  0.00  0.00     0.101 C 
BRANCH  13  14
ATOM     14  C   UNL d   1      48.262  36.009  53.790  0.00  0.00     0.286 C 
ATOM     15  N   UNL d   1      47.593  35.775  54.220  0.00  0.00    -0.204 NA
ATOM     16  O   UNL d   1      48.258  36.707  53.350  0.00  0.00    -0.265 OA
BRANCH  15  17
ATOM     17  C   UNL d   1      46.908  36.251  54.207  0.00  0.00     0.127 C 
BRANCH  17  18
ATOM     18  C   UNL d   1      46.173  35.916  54.401  0.00  0.00     0.119 A 
ATOM     19  O   UNL d   1      45.924  35.470  55.042  0.00  0.00    -0.304 OA
ATOM     20  C   UNL d   1      45.125  35.291  54.936  0.00  0.00     0.123 A 
ATOM     21  C   UNL d   1      44.875  35.626  54.229  0.00  0.00     0.029 A 
ATOM     22  C   UNL d   1      45.528  36.015  53.897  0.00  0.00     0.028 A 
ENDBRANCH  17  18
ENDBRANCH  15  17
ENDBRANCH  13  14
ENDBRANCH  12  13
ENDBRANCH   2  12
BRANCH   1  23
ATOM     23  C   UNL d   1      49.506  34.067  52.004  0.00  0.00     0.085 C 
BRANCH  23  24
ATOM     24  C   UNL d   1      49.514  34.430  51.263  0.00  0.00     0.019 C 
BRANCH  24  25
ATOM     25  C   UNL d   1      48.942  34.224  50.697  0.00  0.00     0.002 C 
ATOM     26  C   UNL d   1      48.214  34.636  50.672  0.00  0.00     0.000 C 
ENDBRANCH  24  25
ENDBRANCH  23  24
ENDBRANCH   1  23
BRANCH   8  27
ATOM     27  N   UNL d   1      53.367  33.254  53.680  0.00  0.00    -0.300 N 
ATOM     28  C   UNL d   1      53.394  32.529  54.092  0.00  0.00     0.107 A 
ATOM     29  C   UNL d   1      54.088  32.086  54.101  0.00  0.00     0.142 A 
ATOM     30  O   UNL d   1      54.767  32.358  53.700  0.00  0.00    -0.300 OA
ATOM     31  C   UNL d   1      54.740  33.083  53.288  0.00  0.00     0.142 A 
ATOM     32  C   UNL d   1      54.038  33.526  53.282  0.00  0.00     0.107 A 
ENDBRANCH   8  27
TORSDOF 9
ENDMDL
MODEL 6
REMARK VINA RESULT:      -3.5      9.757     11.241
REMARK  9 active torsions:
REMARK  status: ('A' for Active; 'I' for Inactive)
REMARK    1  A    between atoms: C_22  and  N_1 
REMARK    2  A    between atoms: S_10  and  C_2 
REMARK    3  A    between atoms: N_8  and  C_9 
REMARK    4  A    between atoms: C_24  and  S_10 
REMARK    5  A    between atoms: C_11  and  C_24 
REMARK       I    between atoms: N_15  and  C_11 
REMARK    6  A    between atoms: C_13  and  C_25 
REMARK    7  A    between atoms: C_25  and  N_15 
REMARK    8  A    between atoms: C_30  and  C_22 
REMARK    9  A    between atoms: C_31  and  C_30 
ROOT
ATOM      1  N   UNL d   1      44.938  30.102  58.902  0.00  0.00    -0.253 N 
ATOM      2  C   UNL d   1      44.570  29.931  59.620  0.00  0.00     0.182 A 
ATOM      3  C   UNL d   1      45.111  29.488  58.371  0.00  0.00     0.268 A 
ATOM      4  C   UNL d   1      44.916  28.710  58.559  0.00  0.00     0.076 A 
ATOM      5  N   UNL d   1      44.375  29.145  59.807  0.00  0.00    -0.222 NA
ATOM      6  C   UNL d   1      44.548  28.539  59.277  0.00  0.00     0.088 A 
ATOM      7  C   UNL d   1      45.089  28.105  58.029  0.00  0.00     0.024 A 
ATOM      8  C   UNL d   1      44.895  27.327  58.217  0.00  0.00     0.065 A 
ATOM      9  O   UNL d   1      45.479  29.659  57.653  0.00  0.00    -0.267 OA
ATOM     10  C   UNL d   1      44.353  27.762  59.466  0.00  0.00     0.021 A 
ATOM     11  C   UNL d   1      44.527  27.155  58.935  0.00  0.00     0.019 A 
ENDROOT
BRANCH   2  12
ATOM     12  S   UNL d   1      44.394  30.539  60.155  0.00  0.00    -0.044 SA
BRANCH  12  13
ATOM     13  C   UNL d   1      44.346  30.377  60.972  0.00  0.00     0.101 C 
BRANCH  13  14
ATOM     14  C   UNL d   1      44.573  30.955  61.520  0.00  0.00     0.286 C 
ATOM     15  N   UNL d   1      44.385  30.857  62.322  0.00  0.00    -0.204 NA
ATOM     16  O   UNL d   1      44.983  31.623  61.262  0.00  0.00    -0.265 OA
BRANCH  15  17
ATOM     17  C   UNL d   1      44.614  31.440  62.872  0.00  0.00     0.127 C 
BRANCH  17  18
ATOM     18  C   UNL d   1      44.535  31.289  63.685  0.00  0.00     0.119 A 
ATOM     19  O   UNL d   1      44.379  30.602  64.104  0.00  0.00    -0.304 OA
ATOM     20  C   UNL d   1      44.364  30.789  64.908  0.00  0.00     0.123 A 
ATOM     21  C   UNL d   1      44.512  31.593  64.992  0.00  0.00     0.029 A 
ATOM     22  C   UNL d   1      44.618  31.903  64.230  0.00  0.00     0.028 A 
ENDBRANCH  17  18
ENDBRANCH  15  17
ENDBRANCH  13  14
ENDBRANCH  12  13
ENDBRANCH   2  12
BRANCH   1  23
ATOM     23  C   UNL d   1      45.132  30.883  58.715  0.00  0.00     0.085 C 
BRANCH  23  24
ATOM     24  C   UNL d   1      44.883  31.209  57.999  0.00  0.00     0.019 C 
BRANCH  24  25
ATOM     25  C   UNL d   1      44.835  32.034  57.916  0.00  0.00     0.002 C 
ATOM     26  C   UNL d   1      44.315  32.365  57.349  0.00  0.00     0.000 C 
ENDBRANCH  24  25
ENDBRANCH  23  24
ENDBRANCH   1  23
BRANCH   8  27
ATOM     27  N   UNL d   1      45.068  26.721  57.688  0.00  0.00    -0.300 N 
ATOM     28  C   UNL d   1      45.091  26.876  56.869  0.00  0.00     0.107 A 
ATOM     29  C   UNL d   1      45.265  26.270  56.340  0.00  0.00     0.142 A 
ATOM     30  O   UNL d   1      45.418  25.499  56.617  0.00  0.00    -0.300 OA
ATOM     31  C   UNL d   1      45.394  25.344  57.437  0.00  0.00     0.142 A 
ATOM     32  C   UNL d   1      45.219  25.958  57.967  0.00  0.00     0.107 A 
ENDBRANCH   8  27
TORSDOF 9
ENDMDL
MODEL 7
REMARK VINA RESULT:      -3.3     11.213     12.283
REMARK  9 active torsions:
REMARK  status: ('A' for Active; 'I' for Inactive)
REMARK    1  A    between atoms: C_22  and  N_1 
REMARK    2  A    between atoms: S_10  and  C_2 
REMARK    3  A    between atoms: N_8  and  C_9 
REMARK    4  A    between atoms: C_24  and  S_10 
REMARK    5  A    between atoms: C_11  and  C_24 
REMARK       I    between atoms: N_15  and  C_11 
REMARK    6  A    between atoms: C_13  and  C_25 
REMARK    7  A    between atoms: C_25  and  N_15 
REMARK    8  A    between atoms: C_30  and  C_22 
REMARK    9  A    between atoms: C_31  and  C_30 
ROOT
ATOM      1  N   UNL d   1      44.422  29.366  61.508  0.00  0.00    -0.253 N 
ATOM      2  C   UNL d   1      44.431  28.609  61.836  0.00  0.00     0.182 A 
ATOM      3  C   UNL d   1      44.519  29.461  60.689  0.00  0.00     0.268 A 
ATOM      4  C   UNL d   1      44.625  28.803  60.205  0.00  0.00     0.076 A 
ATOM      5  N   UNL d   1      44.538  27.947  61.345  0.00  0.00    -0.222 NA
ATOM      6  C   UNL d   1      44.634  28.046  60.533  0.00  0.00     0.088 A 
ATOM      7  C   UNL d   1      44.721  28.902  59.394  0.00  0.00     0.024 A 
ATOM      8  C   UNL d   1      44.826  28.244  58.910  0.00  0.00     0.065 A 
ATOM      9  O   UNL d   1      44.510  30.218  60.361  0.00  0.00    -0.267 OA
ATOM     10  C   UNL d   1      44.739  27.388  60.050  0.00  0.00     0.021 A 
ATOM     11  C   UNL d   1      44.835  27.487  59.238  0.00  0.00     0.019 A 
ENDROOT
BRANCH   2  12
ATOM     12  S   UNL d   1      44.335  28.507  62.653  0.00  0.00    -0.044 SA
BRANCH  12  13
ATOM     13  C   UNL d   1      44.834  27.987  63.072  0.00  0.00     0.101 C 
BRANCH  13  14
ATOM     14  C   UNL d   1      44.614  27.721  63.825  0.00  0.00     0.286 C 
ATOM     15  N   UNL d   1      44.695  28.226  64.478  0.00  0.00    -0.204 NA
ATOM     16  O   UNL d   1      44.315  26.958  63.917  0.00  0.00    -0.265 OA
BRANCH  15  17
ATOM     17  C   UNL d   1      44.472  27.958  65.235  0.00  0.00     0.127 C 
BRANCH  17  18
ATOM     18  C   UNL d   1      44.458  28.493  65.871  0.00  0.00     0.119 A 
ATOM     19  O   UNL d   1      44.560  29.305  65.909  0.00  0.00    -0.304 OA
ATOM     20  C   UNL d   1      44.485  29.537  66.698  0.00  0.00     0.123 A 
ATOM     21  C   UNL d   1      44.336  28.869  67.153  0.00  0.00     0.029 A 
ATOM     22  C   UNL d   1      44.319  28.220  66.637  0.00  0.00     0.028 A 
ENDBRANCH  17  18
ENDBRANCH  15  17
ENDBRANCH  13  14
ENDBRANCH  12  13
ENDBRANCH   2  12
BRANCH   1  23
ATOM     23  C   UNL d   1      44.317  30.025  61.995  0.00  0.00     0.085 C 
BRANCH  23  24
ATOM     24  C   UNL d   1      44.824  30.672  61.928  0.00  0.00     0.019 C 
BRANCH  24  25
ATOM     25  C   UNL d   1      44.891  31.211  62.556  0.00  0.00     0.002 C 
ATOM     26  C   UNL d   1      44.397  31.887  62.579  0.00  0.00     0.000 C 
ENDBRANCH  24  25
ENDBRANCH  23  24
ENDBRANCH   1  23
BRANCH   8  27
ATOM     27  N   UNL d   1      44.922  28.343  58.099  0.00  0.00    -0.300 N 
ATOM     28  C   UNL d   1      44.635  29.031  57.725  0.00  0.00     0.107 A 
ATOM     29  C   UNL d   1      44.731  29.129  56.913  0.00  0.00     0.142 A 
ATOM     30  O   UNL d   1      45.115  28.543  56.460  0.00  0.00    -0.300 OA
ATOM     31  C   UNL d   1      45.402  27.856  56.834  0.00  0.00     0.142 A 
ATOM     32  C   UNL d   1      45.303  27.760  57.653  0.00  0.00     0.107 A 
ENDBRANCH   8  27
TORSDOF 9
ENDMDL
MODEL 8
REMARK VINA RESULT:      -3.2      1.852      2.312
REMARK  9 active torsions:
REMARK  status: ('A' for Active; 'I' for Inactive)
REMARK    1  A    between atoms: C_22  and  N_1 
REMARK    2  A    between atoms: S_10  and  C_2 
REMARK    3  A    between atoms: N_8  and  C_9 
REMARK    4  A    between atoms: C_24  and  S_10 
REMARK    5  A    between atoms: C_11  and  C_24 
REMARK       I    between atoms: N_15  and  C_11 
REMARK    6  A    between atoms: C_13  and  C_25 
REMARK    7  A    between atoms: C_25  and  N_15 
REMARK    8  A    between atoms: C_30  and  C_22 
REMARK    9  A    between atoms: C_31  and  C_30 
ROOT
ATOM      1  N   UNL d   1      50.778  34.596  53.214  0.00  0.00    -0.253 N 
ATOM      2  C   UNL d   1      51.008  34.074  52.617  0.00  0.00     0.182 A 
ATOM      3  C   UNL d   1      50.049  34.990  53.157  0.00  0.00     0.268 A 
ATOM      4  C   UNL d   1      49.557  34.861  52.510  0.00  0.00     0.076 A 
ATOM      5  N   UNL d   1      50.510  33.946  51.965  0.00  0.00    -0.222 NA
ATOM      6  C   UNL d   1      49.787  34.339  51.914  0.00  0.00     0.088 A 
ATOM      7  C   UNL d   1      48.836  35.253  52.458  0.00  0.00     0.024 A 
ATOM      8  C   UNL d   1      48.344  35.125  51.810  0.00  0.00     0.065 A 
ATOM      9  O   UNL d   1      49.818  35.511  53.754  0.00  0.00    -0.267 OA
ATOM     10  C   UNL d   1      49.296  34.210  51.266  0.00  0.00     0.021 A 
ATOM     11  C   UNL d   1      48.574  34.603  51.214  0.00  0.00     0.019 A 
ENDROOT
BRANCH   2  12
ATOM     12  S   UNL d   1      51.734  33.678  52.667  0.00  0.00    -0.044 SA
BRANCH  12  13
ATOM     13  C   UNL d   1      51.767  32.850  52.569  0.00  0.00     0.101 C 
BRANCH  13  14
ATOM     14  C   UNL d   1      52.456  32.439  52.773  0.00  0.00     0.286 C 
ATOM     15  N   UNL d   1      52.920  32.704  53.407  0.00  0.00    -0.204 NA
ATOM     16  O   UNL d   1      52.675  31.770  52.341  0.00  0.00    -0.265 OA
BRANCH  15  17
ATOM     17  C   UNL d   1      53.614  32.289  53.611  0.00  0.00     0.127 C 
BRANCH  17  18
ATOM     18  C   UNL d   1      54.097  32.575  54.223  0.00  0.00     0.119 A 
ATOM     19  O   UNL d   1      54.030  32.538  55.039  0.00  0.00    -0.304 OA
ATOM     20  C   UNL d   1      54.683  32.922  55.369  0.00  0.00     0.123 A 
ATOM     21  C   UNL d   1      55.158  33.199  54.758  0.00  0.00     0.029 A 
ATOM     22  C   UNL d   1      54.792  32.982  54.046  0.00  0.00     0.028 A 
ENDBRANCH  17  18
ENDBRANCH  15  17
ENDBRANCH  13  14
ENDBRANCH  12  13
ENDBRANCH   2  12
BRANCH   1  23
ATOM     23  C   UNL d   1      51.272  34.724  53.863  0.00  0.00     0.085 C 
BRANCH  23  24
ATOM     24  C   UNL d   1      51.741  35.402  53.896  0.00  0.00     0.019 C 
BRANCH  24  25
ATOM     25  C   UNL d   1      52.166  35.577  54.588  0.00  0.00     0.002 C 
ATOM     26  C   UNL d   1      52.854  36.051  54.545  0.00  0.00     0.000 C 
ENDBRANCH  24  25
ENDBRANCH  23  24
ENDBRANCH   1  23
BRANCH   8  27
ATOM     27  N   UNL d   1      47.622  35.517  51.759  0.00  0.00    -0.300 N 
ATOM     28  C   UNL d   1      47.451  36.147  52.278  0.00  0.00     0.107 A 
ATOM     29  C   UNL d   1      46.729  36.539  52.226  0.00  0.00     0.142 A 
ATOM     30  O   UNL d   1      46.165  36.310  51.655  0.00  0.00    -0.300 OA
ATOM     31  C   UNL d   1      46.336  35.680  51.136  0.00  0.00     0.142 A 
ATOM     32  C   UNL d   1      47.066  35.287  51.192  0.00  0.00     0.107 A 
ENDBRANCH   8  27
TORSDOF 9
ENDMDL
