MODEL 1
REMARK VINA RESULT:      -7.0      0.000      0.000
REMARK  5 active torsions:
REMARK  status: ('A' for Active; 'I' for Inactive)
REMARK    1  A    between atoms: C_6  and  C_1 
REMARK    2  A    between atoms: C_8  and  N_3 
REMARK    3  A    between atoms: C_7  and  C_6 
REMARK    4  A    between atoms: C_9  and  C_7 
REMARK    5  A    between atoms: C_14  and  C_8 
ROOT
ATOM      1  C   UNL d   1     -47.820  13.757  22.787  0.00  0.00     0.148 A 
ATOM      2  N   UNL d   1     -46.934  13.843  22.576  0.00  0.00    -0.227 NA
ATOM      3  N   UNL d   1     -47.923  12.915  23.124  0.00  0.00    -0.289 N 
ATOM      4  C   UNL d   1     -47.112  12.480  23.124  0.00  0.00     0.083 A 
ATOM      5  C   UNL d   1     -46.489  13.064  22.779  0.00  0.00     0.099 A 
ATOM      6  C   UNL d   1     -46.858  11.638  23.388  0.00  0.00     0.019 A 
ATOM      7  C   UNL d   1     -45.626  12.794  22.706  0.00  0.00     0.021 A 
ATOM      8  C   UNL d   1     -45.989  11.391  23.305  0.00  0.00     0.002 A 
ATOM      9  C   UNL d   1     -45.366  11.975  22.960  0.00  0.00     0.002 A 
ENDROOT
BRANCH   1  10
ATOM     10  C   UNL d   1     -48.561  13.995  22.848  0.00  0.00     0.037 C 
BRANCH  10  11
ATOM     11  C   UNL d   1     -48.819  14.739  22.647  0.00  0.00     0.003 C 
BRANCH  11  12
ATOM     12  C   UNL d   1     -49.561  15.020  22.831  0.00  0.00     0.000 A 
ATOM     13  C   UNL d   1     -49.691  15.468  23.497  0.00  0.00     0.000 A 
ATOM     14  C   UNL d   1     -50.432  15.749  23.680  0.00  0.00     0.000 A 
ATOM     15  C   UNL d   1     -51.064  15.577  23.179  0.00  0.00     0.000 A 
ATOM     16  C   UNL d   1     -50.942  15.127  22.506  0.00  0.00     0.000 A 
ATOM     17  C   UNL d   1     -50.193  14.848  22.330  0.00  0.00     0.000 A 
ENDBRANCH  11  12
ENDBRANCH  10  11
ENDBRANCH   1  10
BRANCH   3  18
ATOM     18  C   UNL d   1     -48.088  12.193  23.428  0.00  0.00     0.082 C 
BRANCH  18  19
ATOM     19  C   UNL d   1     -48.858  12.044  23.698  0.00  0.00     0.019 C 
ATOM     20  C   UNL d   1     -49.156  11.278  23.667  0.00  0.00     0.002 C 
ENDBRANCH  18  19
ENDBRANCH   3  18
TORSDOF 5
ENDMDL
MODEL 2
REMARK VINA RESULT:      -6.8      1.152      4.279
REMARK  5 active torsions:
REMARK  status: ('A' for Active; 'I' for Inactive)
REMARK    1  A    between atoms: C_6  and  C_1 
REMARK    2  A    between atoms: C_8  and  N_3 
REMARK    3  A    between atoms: C_7  and  C_6 
REMARK    4  A    between atoms: C_9  and  C_7 
REMARK    5  A    between atoms: C_14  and  C_8 
ROOT
ATOM      1  C   UNL d   1     -48.099  14.268  22.877  0.00  0.00     0.148 A 
ATOM      2  N   UNL d   1     -48.481  14.990  23.287  0.00  0.00    -0.227 NA
ATOM      3  N   UNL d   1     -48.767  13.857  22.410  0.00  0.00    -0.289 N 
ATOM      4  C   UNL d   1     -49.556  14.316  22.526  0.00  0.00     0.083 A 
ATOM      5  C   UNL d   1     -49.376  15.030  23.079  0.00  0.00     0.099 A 
ATOM      6  C   UNL d   1     -50.406  14.182  22.207  0.00  0.00     0.019 A 
ATOM      7  C   UNL d   1     -50.051  15.595  23.301  0.00  0.00     0.021 A 
ATOM      8  C   UNL d   1     -51.064  14.760  22.443  0.00  0.00     0.002 A 
ATOM      9  C   UNL d   1     -50.884  15.475  22.996  0.00  0.00     0.002 A 
ENDROOT
BRANCH   1  10
ATOM     10  C   UNL d   1     -47.515  13.785  22.689  0.00  0.00     0.037 C 
BRANCH  10  11
ATOM     11  C   UNL d   1     -46.755  13.859  22.967  0.00  0.00     0.003 C 
BRANCH  11  12
ATOM     12  C   UNL d   1     -46.162  13.329  22.796  0.00  0.00     0.000 A 
ATOM     13  C   UNL d   1     -46.114  12.610  23.173  0.00  0.00     0.000 A 
ATOM     14  C   UNL d   1     -45.521  12.081  23.002  0.00  0.00     0.000 A 
ATOM     15  C   UNL d   1     -44.956  12.277  22.434  0.00  0.00     0.000 A 
ATOM     16  C   UNL d   1     -44.997  12.998  22.049  0.00  0.00     0.000 A 
ATOM     17  C   UNL d   1     -45.597  13.525  22.227  0.00  0.00     0.000 A 
ENDBRANCH  11  12
ENDBRANCH  10  11
ENDBRANCH   1  10
BRANCH   3  18
ATOM     18  C   UNL d   1     -49.299  13.444  21.977  0.00  0.00     0.082 C 
BRANCH  18  19
ATOM     19  C   UNL d   1     -49.019  12.878  21.439  0.00  0.00     0.019 C 
ATOM     20  C   UNL d   1     -49.418  12.163  21.360  0.00  0.00     0.002 C 
ENDBRANCH  18  19
ENDBRANCH   3  18
TORSDOF 5
ENDMDL
MODEL 3
REMARK VINA RESULT:      -6.0      1.129      4.219
REMARK  5 active torsions:
REMARK  status: ('A' for Active; 'I' for Inactive)
REMARK    1  A    between atoms: C_6  and  C_1 
REMARK    2  A    between atoms: C_8  and  N_3 
REMARK    3  A    between atoms: C_7  and  C_6 
REMARK    4  A    between atoms: C_9  and  C_7 
REMARK    5  A    between atoms: C_14  and  C_8 
ROOT
ATOM      1  C   UNL d   1     -48.056  12.645  23.160  0.00  0.00     0.148 A 
ATOM      2  N   UNL d   1     -48.546  11.923  23.435  0.00  0.00    -0.227 NA
ATOM      3  N   UNL d   1     -48.653  13.323  23.027  0.00  0.00    -0.289 N 
ATOM      4  C   UNL d   1     -49.504  13.030  23.216  0.00  0.00     0.083 A 
ATOM      5  C   UNL d   1     -49.437  12.148  23.473  0.00  0.00     0.099 A 
ATOM      6  C   UNL d   1     -50.324  13.442  23.189  0.00  0.00     0.019 A 
ATOM      7  C   UNL d   1     -50.192  11.698  23.698  0.00  0.00     0.021 A 
ATOM      8  C   UNL d   1     -51.064  12.970  23.419  0.00  0.00     0.002 A 
ATOM      9  C   UNL d   1     -50.998  12.088  23.676  0.00  0.00     0.002 A 
ENDROOT
BRANCH   1  10
ATOM     10  C   UNL d   1     -47.404  13.028  22.967  0.00  0.00     0.037 C 
BRANCH  10  11
ATOM     11  C   UNL d   1     -46.657  12.800  23.193  0.00  0.00     0.003 C 
BRANCH  11  12
ATOM     12  C   UNL d   1     -45.986  12.976  22.768  0.00  0.00     0.000 A 
ATOM     13  C   UNL d   1     -45.780  13.745  22.602  0.00  0.00     0.000 A 
ATOM     14  C   UNL d   1     -45.109  13.920  22.176  0.00  0.00     0.000 A 
ATOM     15  C   UNL d   1     -44.629  13.306  21.908  0.00  0.00     0.000 A 
ATOM     16  C   UNL d   1     -44.829  12.529  22.070  0.00  0.00     0.000 A 
ATOM     17  C   UNL d   1     -45.506  12.361  22.499  0.00  0.00     0.000 A 
ENDBRANCH  11  12
ENDBRANCH  10  11
ENDBRANCH   1  10
BRANCH   3  18
ATOM     18  C   UNL d   1     -49.115  13.962  22.889  0.00  0.00     0.082 C 
BRANCH  18  19
ATOM     19  C   UNL d   1     -48.769  14.636  22.551  0.00  0.00     0.019 C 
ATOM     20  C   UNL d   1     -49.166  15.355  22.587  0.00  0.00     0.002 C 
ENDBRANCH  18  19
ENDBRANCH   3  18
TORSDOF 5
ENDMDL
MODEL 4
REMARK VINA RESULT:      -5.5      8.207      9.742
REMARK  5 active torsions:
REMARK  status: ('A' for Active; 'I' for Inactive)
REMARK    1  A    between atoms: C_6  and  C_1 
REMARK    2  A    between atoms: C_8  and  N_3 
REMARK    3  A    between atoms: C_7  and  C_6 
REMARK    4  A    between atoms: C_9  and  C_7 
REMARK    5  A    between atoms: C_14  and  C_8 
ROOT
ATOM      1  C   UNL d   1     -39.150  14.241  19.677  0.00  0.00     0.148 A 
ATOM      2  N   UNL d   1     -38.512  13.668  19.995  0.00  0.00    -0.227 NA
ATOM      3  N   UNL d   1     -39.563  14.597  20.410  0.00  0.00    -0.289 N 
ATOM      4  C   UNL d   1     -39.188  14.250  21.176  0.00  0.00     0.083 A 
ATOM      5  C   UNL d   1     -38.527  13.665  20.914  0.00  0.00     0.099 A 
ATOM      6  C   UNL d   1     -39.358  14.387  22.068  0.00  0.00     0.019 A 
ATOM      7  C   UNL d   1     -38.050  13.229  21.551  0.00  0.00     0.021 A 
ATOM      8  C   UNL d   1     -38.868  13.938  22.686  0.00  0.00     0.002 A 
ATOM      9  C   UNL d   1     -38.206  13.353  22.425  0.00  0.00     0.002 A 
ENDROOT
BRANCH   1  10
ATOM     10  C   UNL d   1     -39.557  14.614  19.125  0.00  0.00     0.037 C 
BRANCH  10  11
ATOM     11  C   UNL d   1     -39.473  14.481  18.328  0.00  0.00     0.003 C 
BRANCH  11  12
ATOM     12  C   UNL d   1     -39.871  14.905  17.759  0.00  0.00     0.000 A 
ATOM     13  C   UNL d   1     -40.655  14.766  17.597  0.00  0.00     0.000 A 
ATOM     14  C   UNL d   1     -41.052  15.190  17.028  0.00  0.00     0.000 A 
ATOM     15  C   UNL d   1     -40.650  15.774  16.606  0.00  0.00     0.000 A 
ATOM     16  C   UNL d   1     -39.860  15.921  16.762  0.00  0.00     0.000 A 
ATOM     17  C   UNL d   1     -39.469  15.490  17.337  0.00  0.00     0.000 A 
ENDBRANCH  11  12
ENDBRANCH  10  11
ENDBRANCH   1  10
BRANCH   3  18
ATOM     18  C   UNL d   1     -39.969  14.949  21.003  0.00  0.00     0.082 C 
BRANCH  18  19
ATOM     19  C   UNL d   1     -40.370  15.657  20.843  0.00  0.00     0.019 C 
ATOM     20  C   UNL d   1     -41.113  15.783  21.170  0.00  0.00     0.002 C 
ENDBRANCH  18  19
ENDBRANCH   3  18
TORSDOF 5
ENDMDL
MODEL 5
REMARK VINA RESULT:      -5.5      1.437      4.948
REMARK  5 active torsions:
REMARK  status: ('A' for Active; 'I' for Inactive)
REMARK    1  A    between atoms: C_6  and  C_1 
REMARK    2  A    between atoms: C_8  and  N_3 
REMARK    3  A    between atoms: C_7  and  C_6 
REMARK    4  A    between atoms: C_9  and  C_7 
REMARK    5  A    between atoms: C_14  and  C_8 
ROOT
ATOM      1  C   UNL d   1     -47.255  11.636  23.157  0.00  0.00     0.148 A 
ATOM      2  N   UNL d   1     -48.089  11.263  23.114  0.00  0.00    -0.227 NA
ATOM      3  N   UNL d   1     -47.361  12.522  22.964  0.00  0.00    -0.289 N 
ATOM      4  C   UNL d   1     -48.249  12.700  22.803  0.00  0.00     0.083 A 
ATOM      5  C   UNL d   1     -48.707  11.907  22.898  0.00  0.00     0.099 A 
ATOM      6  C   UNL d   1     -48.698  13.471  22.585  0.00  0.00     0.019 A 
ATOM      7  C   UNL d   1     -49.606  11.902  22.773  0.00  0.00     0.021 A 
ATOM      8  C   UNL d   1     -49.597  13.440  22.465  0.00  0.00     0.002 A 
ATOM      9  C   UNL d   1     -50.056  12.647  22.560  0.00  0.00     0.002 A 
ENDROOT
BRANCH   1  10
ATOM     10  C   UNL d   1     -46.482  11.634  23.265  0.00  0.00     0.037 C 
BRANCH  10  11
ATOM     11  C   UNL d   1     -46.082  11.073  23.696  0.00  0.00     0.003 C 
BRANCH  11  12
ATOM     12  C   UNL d   1     -45.311  10.860  23.548  0.00  0.00     0.000 A 
ATOM     13  C   UNL d   1     -44.772  11.394  23.257  0.00  0.00     0.000 A 
ATOM     14  C   UNL d   1     -44.001  11.181  23.109  0.00  0.00     0.000 A 
ATOM     15  C   UNL d   1     -43.761  10.406  23.259  0.00  0.00     0.000 A 
ATOM     16  C   UNL d   1     -44.296   9.861  23.553  0.00  0.00     0.000 A 
ATOM     17  C   UNL d   1     -45.070  10.085  23.698  0.00  0.00     0.000 A 
ENDBRANCH  11  12
ENDBRANCH  10  11
ENDBRANCH   1  10
BRANCH   3  18
ATOM     18  C   UNL d   1     -47.376  13.306  22.804  0.00  0.00     0.082 C 
BRANCH  18  19
ATOM     19  C   UNL d   1     -46.664  13.686  22.616  0.00  0.00     0.019 C 
ATOM     20  C   UNL d   1     -46.552  14.469  22.842  0.00  0.00     0.002 C 
ENDBRANCH  18  19
ENDBRANCH   3  18
TORSDOF 5
ENDMDL
MODEL 6
REMARK VINA RESULT:      -5.4      8.814      9.933
REMARK  5 active torsions:
REMARK  status: ('A' for Active; 'I' for Inactive)
REMARK    1  A    between atoms: C_6  and  C_1 
REMARK    2  A    between atoms: C_8  and  N_3 
REMARK    3  A    between atoms: C_7  and  C_6 
REMARK    4  A    between atoms: C_9  and  C_7 
REMARK    5  A    between atoms: C_14  and  C_8 
ROOT
ATOM      1  C   UNL d   1     -40.256  14.976  19.607  0.00  0.00     0.148 A 
ATOM      2  N   UNL d   1     -40.862  15.554  19.239  0.00  0.00    -0.227 NA
ATOM      3  N   UNL d   1     -39.836  14.566  18.908  0.00  0.00    -0.289 N 
ATOM      4  C   UNL d   1     -40.175  14.883  18.114  0.00  0.00     0.083 A 
ATOM      5  C   UNL d   1     -40.822  15.505  18.322  0.00  0.00     0.099 A 
ATOM      6  C   UNL d   1     -39.985  14.691  17.236  0.00  0.00     0.019 A 
ATOM      7  C   UNL d   1     -41.264  15.921  17.648  0.00  0.00     0.021 A 
ATOM      8  C   UNL d   1     -40.441  15.121  16.580  0.00  0.00     0.002 A 
ATOM      9  C   UNL d   1     -41.087  15.743  16.788  0.00  0.00     0.002 A 
ENDROOT
BRANCH   1  10
ATOM     10  C   UNL d   1     -39.879  14.621  20.191  0.00  0.00     0.037 C 
BRANCH  10  11
ATOM     11  C   UNL d   1     -40.087  14.684  20.974  0.00  0.00     0.003 C 
BRANCH  11  12
ATOM     12  C   UNL d   1     -39.599  14.462  21.587  0.00  0.00     0.000 A 
ATOM     13  C   UNL d   1     -39.578  13.695  21.856  0.00  0.00     0.000 A 
ATOM     14  C   UNL d   1     -39.090  13.474  22.468  0.00  0.00     0.000 A 
ATOM     15  C   UNL d   1     -38.607  14.040  22.823  0.00  0.00     0.000 A 
ATOM     16  C   UNL d   1     -38.621  14.814  22.559  0.00  0.00     0.000 A 
ATOM     17  C   UNL d   1     -39.115  15.028  21.942  0.00  0.00     0.000 A 
ENDBRANCH  11  12
ENDBRANCH  10  11
ENDBRANCH   1  10
BRANCH   3  18
ATOM     18  C   UNL d   1     -39.426  14.167  18.348  0.00  0.00     0.082 C 
BRANCH  18  19
ATOM     19  C   UNL d   1     -38.742  13.757  18.574  0.00  0.00     0.019 C 
ATOM     20  C   UNL d   1     -38.528  13.074  18.170  0.00  0.00     0.002 C 
ENDBRANCH  18  19
ENDBRANCH   3  18
TORSDOF 5
ENDMDL
MODEL 7
REMARK VINA RESULT:      -5.3      8.210      9.980
REMARK  5 active torsions:
REMARK  status: ('A' for Active; 'I' for Inactive)
REMARK    1  A    between atoms: C_6  and  C_1 
REMARK    2  A    between atoms: C_8  and  N_3 
REMARK    3  A    between atoms: C_7  and  C_6 
REMARK    4  A    between atoms: C_9  and  C_7 
REMARK    5  A    between atoms: C_14  and  C_8 
ROOT
ATOM      1  C   UNL d   1     -39.084  14.103  20.032  0.00  0.00     0.148 A 
ATOM      2  N   UNL d   1     -38.828  13.830  19.197  0.00  0.00    -0.227 NA
ATOM      3  N   UNL d   1     -39.830  14.617  19.915  0.00  0.00    -0.289 N 
ATOM      4  C   UNL d   1     -40.036  14.665  19.020  0.00  0.00     0.083 A 
ATOM      5  C   UNL d   1     -39.405  14.170  18.568  0.00  0.00     0.099 A 
ATOM      6  C   UNL d   1     -40.708  15.090  18.559  0.00  0.00     0.019 A 
ATOM      7  C   UNL d   1     -39.460  14.110  17.664  0.00  0.00     0.021 A 
ATOM      8  C   UNL d   1     -40.741  15.014  17.655  0.00  0.00     0.002 A 
ATOM      9  C   UNL d   1     -40.110  14.519  17.203  0.00  0.00     0.002 A 
ENDROOT
BRANCH   1  10
ATOM     10  C   UNL d   1     -39.033  14.151  20.809  0.00  0.00     0.037 C 
BRANCH  10  11
ATOM     11  C   UNL d   1     -38.437  13.816  21.249  0.00  0.00     0.003 C 
BRANCH  11  12
ATOM     12  C   UNL d   1     -38.397  13.866  22.060  0.00  0.00     0.000 A 
ATOM     13  C   UNL d   1     -38.032  14.492  22.429  0.00  0.00     0.000 A 
ATOM     14  C   UNL d   1     -37.992  14.541  23.240  0.00  0.00     0.000 A 
ATOM     15  C   UNL d   1     -38.329  13.943  23.698  0.00  0.00     0.000 A 
ATOM     16  C   UNL d   1     -38.699  13.309  23.335  0.00  0.00     0.000 A 
ATOM     17  C   UNL d   1     -38.734  13.268  22.518  0.00  0.00     0.000 A 
ENDBRANCH  11  12
ENDBRANCH  10  11
ENDBRANCH   1  10
BRANCH   3  18
ATOM     18  C   UNL d   1     -40.484  15.077  19.891  0.00  0.00     0.082 C 
BRANCH  18  19
ATOM     19  C   UNL d   1     -40.920  15.185  20.588  0.00  0.00     0.019 C 
ATOM     20  C   UNL d   1     -41.245  15.921  20.752  0.00  0.00     0.002 C 
ENDBRANCH  18  19
ENDBRANCH   3  18
TORSDOF 5
ENDMDL
MODEL 8
REMARK VINA RESULT:      -5.2      8.494     10.751
REMARK  5 active torsions:
REMARK  status: ('A' for Active; 'I' for Inactive)
REMARK    1  A    between atoms: C_6  and  C_1 
REMARK    2  A    between atoms: C_8  and  N_3 
REMARK    3  A    between atoms: C_7  and  C_6 
REMARK    4  A    between atoms: C_9  and  C_7 
REMARK    5  A    between atoms: C_14  and  C_8 
ROOT
ATOM      1  C   UNL d   1     -39.188  15.146  17.994  0.00  0.00     0.148 A 
ATOM      2  N   UNL d   1     -39.049  15.840  17.416  0.00  0.00    -0.227 NA
ATOM      3  N   UNL d   1     -38.890  14.395  17.570  0.00  0.00    -0.289 N 
ATOM      4  C   UNL d   1     -38.568  14.616  16.737  0.00  0.00     0.083 A 
ATOM      5  C   UNL d   1     -38.669  15.526  16.639  0.00  0.00     0.099 A 
ATOM      6  C   UNL d   1     -38.201  14.117  16.059  0.00  0.00     0.019 A 
ATOM      7  C   UNL d   1     -38.400  15.918  15.866  0.00  0.00     0.021 A 
ATOM      8  C   UNL d   1     -37.940  14.532  15.295  0.00  0.00     0.002 A 
ATOM      9  C   UNL d   1     -38.040  15.442  15.198  0.00  0.00     0.002 A 
ENDROOT
BRANCH   1  10
ATOM     10  C   UNL d   1     -39.421  14.814  18.662  0.00  0.00     0.037 C 
BRANCH  10  11
ATOM     11  C   UNL d   1     -39.644  15.229  19.324  0.00  0.00     0.003 C 
BRANCH  11  12
ATOM     12  C   UNL d   1     -39.951  14.877  19.991  0.00  0.00     0.000 A 
ATOM     13  C   UNL d   1     -40.747  14.726  20.062  0.00  0.00     0.000 A 
ATOM     14  C   UNL d   1     -41.054  14.375  20.728  0.00  0.00     0.000 A 
ATOM     15  C   UNL d   1     -40.547  14.168  21.345  0.00  0.00     0.000 A 
ATOM     16  C   UNL d   1     -39.744  14.316  21.282  0.00  0.00     0.000 A 
ATOM     17  C   UNL d   1     -39.444  14.670  20.607  0.00  0.00     0.000 A 
ENDBRANCH  11  12
ENDBRANCH  10  11
ENDBRANCH   1  10
BRANCH   3  18
ATOM     18  C   UNL d   1     -38.649  13.696  17.261  0.00  0.00     0.082 C 
BRANCH  18  19
ATOM     19  C   UNL d   1     -38.819  12.999  17.677  0.00  0.00     0.019 C 
ATOM     20  C   UNL d   1     -38.318  12.352  17.603  0.00  0.00     0.002 C 
ENDBRANCH  18  19
ENDBRANCH   3  18
TORSDOF 5
ENDMDL
MODEL 9
REMARK VINA RESULT:      -4.5      8.319     10.801
REMARK  5 active torsions:
REMARK  status: ('A' for Active; 'I' for Inactive)
REMARK    1  A    between atoms: C_6  and  C_1 
REMARK    2  A    between atoms: C_8  and  N_3 
REMARK    3  A    between atoms: C_7  and  C_6 
REMARK    4  A    between atoms: C_9  and  C_7 
REMARK    5  A    between atoms: C_14  and  C_8 
ROOT
ATOM      1  C   UNL d   1     -39.047  14.954  18.850  0.00  0.00     0.148 A 
ATOM      2  N   UNL d   1     -38.818  15.056  19.729  0.00  0.00    -0.227 NA
ATOM      3  N   UNL d   1     -39.926  15.189  18.785  0.00  0.00    -0.289 N 
ATOM      4  C   UNL d   1     -40.243  15.436  19.613  0.00  0.00     0.083 A 
ATOM      5  C   UNL d   1     -39.545  15.352  20.208  0.00  0.00     0.099 A 
ATOM      6  C   UNL d   1     -41.066  15.723  19.904  0.00  0.00     0.019 A 
ATOM      7  C   UNL d   1     -39.684  15.557  21.081  0.00  0.00     0.021 A 
ATOM      8  C   UNL d   1     -41.180  15.922  20.782  0.00  0.00     0.002 A 
ATOM      9  C   UNL d   1     -40.482  15.838  21.377  0.00  0.00     0.002 A 
ENDROOT
BRANCH   1  10
ATOM     10  C   UNL d   1     -38.922  14.776  18.100  0.00  0.00     0.037 C 
BRANCH  10  11
ATOM     11  C   UNL d   1     -38.200  14.555  17.798  0.00  0.00     0.003 C 
BRANCH  11  12
ATOM     12  C   UNL d   1     -38.114  14.030  17.182  0.00  0.00     0.000 A 
ATOM     13  C   UNL d   1     -38.075  14.285  16.411  0.00  0.00     0.000 A 
ATOM     14  C   UNL d   1     -37.989  13.760  15.796  0.00  0.00     0.000 A 
ATOM     15  C   UNL d   1     -37.940  12.952  15.958  0.00  0.00     0.000 A 
ATOM     16  C   UNL d   1     -37.978  12.687  16.731  0.00  0.00     0.000 A 
ATOM     17  C   UNL d   1     -38.065  13.223  17.344  0.00  0.00     0.000 A 
ENDBRANCH  11  12
ENDBRANCH  10  11
ENDBRANCH   1  10
BRANCH   3  18
ATOM     18  C   UNL d   1     -40.693  15.380  18.653  0.00  0.00     0.082 C 
BRANCH  18  19
ATOM     19  C   UNL d   1     -41.044  15.139  17.941  0.00  0.00     0.019 C 
ATOM     20  C   UNL d   1     -41.340  15.705  17.424  0.00  0.00     0.002 C 
ENDBRANCH  18  19
ENDBRANCH   3  18
TORSDOF 5
ENDMDL
