MODEL 1
REMARK VINA RESULT:      -8.5      0.000      0.000
REMARK  4 active torsions:
REMARK  status: ('A' for Active; 'I' for Inactive)
REMARK       I    between atoms: C_3  and  N_7 
REMARK    1  A    between atoms: C_6  and  C_3 
REMARK    2  A    between atoms: C_8  and  C_6 
REMARK    3  A    between atoms: N_7  and  C_9 
REMARK    4  A    between atoms: C_13  and  C_8 
ROOT
ATOM      1  C   UNL d   1      53.113  32.824  53.371  0.00  0.00     0.279 C 
ATOM      2  N   UNL d   1      53.195  33.407  53.953  0.00  0.00    -0.207 NA
ATOM      3  O   UNL d   1      52.829  33.027  52.631  0.00  0.00    -0.265 OA
ENDROOT
BRANCH   1   4
ATOM      4  C   UNL d   1      53.319  32.044  53.542  0.00  0.00     0.062 C 
BRANCH   4   5
ATOM      5  C   UNL d   1      53.074  31.435  53.048  0.00  0.00     0.005 C 
BRANCH   5   6
ATOM      6  C   UNL d   1      53.084  30.659  53.307  0.00  0.00     0.000 A 
ATOM      7  C   UNL d   1      53.690  30.393  53.804  0.00  0.00     0.000 A 
ATOM      8  C   UNL d   1      53.693  29.616  54.057  0.00  0.00     0.000 A 
ATOM      9  C   UNL d   1      53.102  29.099  53.824  0.00  0.00     0.000 A 
ATOM     10  C   UNL d   1      52.498  29.358  53.332  0.00  0.00     0.000 A 
ATOM     11  C   UNL d   1      52.486  30.142  53.069  0.00  0.00     0.000 A 
ENDBRANCH   5   6
ENDBRANCH   4   5
ENDBRANCH   1   4
BRANCH   2  12
ATOM     12  C   UNL d   1      52.990  34.182  53.782  0.00  0.00     0.097 A 
ATOM     13  C   UNL d   1      53.227  34.392  54.546  0.00  0.00     0.118 A 
ATOM     14  S   UNL d   1      53.109  35.207  54.637  0.00  0.00     0.213 S 
ATOM     15  O   UNL d   1      53.418  34.825  55.297  0.00  0.00    -0.217 OA
ATOM     16  O   UNL d   1      52.964  36.022  54.653  0.00  0.00    -0.217 OA
ATOM     17  C   UNL d   1      52.799  35.500  53.926  0.00  0.00     0.100 A 
ATOM     18  C   UNL d   1      52.725  34.873  53.400  0.00  0.00     0.032 A 
ENDBRANCH   2  12
TORSDOF 4
ENDMDL
MODEL 2
REMARK VINA RESULT:      -7.6      2.094      4.557
REMARK  4 active torsions:
REMARK  status: ('A' for Active; 'I' for Inactive)
REMARK       I    between atoms: C_3  and  N_7 
REMARK    1  A    between atoms: C_6  and  C_3 
REMARK    2  A    between atoms: C_8  and  C_6 
REMARK    3  A    between atoms: N_7  and  C_9 
REMARK    4  A    between atoms: C_13  and  C_8 
ROOT
ATOM      1  C   UNL d   1      53.079  32.062  53.152  0.00  0.00     0.279 C 
ATOM      2  N   UNL d   1      53.251  31.390  53.603  0.00  0.00    -0.207 NA
ATOM      3  O   UNL d   1      52.720  31.981  52.422  0.00  0.00    -0.265 OA
ENDROOT
BRANCH   1   4
ATOM      4  C   UNL d   1      53.272  32.809  53.444  0.00  0.00     0.062 C 
BRANCH   4   5
ATOM      5  C   UNL d   1      52.698  33.394  53.492  0.00  0.00     0.005 C 
BRANCH   5   6
ATOM      6  C   UNL d   1      52.859  34.109  53.858  0.00  0.00     0.000 A 
ATOM      7  C   UNL d   1      53.158  34.123  54.629  0.00  0.00     0.000 A 
ATOM      8  C   UNL d   1      53.316  34.841  54.986  0.00  0.00     0.000 A 
ATOM      9  C   UNL d   1      53.182  35.544  54.589  0.00  0.00     0.000 A 
ATOM     10  C   UNL d   1      52.886  35.535  53.823  0.00  0.00     0.000 A 
ATOM     11  C   UNL d   1      52.722  34.814  53.452  0.00  0.00     0.000 A 
ENDBRANCH   5   6
ENDBRANCH   4   5
ENDBRANCH   1   4
BRANCH   2  12
ATOM     12  C   UNL d   1      53.059  30.647  53.312  0.00  0.00     0.097 A 
ATOM     13  C   UNL d   1      53.279  30.327  54.042  0.00  0.00     0.118 A 
ATOM     14  S   UNL d   1      53.168  29.506  54.006  0.00  0.00     0.213 S 
ATOM     15  O   UNL d   1      53.456  29.786  54.724  0.00  0.00    -0.217 OA
ATOM     16  O   UNL d   1      53.032  28.697  53.896  0.00  0.00    -0.217 OA
ATOM     17  C   UNL d   1      52.878  29.321  53.251  0.00  0.00     0.100 A 
ATOM     18  C   UNL d   1      52.810  30.020  52.823  0.00  0.00     0.032 A 
ENDBRANCH   2  12
TORSDOF 4
ENDMDL
MODEL 3
REMARK VINA RESULT:      -7.6      2.263      3.737
REMARK  4 active torsions:
REMARK  status: ('A' for Active; 'I' for Inactive)
REMARK       I    between atoms: C_3  and  N_7 
REMARK    1  A    between atoms: C_6  and  C_3 
REMARK    2  A    between atoms: C_8  and  C_6 
REMARK    3  A    between atoms: N_7  and  C_9 
REMARK    4  A    between atoms: C_13  and  C_8 
ROOT
ATOM      1  C   UNL d   1      52.454  33.322  53.407  0.00  0.00     0.279 C 
ATOM      2  N   UNL d   1      52.890  33.638  54.035  0.00  0.00    -0.207 NA
ATOM      3  O   UNL d   1      52.783  32.740  52.936  0.00  0.00    -0.265 OA
ENDROOT
BRANCH   1   4
ATOM      4  C   UNL d   1      51.689  33.597  53.262  0.00  0.00     0.062 C 
BRANCH   4   5
ATOM      5  C   UNL d   1      51.490  33.888  52.520  0.00  0.00     0.005 C 
BRANCH   5   6
ATOM      6  C   UNL d   1      50.736  34.170  52.372  0.00  0.00     0.000 A 
ATOM      7  C   UNL d   1      50.285  34.494  52.984  0.00  0.00     0.000 A 
ATOM      8  C   UNL d   1      49.533  34.774  52.827  0.00  0.00     0.000 A 
ATOM      9  C   UNL d   1      49.223  34.735  52.069  0.00  0.00     0.000 A 
ATOM     10  C   UNL d   1      49.668  34.415  51.458  0.00  0.00     0.000 A 
ATOM     11  C   UNL d   1      50.429  34.129  51.606  0.00  0.00     0.000 A 
ENDBRANCH   5   6
ENDBRANCH   4   5
ENDBRANCH   1   4
BRANCH   2  12
ATOM     12  C   UNL d   1      53.650  33.364  54.179  0.00  0.00     0.097 A 
ATOM     13  C   UNL d   1      53.729  33.950  54.758  0.00  0.00     0.118 A 
ATOM     14  S   UNL d   1      54.485  33.882  55.089  0.00  0.00     0.213 S 
ATOM     15  O   UNL d   1      54.022  34.485  55.402  0.00  0.00    -0.217 OA
ATOM     16  O   UNL d   1      55.253  33.754  55.371  0.00  0.00    -0.217 OA
ATOM     17  C   UNL d   1      54.873  33.253  54.713  0.00  0.00     0.100 A 
ATOM     18  C   UNL d   1      54.362  32.933  54.154  0.00  0.00     0.032 A 
ENDBRANCH   2  12
TORSDOF 4
ENDMDL
MODEL 4
REMARK VINA RESULT:      -7.6      2.476      4.585
REMARK  4 active torsions:
REMARK  status: ('A' for Active; 'I' for Inactive)
REMARK       I    between atoms: C_3  and  N_7 
REMARK    1  A    between atoms: C_6  and  C_3 
REMARK    2  A    between atoms: C_8  and  C_6 
REMARK    3  A    between atoms: N_7  and  C_9 
REMARK    4  A    between atoms: C_13  and  C_8 
ROOT
ATOM      1  C   UNL d   1      52.934  32.074  53.101  0.00  0.00     0.279 C 
ATOM      2  N   UNL d   1      52.734  31.271  53.094  0.00  0.00    -0.207 NA
ATOM      3  O   UNL d   1      53.604  32.322  53.499  0.00  0.00    -0.265 OA
ENDROOT
BRANCH   1   4
ATOM      4  C   UNL d   1      52.455  32.617  52.706  0.00  0.00     0.062 C 
BRANCH   4   5
ATOM      5  C   UNL d   1      52.196  33.294  53.092  0.00  0.00     0.005 C 
BRANCH   5   6
ATOM      6  C   UNL d   1      51.542  33.706  52.820  0.00  0.00     0.000 A 
ATOM      7  C   UNL d   1      51.534  34.011  52.051  0.00  0.00     0.000 A 
ATOM      8  C   UNL d   1      50.877  34.420  51.787  0.00  0.00     0.000 A 
ATOM      9  C   UNL d   1      50.229  34.531  52.276  0.00  0.00     0.000 A 
ATOM     10  C   UNL d   1      50.233  34.229  53.040  0.00  0.00     0.000 A 
ATOM     11  C   UNL d   1      50.892  33.814  53.317  0.00  0.00     0.000 A 
ENDBRANCH   5   6
ENDBRANCH   4   5
ENDBRANCH   1   4
BRANCH   2  12
ATOM     12  C   UNL d   1      53.210  30.731  53.486  0.00  0.00     0.097 A 
ATOM     13  C   UNL d   1      52.618  30.163  53.382  0.00  0.00     0.118 A 
ATOM     14  S   UNL d   1      52.879  29.455  53.724  0.00  0.00     0.213 S 
ATOM     15  O   UNL d   1      52.132  29.421  53.382  0.00  0.00    -0.217 OA
ATOM     16  O   UNL d   1      53.205  28.786  54.086  0.00  0.00    -0.217 OA
ATOM     17  C   UNL d   1      53.633  29.587  54.040  0.00  0.00     0.100 A 
ATOM     18  C   UNL d   1      53.840  30.369  53.895  0.00  0.00     0.032 A 
ENDBRANCH   2  12
TORSDOF 4
ENDMDL
MODEL 5
REMARK VINA RESULT:      -7.3      2.629      3.503
REMARK  4 active torsions:
REMARK  status: ('A' for Active; 'I' for Inactive)
REMARK       I    between atoms: C_3  and  N_7 
REMARK    1  A    between atoms: C_6  and  C_3 
REMARK    2  A    between atoms: C_8  and  C_6 
REMARK    3  A    between atoms: N_7  and  C_9 
REMARK    4  A    between atoms: C_13  and  C_8 
ROOT
ATOM      1  C   UNL d   1      51.825  33.640  52.974  0.00  0.00     0.279 C 
ATOM      2  N   UNL d   1      51.123  34.073  53.050  0.00  0.00    -0.207 NA
ATOM      3  O   UNL d   1      52.011  33.291  52.258  0.00  0.00    -0.265 OA
ENDROOT
BRANCH   1   4
ATOM      4  C   UNL d   1      52.331  33.565  53.621  0.00  0.00     0.062 C 
BRANCH   4   5
ATOM      5  C   UNL d   1      53.113  33.344  53.509  0.00  0.00     0.005 C 
BRANCH   5   6
ATOM      6  C   UNL d   1      53.634  33.316  54.141  0.00  0.00     0.000 A 
ATOM      7  C   UNL d   1      53.689  32.634  54.605  0.00  0.00     0.000 A 
ATOM      8  C   UNL d   1      54.212  32.616  55.233  0.00  0.00     0.000 A 
ATOM      9  C   UNL d   1      54.679  33.265  55.407  0.00  0.00     0.000 A 
ATOM     10  C   UNL d   1      54.627  33.945  54.950  0.00  0.00     0.000 A 
ATOM     11  C   UNL d   1      54.102  33.974  54.312  0.00  0.00     0.000 A 
ENDBRANCH   5   6
ENDBRANCH   4   5
ENDBRANCH   1   4
BRANCH   2  12
ATOM     12  C   UNL d   1      50.621  34.147  52.406  0.00  0.00     0.097 A 
ATOM     13  C   UNL d   1      50.099  34.570  52.888  0.00  0.00     0.118 A 
ATOM     14  S   UNL d   1      49.442  34.782  52.430  0.00  0.00     0.213 S 
ATOM     15  O   UNL d   1      49.414  35.031  53.213  0.00  0.00    -0.217 OA
ATOM     16  O   UNL d   1      48.820  34.957  51.912  0.00  0.00    -0.217 OA
ATOM     17  C   UNL d   1      49.560  34.489  51.663  0.00  0.00     0.100 A 
ATOM     18  C   UNL d   1      50.283  34.099  51.646  0.00  0.00     0.032 A 
ENDBRANCH   2  12
TORSDOF 4
ENDMDL
MODEL 6
REMARK VINA RESULT:      -7.2      2.537      4.588
REMARK  4 active torsions:
REMARK  status: ('A' for Active; 'I' for Inactive)
REMARK       I    between atoms: C_3  and  N_7 
REMARK    1  A    between atoms: C_6  and  C_3 
REMARK    2  A    between atoms: C_8  and  C_6 
REMARK    3  A    between atoms: N_7  and  C_9 
REMARK    4  A    between atoms: C_13  and  C_8 
ROOT
ATOM      1  C   UNL d   1      52.277  33.090  52.961  0.00  0.00     0.279 C 
ATOM      2  N   UNL d   1      52.391  32.277  52.860  0.00  0.00    -0.207 NA
ATOM      3  O   UNL d   1      52.769  33.511  53.461  0.00  0.00    -0.265 OA
ENDROOT
BRANCH   1   4
ATOM      4  C   UNL d   1      51.666  33.470  52.557  0.00  0.00     0.062 C 
BRANCH   4   5
ATOM      5  C   UNL d   1      51.263  34.092  52.910  0.00  0.00     0.005 C 
BRANCH   5   6
ATOM      6  C   UNL d   1      50.540  34.341  52.616  0.00  0.00     0.000 A 
ATOM      7  C   UNL d   1      50.344  34.206  51.824  0.00  0.00     0.000 A 
ATOM      8  C   UNL d   1      49.620  34.458  51.539  0.00  0.00     0.000 A 
ATOM      9  C   UNL d   1      49.089  34.842  52.031  0.00  0.00     0.000 A 
ATOM     10  C   UNL d   1      49.278  34.977  52.818  0.00  0.00     0.000 A 
ATOM     11  C   UNL d   1      50.008  34.726  53.116  0.00  0.00     0.000 A 
ENDBRANCH   5   6
ENDBRANCH   4   5
ENDBRANCH   1   4
BRANCH   2  12
ATOM     12  C   UNL d   1      52.999  31.900  53.262  0.00  0.00     0.097 A 
ATOM     13  C   UNL d   1      52.723  31.180  52.962  0.00  0.00     0.118 A 
ATOM     14  S   UNL d   1      53.215  30.578  53.248  0.00  0.00     0.213 S 
ATOM     15  O   UNL d   1      52.604  30.324  52.760  0.00  0.00    -0.217 OA
ATOM     16  O   UNL d   1      53.747  30.033  53.572  0.00  0.00    -0.217 OA
ATOM     17  C   UNL d   1      53.795  30.928  53.726  0.00  0.00     0.100 A 
ATOM     18  C   UNL d   1      53.665  31.740  53.736  0.00  0.00     0.032 A 
ENDBRANCH   2  12
TORSDOF 4
ENDMDL
MODEL 7
REMARK VINA RESULT:      -7.2      3.875      4.796
REMARK  4 active torsions:
REMARK  status: ('A' for Active; 'I' for Inactive)
REMARK       I    between atoms: C_3  and  N_7 
REMARK    1  A    between atoms: C_6  and  C_3 
REMARK    2  A    between atoms: C_8  and  C_6 
REMARK    3  A    between atoms: N_7  and  C_9 
REMARK    4  A    between atoms: C_13  and  C_8 
ROOT
ATOM      1  C   UNL d   1      49.591  34.771  52.564  0.00  0.00     0.279 C 
ATOM      2  N   UNL d   1      49.062  35.275  52.952  0.00  0.00    -0.207 NA
ATOM      3  O   UNL d   1      49.435  34.528  51.799  0.00  0.00    -0.265 OA
ENDROOT
BRANCH   1   4
ATOM      4  C   UNL d   1      50.274  34.519  52.954  0.00  0.00     0.062 C 
BRANCH   4   5
ATOM      5  C   UNL d   1      50.901  34.207  52.525  0.00  0.00     0.005 C 
BRANCH   5   6
ATOM      6  C   UNL d   1      51.609  34.024  52.894  0.00  0.00     0.000 A 
ATOM      7  C   UNL d   1      52.164  34.618  53.048  0.00  0.00     0.000 A 
ATOM      8  C   UNL d   1      52.867  34.426  53.417  0.00  0.00     0.000 A 
ATOM      9  C   UNL d   1      53.027  33.653  53.635  0.00  0.00     0.000 A 
ATOM     10  C   UNL d   1      52.480  33.060  53.485  0.00  0.00     0.000 A 
ATOM     11  C   UNL d   1      51.765  33.243  53.113  0.00  0.00     0.000 A 
ENDBRANCH   5   6
ENDBRANCH   4   5
ENDBRANCH   1   4
BRANCH   2  12
ATOM     12  C   UNL d   1      48.384  35.526  52.564  0.00  0.00     0.097 A 
ATOM     13  C   UNL d   1      48.188  35.967  53.236  0.00  0.00     0.118 A 
ATOM     14  S   UNL d   1      47.471  36.355  53.087  0.00  0.00     0.213 S 
ATOM     15  O   UNL d   1      47.796  36.498  53.829  0.00  0.00    -0.217 OA
ATOM     16  O   UNL d   1      46.756  36.709  52.868  0.00  0.00    -0.217 OA
ATOM     17  C   UNL d   1      47.225  36.152  52.322  0.00  0.00     0.100 A 
ATOM     18  C   UNL d   1      47.783  35.643  51.999  0.00  0.00     0.032 A 
ENDBRANCH   2  12
TORSDOF 4
ENDMDL
