MODEL 1
REMARK VINA RESULT:       0.1      0.000      0.000
REMARK  4 active torsions:
REMARK  status: ('A' for Active; 'I' for Inactive)
REMARK    1  A    between atoms: S_5  and  C_3 
REMARK    2  A    between atoms: C_12  and  S_5 
REMARK    3  A    between atoms: C_23  and  N_6 
REMARK    4  A    between atoms: C_28  and  C_23 
ROOT
ATOM      1  C   UNL d   1     -41.568-121.803 -52.725  0.00  0.00     0.155 A 
ATOM      2  C   UNL d   1     -41.849-122.562 -52.617  0.00  0.00     0.092 A 
ATOM      3  C   UNL d   1     -41.815-122.378 -51.215  0.00  0.00     0.124 A 
ATOM      4  N   UNL d   1     -41.444-121.514 -53.487  0.00  0.00    -0.210 NA
ATOM      5  N   UNL d   1     -41.411-121.331 -52.085  0.00  0.00    -0.273 N 
ATOM      6  C   UNL d   1     -41.532-121.611 -51.324  0.00  0.00     0.181 A 
ATOM      7  C   UNL d   1     -42.008-123.039 -53.265  0.00  0.00     0.269 A 
ATOM      8  N   UNL d   1     -41.883-122.750 -54.023  0.00  0.00    -0.258 N 
ATOM      9  C   UNL d   1     -41.973-122.852 -51.864  0.00  0.00     0.022 A 
ATOM     10  C   UNL d   1     -41.600-121.982 -54.128  0.00  0.00     0.152 A 
ATOM     11  N   UNL d   1     -41.370-121.124 -50.673  0.00  0.00    -0.128 N 
ATOM     12  C   UNL d   1     -42.039-123.220 -54.681  0.00  0.00     0.084 A 
ATOM     13  O   UNL d   1     -42.294-123.815 -53.160  0.00  0.00    -0.266 OA
ATOM     14  C   UNL d   1     -41.475-121.693 -54.889  0.00  0.00     0.038 A 
ATOM     15  C   UNL d   1     -41.915-122.930 -55.435  0.00  0.00     0.019 A 
ATOM     16  C   UNL d   1     -41.631-122.163 -55.540  0.00  0.00     0.005 A 
ENDROOT
BRANCH   3  17
ATOM     17  S   UNL d   1     -41.940-122.666 -50.449  0.00  0.00     0.213 S 
ATOM     18  O   UNL d   1     -42.746-122.796 -50.616  0.00  0.00    -0.217 OA
ATOM     19  O   UNL d   1     -41.140-122.541 -50.272  0.00  0.00    -0.217 OA
BRANCH  17  20
ATOM     20  C   UNL d   1     -42.053-122.955 -49.673  0.00  0.00     0.088 A 
ATOM     21  C   UNL d   1     -41.401-123.156 -49.205  0.00  0.00     0.014 A 
ATOM     22  C   UNL d   1     -41.514-123.445 -48.430  0.00  0.00     0.030 A 
ATOM     23  C   UNL d   1     -42.282-123.530 -48.127  0.00  0.00     0.140 A 
ATOM     24  C   UNL d   1     -42.939-123.324 -48.607  0.00  0.00     0.030 A 
ATOM     25  F   UNL d   1     -42.402-123.816 -47.358  0.00  0.00    -0.204 F 
ATOM     26  C   UNL d   1     -42.825-123.037 -49.378  0.00  0.00     0.014 A 
ENDBRANCH  17  20
ENDBRANCH   3  17
BRANCH   5  27
ATOM     27  C   UNL d   1     -41.123-120.551 -52.195  0.00  0.00     0.083 C 
BRANCH  27  28
ATOM     28  C   UNL d   1     -41.231-119.983 -51.591  0.00  0.00     0.019 C 
ATOM     29  C   UNL d   1     -41.159-119.168 -51.757  0.00  0.00     0.002 C 
ENDBRANCH  27  28
ENDBRANCH   5  27
TORSDOF 4
ENDMDL
MODEL 2
REMARK VINA RESULT:       2.3      2.025      4.555
REMARK  4 active torsions:
REMARK  status: ('A' for Active; 'I' for Inactive)
REMARK    1  A    between atoms: S_5  and  C_3 
REMARK    2  A    between atoms: C_12  and  S_5 
REMARK    3  A    between atoms: C_23  and  N_6 
REMARK    4  A    between atoms: C_28  and  C_23 
ROOT
ATOM      1  C   UNL d   1     -41.869-121.954 -50.669  0.00  0.00     0.155 A 
ATOM      2  C   UNL d   1     -42.246-122.599 -50.996  0.00  0.00     0.092 A 
ATOM      3  C   UNL d   1     -41.904-122.146 -52.291  0.00  0.00     0.124 A 
ATOM      4  N   UNL d   1     -41.853-121.857 -49.850  0.00  0.00    -0.210 NA
ATOM      5  N   UNL d   1     -41.511-121.405 -51.146  0.00  0.00    -0.273 N 
ATOM      6  C   UNL d   1     -41.523-121.493 -51.961  0.00  0.00     0.181 A 
ATOM      7  C   UNL d   1     -42.609-123.155 -50.513  0.00  0.00     0.269 A 
ATOM      8  N   UNL d   1     -42.591-123.057 -49.698  0.00  0.00    -0.258 N 
ATOM      9  C   UNL d   1     -42.265-122.698 -51.806  0.00  0.00     0.022 A 
ATOM     10  C   UNL d   1     -42.209-122.403 -49.372  0.00  0.00     0.152 A 
ATOM     11  N   UNL d   1     -41.155-120.930 -52.445  0.00  0.00    -0.128 N 
ATOM     12  C   UNL d   1     -42.952-123.608 -49.203  0.00  0.00     0.084 A 
ATOM     13  O   UNL d   1     -42.995-123.816 -50.843  0.00  0.00    -0.266 OA
ATOM     14  C   UNL d   1     -42.192-122.306 -48.553  0.00  0.00     0.038 A 
ATOM     15  C   UNL d   1     -42.933-123.509 -48.392  0.00  0.00     0.019 A 
ATOM     16  C   UNL d   1     -42.551-122.855 -48.065  0.00  0.00     0.005 A 
ENDROOT
BRANCH   3  17
ATOM     17  S   UNL d   1     -41.919-122.241 -53.114  0.00  0.00     0.213 S 
ATOM     18  O   UNL d   1     -41.403-122.894 -53.061  0.00  0.00    -0.217 OA
ATOM     19  O   UNL d   1     -42.432-121.594 -53.179  0.00  0.00    -0.217 OA
BRANCH  17  20
ATOM     20  C   UNL d   1     -41.943-122.327 -53.945  0.00  0.00     0.088 A 
ATOM     21  C   UNL d   1     -42.390-121.804 -54.404  0.00  0.00     0.014 A 
ATOM     22  C   UNL d   1     -42.413-121.890 -55.235  0.00  0.00     0.030 A 
ATOM     23  C   UNL d   1     -41.988-122.500 -55.600  0.00  0.00     0.140 A 
ATOM     24  C   UNL d   1     -41.536-123.028 -55.129  0.00  0.00     0.030 A 
ATOM     25  F   UNL d   1     -42.006-122.592 -56.425  0.00  0.00    -0.204 F 
ATOM     26  C   UNL d   1     -41.514-122.941 -54.303  0.00  0.00     0.014 A 
ENDBRANCH  17  20
ENDBRANCH   3  17
BRANCH   5  27
ATOM     27  C   UNL d   1     -41.123-120.741 -50.810  0.00  0.00     0.083 C 
BRANCH  27  28
ATOM     28  C   UNL d   1     -41.124-120.013 -51.221  0.00  0.00     0.019 C 
ATOM     29  C   UNL d   1     -41.137-119.290 -50.804  0.00  0.00     0.002 C 
ENDBRANCH  27  28
ENDBRANCH   5  27
TORSDOF 4
ENDMDL
