MODEL 1
REMARK VINA RESULT:      -5.8      0.000      0.000
REMARK  5 active torsions:
REMARK  status: ('A' for Active; 'I' for Inactive)
REMARK    1  A    between atoms: S_3  and  C_1 
REMARK    2  A    between atoms: C_7  and  S_3 
REMARK    3  A    between atoms: N_11  and  C_4 
REMARK    4  A    between atoms: C_10  and  C_5 
REMARK    5  A    between atoms: C_24  and  N_11 
ROOT
ATOM      1  C   UNL d   1     -45.612  12.822  22.324  0.00  0.00     0.042 A 
ATOM      2  C   UNL d   1     -45.131  12.242  22.670  0.00  0.00     0.006 A 
ATOM      3  C   UNL d   1     -45.323  13.338  21.764  0.00  0.00     0.006 A 
ATOM      4  C   UNL d   1     -44.040  12.712  21.867  0.00  0.00     0.094 A 
ATOM      5  C   UNL d   1     -44.335  12.189  22.436  0.00  0.00     0.024 A 
ATOM      6  C   UNL d   1     -44.534  13.287  21.531  0.00  0.00     0.024 A 
ATOM      7  O   UNL d   1     -43.235  12.643  21.644  0.00  0.00    -0.328 OA
ATOM      8  C   UNL d   1     -42.439  12.590  21.411  0.00  0.00     0.181 C 
ENDROOT
BRANCH   1   9
ATOM      9  C   UNL d   1     -46.412  12.881  22.554  0.00  0.00     0.186 A 
ATOM     10  N   UNL d   1     -46.859  13.564  22.442  0.00  0.00    -0.206 NA
ATOM     11  C   UNL d   1     -47.625  13.422  22.735  0.00  0.00     0.224 A 
ATOM     12  C   UNL d   1     -47.636  12.654  23.023  0.00  0.00     0.265 A 
ATOM     13  O   UNL d   1     -46.900  12.309  22.919  0.00  0.00    -0.260 OA
BRANCH  11  14
ATOM     14  S   UNL d   1     -48.308  13.866  22.786  0.00  0.00     0.231 S 
ATOM     15  O   UNL d   1     -47.780  14.105  23.472  0.00  0.00    -0.215 OA
ATOM     16  O   UNL d   1     -48.839  13.660  22.139  0.00  0.00    -0.215 OA
BRANCH  14  17
ATOM     17  C   UNL d   1     -49.007  14.322  22.842  0.00  0.00     0.090 A 
ATOM     18  C   UNL d   1     -49.477  14.434  22.188  0.00  0.00     0.012 A 
ATOM     19  C   UNL d   1     -50.161  14.883  22.250  0.00  0.00     0.007 A 
ATOM     20  C   UNL d   1     -50.364  15.213  22.970  0.00  0.00     0.035 A 
ATOM     21  C   UNL d   1     -49.895  15.106  23.637  0.00  0.00     0.007 A 
ATOM     22 BR   UNL d   1     -51.064  15.674  23.038  0.00  0.00    -0.049 Br
ATOM     23  C   UNL d   1     -49.211  14.657  23.575  0.00  0.00     0.012 A 
ENDBRANCH  14  17
ENDBRANCH  11  14
BRANCH  12  24
ATOM     24  N   UNL d   1     -48.315  12.315  23.362  0.00  0.00    -0.373 NA
BRANCH  24  25
ATOM     25  C   UNL d   1     -48.887  11.796  23.637  0.00  0.00     0.164 C 
ATOM     26  C   UNL d   1     -49.178  11.027  23.698  0.00  0.00     0.037 C 
ENDBRANCH  24  25
ENDBRANCH  12  24
ENDBRANCH   1   9
TORSDOF 5
ENDMDL
MODEL 2
REMARK VINA RESULT:      -3.3      1.354      2.191
REMARK  5 active torsions:
REMARK  status: ('A' for Active; 'I' for Inactive)
REMARK    1  A    between atoms: S_3  and  C_1 
REMARK    2  A    between atoms: C_7  and  S_3 
REMARK    3  A    between atoms: N_11  and  C_4 
REMARK    4  A    between atoms: C_10  and  C_5 
REMARK    5  A    between atoms: C_24  and  N_11 
ROOT
ATOM      1  C   UNL d   1     -45.263  13.141  22.116  0.00  0.00     0.042 A 
ATOM      2  C   UNL d   1     -44.898  12.451  22.395  0.00  0.00     0.006 A 
ATOM      3  C   UNL d   1     -44.856  13.688  21.668  0.00  0.00     0.006 A 
ATOM      4  C   UNL d   1     -43.684  12.871  21.759  0.00  0.00     0.094 A 
ATOM      5  C   UNL d   1     -44.099  12.317  22.213  0.00  0.00     0.024 A 
ATOM      6  C   UNL d   1     -44.063  13.556  21.487  0.00  0.00     0.024 A 
ATOM      7  O   UNL d   1     -42.878  12.718  21.585  0.00  0.00    -0.328 OA
ATOM      8  C   UNL d   1     -42.078  12.584  21.403  0.00  0.00     0.181 C 
ENDROOT
BRANCH   1   9
ATOM      9  C   UNL d   1     -46.065  13.282  22.295  0.00  0.00     0.186 A 
ATOM     10  N   UNL d   1     -46.591  12.678  22.491  0.00  0.00    -0.206 NA
ATOM     11  C   UNL d   1     -47.336  13.021  22.634  0.00  0.00     0.224 A 
ATOM     12  C   UNL d   1     -47.255  13.830  22.523  0.00  0.00     0.265 A 
ATOM     13  O   UNL d   1     -46.483  14.005  22.315  0.00  0.00    -0.260 OA
BRANCH  11  14
ATOM     14  S   UNL d   1     -48.068  12.729  22.845  0.00  0.00     0.231 S 
ATOM     15  O   UNL d   1     -48.071  12.846  21.954  0.00  0.00    -0.215 OA
ATOM     16  O   UNL d   1     -48.098  12.606  23.698  0.00  0.00    -0.215 OA
BRANCH  14  17
ATOM     17  C   UNL d   1     -48.820  12.430  23.058  0.00  0.00     0.090 A 
ATOM     18  C   UNL d   1     -49.482  12.896  22.986  0.00  0.00     0.012 A 
ATOM     19  C   UNL d   1     -50.216  12.595  23.196  0.00  0.00     0.007 A 
ATOM     20  C   UNL d   1     -50.274  11.830  23.477  0.00  0.00     0.035 A 
ATOM     21  C   UNL d   1     -49.610  11.351  23.554  0.00  0.00     0.007 A 
ATOM     22 BR   UNL d   1     -51.025  11.518  23.694  0.00  0.00    -0.049 Br
ATOM     23  C   UNL d   1     -48.876  11.651  23.343  0.00  0.00     0.012 A 
ENDBRANCH  14  17
ENDBRANCH  11  14
BRANCH  12  24
ATOM     24  N   UNL d   1     -47.890  14.358  22.618  0.00  0.00    -0.373 NA
BRANCH  24  25
ATOM     25  C   UNL d   1     -48.369  15.024  22.645  0.00  0.00     0.164 C 
ATOM     26  C   UNL d   1     -48.517  15.802  22.416  0.00  0.00     0.037 C 
ENDBRANCH  24  25
ENDBRANCH  12  24
ENDBRANCH   1   9
TORSDOF 5
ENDMDL
MODEL 3
REMARK VINA RESULT:      -3.1      5.125      8.267
REMARK  5 active torsions:
REMARK  status: ('A' for Active; 'I' for Inactive)
REMARK    1  A    between atoms: S_3  and  C_1 
REMARK    2  A    between atoms: C_7  and  S_3 
REMARK    3  A    between atoms: N_11  and  C_4 
REMARK    4  A    between atoms: C_10  and  C_5 
REMARK    5  A    between atoms: C_24  and  N_11 
ROOT
ATOM      1  C   UNL d   1     -42.353  13.395  21.076  0.00  0.00     0.042 A 
ATOM      2  C   UNL d   1     -42.193  12.672  21.447  0.00  0.00     0.006 A 
ATOM      3  C   UNL d   1     -43.102  13.718  21.073  0.00  0.00     0.006 A 
ATOM      4  C   UNL d   1     -43.575  12.594  21.823  0.00  0.00     0.094 A 
ATOM      5  C   UNL d   1     -42.814  12.268  21.824  0.00  0.00     0.024 A 
ATOM      6  C   UNL d   1     -43.718  13.319  21.447  0.00  0.00     0.024 A 
ATOM      7  O   UNL d   1     -44.188  12.172  22.209  0.00  0.00    -0.328 OA
ATOM      8  C   UNL d   1     -44.809  11.769  22.586  0.00  0.00     0.181 C 
ENDROOT
BRANCH   1   9
ATOM      9  C   UNL d   1     -41.734  13.806  20.695  0.00  0.00     0.186 A 
ATOM     10  N   UNL d   1     -41.612  13.772  19.880  0.00  0.00    -0.206 NA
ATOM     11  C   UNL d   1     -40.952  14.245  19.699  0.00  0.00     0.224 A 
ATOM     12  C   UNL d   1     -40.679  14.562  20.405  0.00  0.00     0.265 A 
ATOM     13  O   UNL d   1     -41.149  14.302  21.024  0.00  0.00    -0.260 OA
BRANCH  11  14
ATOM     14  S   UNL d   1     -40.558  14.436  19.010  0.00  0.00     0.231 S 
ATOM     15  O   UNL d   1     -40.223  13.657  19.305  0.00  0.00    -0.215 OA
ATOM     16  O   UNL d   1     -40.858  15.183  18.700  0.00  0.00    -0.215 OA
BRANCH  14  17
ATOM     17  C   UNL d   1     -40.152  14.629  18.304  0.00  0.00     0.090 A 
ATOM     18  C   UNL d   1     -40.354  15.295  17.884  0.00  0.00     0.012 A 
ATOM     19  C   UNL d   1     -39.952  15.477  17.193  0.00  0.00     0.007 A 
ATOM     20  C   UNL d   1     -39.351  14.988  16.933  0.00  0.00     0.035 A 
ATOM     21  C   UNL d   1     -39.139  14.312  17.352  0.00  0.00     0.007 A 
ATOM     22 BR   UNL d   1     -38.936  15.171  16.225  0.00  0.00    -0.049 Br
ATOM     23  C   UNL d   1     -39.542  14.129  18.043  0.00  0.00     0.012 A 
ENDBRANCH  14  17
ENDBRANCH  11  14
BRANCH  12  24
ATOM     24  N   UNL d   1     -40.021  15.068  20.442  0.00  0.00    -0.373 NA
BRANCH  24  25
ATOM     25  C   UNL d   1     -39.417  15.564  20.690  0.00  0.00     0.164 C 
ATOM     26  C   UNL d   1     -38.999  15.922  21.304  0.00  0.00     0.037 C 
ENDBRANCH  24  25
ENDBRANCH  12  24
ENDBRANCH   1   9
TORSDOF 5
ENDMDL
