MODEL 1
REMARK VINA RESULT:      -2.6      0.000      0.000
REMARK  3 active torsions:
REMARK  status: ('A' for Active; 'I' for Inactive)
REMARK    1  A    between atoms: S_2  and  C_5 
REMARK    2  A    between atoms: C_7  and  S_2 
REMARK    3  A    between atoms: C_3  and  C_7 
ROOT
ATOM      1  C   UNL d   1      29.855  16.581 -23.969  0.00  0.00     0.087 A 
ATOM      2  N   UNL d   1      30.103  17.150 -24.515  0.00  0.00    -0.244 NA
ATOM      3  C   UNL d   1      30.400  16.067 -23.627  0.00  0.00     0.043 A 
ATOM      4  C   UNL d   1      29.056  16.535 -23.770  0.00  0.00     0.018 A 
ATOM      5  C   UNL d   1      29.357  15.453 -22.883  0.00  0.00     0.001 A 
ATOM      6  C   UNL d   1      29.550  17.664 -24.855  0.00  0.00     0.099 A 
ATOM      7  C   UNL d   1      30.153  15.498 -23.080  0.00  0.00     0.008 A 
ATOM      8  C   UNL d   1      28.808  15.966 -23.223  0.00  0.00     0.002 A 
ATOM      9  C   UNL d   1      28.506  17.039 -24.101  0.00  0.00     0.003 A 
ATOM     10  C   UNL d   1      28.750  17.608 -24.647  0.00  0.00     0.021 A 
ENDROOT
BRANCH   3  11
ATOM     11  S   UNL d   1      31.201  16.122 -23.835  0.00  0.00    -0.101 SA
BRANCH  11  12
ATOM     12  C   UNL d   1      31.900  15.736 -23.595  0.00  0.00     0.160 C 
BRANCH  12  13
ATOM     13  C   UNL d   1      32.710  15.850 -23.735  0.00  0.00     0.197 C 
ATOM     14  O   UNL d   1      33.081  15.453 -24.359  0.00  0.00    -0.647 OA
ATOM     15  O   UNL d   1      33.146  16.359 -23.251  0.00  0.00    -0.647 OA
ENDBRANCH  12  13
ENDBRANCH  11  12
ENDBRANCH   3  11
TORSDOF 3
ENDMDL
MODEL 2
REMARK VINA RESULT:      -2.6      7.711      8.236
REMARK  3 active torsions:
REMARK  status: ('A' for Active; 'I' for Inactive)
REMARK    1  A    between atoms: S_2  and  C_5 
REMARK    2  A    between atoms: C_7  and  S_2 
REMARK    3  A    between atoms: C_3  and  C_7 
ROOT
ATOM      1  C   UNL d   1      32.834  22.275 -20.475  0.00  0.00     0.087 A 
ATOM      2  N   UNL d   1      33.092  21.584 -20.103  0.00  0.00    -0.244 NA
ATOM      3  C   UNL d   1      32.693  22.957 -20.036  0.00  0.00     0.043 A 
ATOM      4  C   UNL d   1      32.721  22.273 -21.293  0.00  0.00     0.018 A 
ATOM      5  C   UNL d   1      32.322  23.647 -21.222  0.00  0.00     0.001 A 
ATOM      6  C   UNL d   1      33.233  20.902 -20.550  0.00  0.00     0.099 A 
ATOM      7  C   UNL d   1      32.435  23.649 -20.409  0.00  0.00     0.008 A 
ATOM      8  C   UNL d   1      32.463  22.965 -21.665  0.00  0.00     0.002 A 
ATOM      9  C   UNL d   1      32.858  21.604 -21.739  0.00  0.00     0.003 A 
ATOM     10  C   UNL d   1      33.115  20.912 -21.370  0.00  0.00     0.021 A 
ENDROOT
BRANCH   3  11
ATOM     11  S   UNL d   1      32.810  22.947 -19.216  0.00  0.00    -0.101 SA
BRANCH  11  12
ATOM     12  C   UNL d   1      32.677  23.487 -18.594  0.00  0.00     0.160 C 
BRANCH  12  13
ATOM     13  C   UNL d   1      32.620  23.429 -17.769  0.00  0.00     0.197 C 
ATOM     14  O   UNL d   1      33.240  23.097 -17.334  0.00  0.00    -0.647 OA
ATOM     15  O   UNL d   1      31.943  23.702 -17.381  0.00  0.00    -0.647 OA
ENDBRANCH  12  13
ENDBRANCH  11  12
ENDBRANCH   3  11
TORSDOF 3
ENDMDL
MODEL 3
REMARK VINA RESULT:      -2.6      1.227      2.057
REMARK  3 active torsions:
REMARK  status: ('A' for Active; 'I' for Inactive)
REMARK    1  A    between atoms: S_2  and  C_5 
REMARK    2  A    between atoms: C_7  and  S_2 
REMARK    3  A    between atoms: C_3  and  C_7 
ROOT
ATOM      1  C   UNL d   1      29.976  16.540 -23.886  0.00  0.00     0.087 A 
ATOM      2  N   UNL d   1      30.408  16.049 -23.380  0.00  0.00    -0.244 NA
ATOM      3  C   UNL d   1      30.362  17.080 -24.372  0.00  0.00     0.043 A 
ATOM      4  C   UNL d   1      29.153  16.481 -23.897  0.00  0.00     0.018 A 
ATOM      5  C   UNL d   1      29.111  17.513 -24.889  0.00  0.00     0.001 A 
ATOM      6  C   UNL d   1      30.014  15.508 -22.894  0.00  0.00     0.099 A 
ATOM      7  C   UNL d   1      29.930  17.571 -24.878  0.00  0.00     0.008 A 
ATOM      8  C   UNL d   1      28.721  16.973 -24.403  0.00  0.00     0.002 A 
ATOM      9  C   UNL d   1      28.759  15.950 -23.420  0.00  0.00     0.003 A 
ATOM     10  C   UNL d   1      29.187  15.458 -22.914  0.00  0.00     0.021 A 
ENDROOT
BRANCH   3  11
ATOM     11  S   UNL d   1      31.190  17.130 -24.352  0.00  0.00    -0.101 SA
BRANCH  11  12
ATOM     12  C   UNL d   1      31.759  17.637 -24.692  0.00  0.00     0.160 C 
BRANCH  12  13
ATOM     13  C   UNL d   1      32.582  17.718 -24.632  0.00  0.00     0.197 C 
ATOM     14  O   UNL d   1      32.906  18.269 -24.107  0.00  0.00    -0.647 OA
ATOM     15  O   UNL d   1      33.079  17.248 -25.097  0.00  0.00    -0.647 OA
ENDBRANCH  12  13
ENDBRANCH  11  12
ENDBRANCH   3  11
TORSDOF 3
ENDMDL
MODEL 4
REMARK VINA RESULT:      -2.5      2.161      3.143
REMARK  3 active torsions:
REMARK  status: ('A' for Active; 'I' for Inactive)
REMARK    1  A    between atoms: S_2  and  C_5 
REMARK    2  A    between atoms: C_7  and  S_2 
REMARK    3  A    between atoms: C_3  and  C_7 
ROOT
ATOM      1  C   UNL d   1      31.248  16.759 -24.038  0.00  0.00     0.087 A 
ATOM      2  N   UNL d   1      30.949  17.416 -24.442  0.00  0.00    -0.244 NA
ATOM      3  C   UNL d   1      30.738  16.187 -23.737  0.00  0.00     0.043 A 
ATOM      4  C   UNL d   1      32.064  16.685 -23.940  0.00  0.00     0.018 A 
ATOM      5  C   UNL d   1      31.849  15.457 -23.235  0.00  0.00     0.001 A 
ATOM      6  C   UNL d   1      31.467  17.987 -24.742  0.00  0.00     0.099 A 
ATOM      7  C   UNL d   1      31.037  15.530 -23.333  0.00  0.00     0.008 A 
ATOM      8  C   UNL d   1      32.363  16.028 -23.536  0.00  0.00     0.002 A 
ATOM      9  C   UNL d   1      32.579  17.244 -24.233  0.00  0.00     0.003 A 
ATOM     10  C   UNL d   1      32.284  17.901 -24.637  0.00  0.00     0.021 A 
ENDROOT
BRANCH   3  11
ATOM     11  S   UNL d   1      29.920  16.273 -23.841  0.00  0.00    -0.101 SA
BRANCH  11  12
ATOM     12  C   UNL d   1      29.242  15.911 -23.516  0.00  0.00     0.160 C 
BRANCH  12  13
ATOM     13  C   UNL d   1      28.425  15.986 -23.631  0.00  0.00     0.197 C 
ATOM     14  O   UNL d   1      28.002  16.571 -23.226  0.00  0.00    -0.647 OA
ATOM     15  O   UNL d   1      28.031  15.478 -24.151  0.00  0.00    -0.647 OA
ENDBRANCH  12  13
ENDBRANCH  11  12
ENDBRANCH   3  11
TORSDOF 3
ENDMDL
MODEL 5
REMARK VINA RESULT:      -2.4      2.160      3.515
REMARK  3 active torsions:
REMARK  status: ('A' for Active; 'I' for Inactive)
REMARK    1  A    between atoms: S_2  and  C_5 
REMARK    2  A    between atoms: C_7  and  S_2 
REMARK    3  A    between atoms: C_3  and  C_7 
ROOT
ATOM      1  C   UNL d   1      31.394  16.472 -23.899  0.00  0.00     0.087 A 
ATOM      2  N   UNL d   1      31.420  15.763 -23.473  0.00  0.00    -0.244 NA
ATOM      3  C   UNL d   1      30.673  16.786 -24.142  0.00  0.00     0.043 A 
ATOM      4  C   UNL d   1      32.100  16.860 -24.076  0.00  0.00     0.018 A 
ATOM      5  C   UNL d   1      31.349  17.881 -24.744  0.00  0.00     0.001 A 
ATOM      6  C   UNL d   1      32.147  15.454 -23.232  0.00  0.00     0.099 A 
ATOM      7  C   UNL d   1      30.647  17.494 -24.568  0.00  0.00     0.008 A 
ATOM      8  C   UNL d   1      32.074  17.569 -24.501  0.00  0.00     0.002 A 
ATOM      9  C   UNL d   1      32.821  16.560 -23.840  0.00  0.00     0.003 A 
ATOM     10  C   UNL d   1      32.850  15.853 -23.416  0.00  0.00     0.021 A 
ENDROOT
BRANCH   3  11
ATOM     11  S   UNL d   1      29.970  16.386 -23.958  0.00  0.00    -0.101 SA
BRANCH  11  12
ATOM     12  C   UNL d   1      29.160  16.516 -24.112  0.00  0.00     0.160 C 
BRANCH  12  13
ATOM     13  C   UNL d   1      28.452  16.174 -23.850  0.00  0.00     0.197 C 
ATOM     14  O   UNL d   1      28.195  15.456 -24.171  0.00  0.00    -0.647 OA
ATOM     15  O   UNL d   1      28.002  16.550 -23.267  0.00  0.00    -0.647 OA
ENDBRANCH  12  13
ENDBRANCH  11  12
ENDBRANCH   3  11
TORSDOF 3
ENDMDL
MODEL 6
REMARK VINA RESULT:      -2.2      1.881      2.748
REMARK  3 active torsions:
REMARK  status: ('A' for Active; 'I' for Inactive)
REMARK    1  A    between atoms: S_2  and  C_5 
REMARK    2  A    between atoms: C_7  and  S_2 
REMARK    3  A    between atoms: C_3  and  C_7 
ROOT
ATOM      1  C   UNL d   1      31.520  16.775 -23.880  0.00  0.00     0.087 A 
ATOM      2  N   UNL d   1      30.874  17.274 -24.016  0.00  0.00    -0.244 NA
ATOM      3  C   UNL d   1      32.231  17.080 -23.600  0.00  0.00     0.043 A 
ATOM      4  C   UNL d   1      31.441  15.967 -24.028  0.00  0.00     0.018 A 
ATOM      5  C   UNL d   1      32.798  15.777 -23.612  0.00  0.00     0.001 A 
ATOM      6  C   UNL d   1      30.163  16.961 -24.297  0.00  0.00     0.099 A 
ATOM      7  C   UNL d   1      32.876  16.581 -23.464  0.00  0.00     0.008 A 
ATOM      8  C   UNL d   1      32.086  15.468 -23.893  0.00  0.00     0.002 A 
ATOM      9  C   UNL d   1      30.741  15.652 -24.306  0.00  0.00     0.003 A 
ATOM     10  C   UNL d   1      30.096  16.147 -24.443  0.00  0.00     0.021 A 
ENDROOT
BRANCH   3  11
ATOM     11  S   UNL d   1      32.298  17.894 -23.455  0.00  0.00    -0.101 SA
BRANCH  11  12
ATOM     12  C   UNL d   1      32.933  18.424 -23.350  0.00  0.00     0.160 C 
BRANCH  12  13
ATOM     13  C   UNL d   1      33.001  19.225 -23.147  0.00  0.00     0.197 C 
ATOM     14  O   UNL d   1      33.225  19.779 -23.719  0.00  0.00    -0.647 OA
ATOM     15  O   UNL d   1      32.845  19.471 -22.373  0.00  0.00    -0.647 OA
ENDBRANCH  12  13
ENDBRANCH  11  12
ENDBRANCH   3  11
TORSDOF 3
ENDMDL
MODEL 7
REMARK VINA RESULT:      -1.4      7.295      7.726
REMARK  3 active torsions:
REMARK  status: ('A' for Active; 'I' for Inactive)
REMARK    1  A    between atoms: S_2  and  C_5 
REMARK    2  A    between atoms: C_7  and  S_2 
REMARK    3  A    between atoms: C_3  and  C_7 
ROOT
ATOM      1  C   UNL d   1      33.068  22.442 -21.321  0.00  0.00     0.087 A 
ATOM      2  N   UNL d   1      33.142  23.241 -21.521  0.00  0.00    -0.244 NA
ATOM      3  C   UNL d   1      32.988  22.216 -20.533  0.00  0.00     0.043 A 
ATOM      4  C   UNL d   1      33.075  21.875 -21.920  0.00  0.00     0.018 A 
ATOM      5  C   UNL d   1      32.922  20.853 -20.929  0.00  0.00     0.001 A 
ATOM      6  C   UNL d   1      33.221  23.462 -22.315  0.00  0.00     0.099 A 
ATOM      7  C   UNL d   1      32.915  21.417 -20.333  0.00  0.00     0.008 A 
ATOM      8  C   UNL d   1      33.002  21.076 -21.719  0.00  0.00     0.002 A 
ATOM      9  C   UNL d   1      33.154  22.086 -22.704  0.00  0.00     0.003 A 
ATOM     10  C   UNL d   1      33.227  22.883 -22.908  0.00  0.00     0.021 A 
ENDROOT
BRANCH   3  11
ATOM     11  S   UNL d   1      32.982  22.795 -19.940  0.00  0.00    -0.101 SA
BRANCH  11  12
ATOM     12  C   UNL d   1      33.226  22.826 -19.143  0.00  0.00     0.160 C 
BRANCH  12  13
ATOM     13  C   UNL d   1      32.892  23.106 -18.438  0.00  0.00     0.197 C 
ATOM     14  O   UNL d   1      32.320  23.702 -18.459  0.00  0.00    -0.647 OA
ATOM     15  O   UNL d   1      33.131  22.789 -17.712  0.00  0.00    -0.647 OA
ENDBRANCH  12  13
ENDBRANCH  11  12
ENDBRANCH   3  11
TORSDOF 3
ENDMDL
MODEL 8
REMARK VINA RESULT:      -1.4      6.545      7.040
REMARK  3 active torsions:
REMARK  status: ('A' for Active; 'I' for Inactive)
REMARK    1  A    between atoms: S_2  and  C_5 
REMARK    2  A    between atoms: C_7  and  S_2 
REMARK    3  A    between atoms: C_3  and  C_7 
ROOT
ATOM      1  C   UNL d   1      32.986  22.093 -21.428  0.00  0.00     0.087 A 
ATOM      2  N   UNL d   1      32.947  22.902 -21.260  0.00  0.00    -0.244 NA
ATOM      3  C   UNL d   1      33.086  21.832 -22.202  0.00  0.00     0.043 A 
ATOM      4  C   UNL d   1      32.923  21.551 -20.808  0.00  0.00     0.018 A 
ATOM      5  C   UNL d   1      33.062  20.484 -21.753  0.00  0.00     0.001 A 
ATOM      6  C   UNL d   1      32.846  23.157 -20.480  0.00  0.00     0.099 A 
ATOM      7  C   UNL d   1      33.125  21.023 -22.369  0.00  0.00     0.008 A 
ATOM      8  C   UNL d   1      32.962  20.742 -20.976  0.00  0.00     0.002 A 
ATOM      9  C   UNL d   1      32.824  21.797 -20.037  0.00  0.00     0.003 A 
ATOM     10  C   UNL d   1      32.784  22.603 -19.866  0.00  0.00     0.021 A 
ENDROOT
BRANCH   3  11
ATOM     11  S   UNL d   1      33.147  22.386 -22.815  0.00  0.00    -0.101 SA
BRANCH  11  12
ATOM     12  C   UNL d   1      33.241  22.342 -23.643  0.00  0.00     0.160 C 
BRANCH  12  13
ATOM     13  C   UNL d   1      33.028  22.823 -24.284  0.00  0.00     0.197 C 
ATOM     14  O   UNL d   1      32.732  23.583 -24.150  0.00  0.00    -0.647 OA
ATOM     15  O   UNL d   1      33.112  22.543 -25.058  0.00  0.00    -0.647 OA
ENDBRANCH  12  13
ENDBRANCH  11  12
ENDBRANCH   3  11
TORSDOF 3
ENDMDL
MODEL 9
REMARK VINA RESULT:      -1.1      3.372      4.168
REMARK  3 active torsions:
REMARK  status: ('A' for Active; 'I' for Inactive)
REMARK    1  A    between atoms: S_2  and  C_5 
REMARK    2  A    between atoms: C_7  and  S_2 
REMARK    3  A    between atoms: C_3  and  C_7 
ROOT
ATOM      1  C   UNL d   1      33.219  19.196 -23.400  0.00  0.00     0.087 A 
ATOM      2  N   UNL d   1      33.213  19.115 -24.223  0.00  0.00    -0.244 NA
ATOM      3  C   UNL d   1      33.213  18.530 -22.916  0.00  0.00     0.043 A 
ATOM      4  C   UNL d   1      33.232  19.952 -23.071  0.00  0.00     0.018 A 
ATOM      5  C   UNL d   1      33.231  19.364 -21.766  0.00  0.00     0.001 A 
ATOM      6  C   UNL d   1      33.220  19.788 -24.704  0.00  0.00     0.099 A 
ATOM      7  C   UNL d   1      33.218  18.611 -22.093  0.00  0.00     0.008 A 
ATOM      8  C   UNL d   1      33.238  20.033 -22.248  0.00  0.00     0.002 A 
ATOM      9  C   UNL d   1      33.239  20.620 -23.540  0.00  0.00     0.003 A 
ATOM     10  C   UNL d   1      33.233  20.542 -24.362  0.00  0.00     0.021 A 
ENDROOT
BRANCH   3  11
ATOM     11  S   UNL d   1      33.200  17.775 -23.259  0.00  0.00    -0.101 SA
BRANCH  11  12
ATOM     12  C   UNL d   1      32.799  17.061 -23.099  0.00  0.00     0.160 C 
BRANCH  12  13
ATOM     13  C   UNL d   1      32.801  16.301 -23.429  0.00  0.00     0.197 C 
ATOM     14  O   UNL d   1      33.164  15.676 -23.026  0.00  0.00    -0.647 OA
ATOM     15  O   UNL d   1      32.441  16.166 -24.161  0.00  0.00    -0.647 OA
ENDBRANCH  12  13
ENDBRANCH  11  12
ENDBRANCH   3  11
TORSDOF 3
ENDMDL
