MODEL 1
REMARK VINA RESULT:      34.1      0.000      0.000
REMARK  3 active torsions:
REMARK  status: ('A' for Active; 'I' for Inactive)
REMARK    1  A    between atoms: N_7  and  C_1 
REMARK    2  A    between atoms: C_11  and  N_3 
REMARK       I    between atoms: C_9  and  N_7 
REMARK    3  A    between atoms: C_12  and  C_9 
ROOT
ATOM      1  C   UNL d   1     -58.626 -98.815 -44.644  0.00  0.00     0.165 A 
ATOM      2  C   UNL d   1     -58.871 -98.802 -43.906  0.00  0.00     0.067 A 
ATOM      3  N   UNL d   1     -59.253 -98.810 -45.104  0.00  0.00    -0.238 N 
ATOM      4  C   UNL d   1     -59.657 -98.789 -43.910  0.00  0.00     0.116 A 
ATOM      5  N   UNL d   1     -59.889 -98.795 -44.650  0.00  0.00    -0.168 NA
ATOM      6  S   UNL d   1     -59.266 -98.781 -42.711  0.00  0.00     0.213 S 
ATOM      7  C   UNL d   1     -59.896 -98.776 -43.173  0.00  0.00     0.120 A 
ATOM      8  C   UNL d   1     -58.633 -98.796 -43.166  0.00  0.00     0.103 A 
ATOM      9  O   UNL d   1     -59.940 -98.765 -42.329  0.00  0.00    -0.217 OA
ATOM     10  O   UNL d   1     -58.692 -98.786 -42.357  0.00  0.00    -0.217 OA
ENDROOT
BRANCH   1  11
ATOM     11  N   UNL d   1     -57.943 -98.823 -44.464  0.00  0.00    -0.189 NA
ATOM     12  C   UNL d   1     -57.064 -98.797 -44.954  0.00  0.00     0.281 C 
ATOM     13  O   UNL d   1     -57.033 -98.757 -45.716  0.00  0.00    -0.265 OA
BRANCH  12  14
ATOM     14  C   UNL d   1     -56.363 -98.818 -44.525  0.00  0.00     0.058 A 
ATOM     15  C   UNL d   1     -55.624 -98.803 -44.932  0.00  0.00     0.005 A 
ATOM     16  C   UNL d   1     -55.600 -98.766 -45.756  0.00  0.00     0.000 C 
ATOM     17  C   UNL d   1     -54.914 -98.825 -44.493  0.00  0.00     0.000 A 
ATOM     18  C   UNL d   1     -54.943 -98.862 -43.656  0.00  0.00     0.000 A 
ATOM     19  C   UNL d   1     -55.677 -98.877 -43.269  0.00  0.00     0.000 A 
ATOM     20  C   UNL d   1     -56.388 -98.855 -43.703  0.00  0.00     0.005 A 
ENDBRANCH  12  14
ENDBRANCH   1  11
BRANCH   3  21
ATOM     21  C   UNL d   1     -59.249 -98.820 -45.937  0.00  0.00     0.088 C 
ATOM     22  C   UNL d   1     -59.910 -98.782 -46.445  0.00  0.00     0.025 C 
ATOM     23  C   UNL d   1     -58.483 -98.875 -46.249  0.00  0.00     0.025 C 
ATOM     24  C   UNL d   1     -59.359 -98.823 -46.755  0.00  0.00     0.025 C 
ENDBRANCH   3  21
TORSDOF 3
ENDMDL
