MODEL 1
REMARK VINA RESULT:       7.7      0.000      0.000
REMARK  2 active torsions:
REMARK  status: ('A' for Active; 'I' for Inactive)
REMARK    1  A    between atoms: C_12  and  C_4 
REMARK    2  A    between atoms: C_10  and  C_5 
ROOT
ATOM      1  N   UNL d   1     -41.619-122.026 -51.793  0.00  0.00    -0.208 N 
ATOM      2  N   UNL d   1     -41.725-122.711 -52.246  0.00  0.00    -0.163 NA
ATOM      3  C   UNL d   1     -41.494-121.395 -52.311  0.00  0.00     0.088 A 
ATOM      4  C   UNL d   1     -41.620-121.904 -50.983  0.00  0.00     0.183 A 
ATOM      5  C   UNL d   1     -41.668-122.505 -53.040  0.00  0.00     0.109 A 
ATOM      6  O   UNL d   1     -41.496-121.147 -50.685  0.00  0.00    -0.289 OA
ATOM      7  C   UNL d   1     -41.525-121.694 -53.084  0.00  0.00     0.041 A 
ATOM      8  C   UNL d   1     -41.371-120.644 -52.016  0.00  0.00     0.041 A 
ATOM      9  C   UNL d   1     -41.371-120.514 -51.198  0.00  0.00     0.103 A 
ATOM     10  C   UNL d   1     -41.247-120.012 -52.529  0.00  0.00     0.004 A 
ATOM     11  C   UNL d   1     -41.248-119.759 -50.900  0.00  0.00     0.025 A 
ATOM     12  C   UNL d   1     -41.123-119.255 -52.232  0.00  0.00     0.000 A 
ATOM     13  C   UNL d   1     -41.124-119.128 -51.414  0.00  0.00     0.002 A 
ENDROOT
BRANCH   4  14
ATOM     14  C   UNL d   1     -41.744-122.537 -50.467  0.00  0.00     0.041 A 
ATOM     15  C   UNL d   1     -41.129-123.044 -50.301  0.00  0.00     0.004 A 
ATOM     16  C   UNL d   1     -41.250-123.683 -49.781  0.00  0.00     0.000 A 
ATOM     17  C   UNL d   1     -41.997-123.798 -49.436  0.00  0.00     0.000 A 
ATOM     18  C   UNL d   1     -42.614-123.274 -49.615  0.00  0.00     0.000 A 
ATOM     19  C   UNL d   1     -42.490-122.643 -50.129  0.00  0.00     0.004 A 
ENDBRANCH   4  14
BRANCH   5  20
ATOM     20  C   UNL d   1     -41.739-123.015 -53.683  0.00  0.00     0.049 A 
ATOM     21  S   UNL d   1     -41.123-123.298 -54.146  0.00  0.00    -0.085 SA
ATOM     22  C   UNL d   1     -41.444-123.789 -54.725  0.00  0.00     0.035 A 
ATOM     23  C   UNL d   1     -42.265-123.811 -54.619  0.00  0.00     0.007 A 
ATOM     24  C   UNL d   1     -42.453-123.336 -53.980  0.00  0.00     0.009 A 
ENDBRANCH   5  20
TORSDOF 2
ENDMDL
MODEL 2
REMARK VINA RESULT:       7.9      1.223      3.740
REMARK  2 active torsions:
REMARK  status: ('A' for Active; 'I' for Inactive)
REMARK    1  A    between atoms: C_12  and  C_4 
REMARK    2  A    between atoms: C_10  and  C_5 
ROOT
ATOM      1  N   UNL d   1     -41.426-122.049 -51.836  0.00  0.00    -0.208 N 
ATOM      2  N   UNL d   1     -41.525-122.098 -51.016  0.00  0.00    -0.163 NA
ATOM      3  C   UNL d   1     -41.483-122.813 -52.145  0.00  0.00     0.088 A 
ATOM      4  C   UNL d   1     -41.292-121.410 -52.331  0.00  0.00     0.183 A 
ATOM      5  C   UNL d   1     -41.643-122.888 -50.817  0.00  0.00     0.109 A 
ATOM      6  O   UNL d   1     -41.215-121.532 -53.141  0.00  0.00    -0.289 OA
ATOM      7  C   UNL d   1     -41.617-123.332 -51.512  0.00  0.00     0.041 A 
ATOM      8  C   UNL d   1     -41.406-122.934 -52.948  0.00  0.00     0.041 A 
ATOM      9  C   UNL d   1     -41.271-122.293 -53.454  0.00  0.00     0.103 A 
ATOM     10  C   UNL d   1     -41.462-123.695 -53.261  0.00  0.00     0.004 A 
ATOM     11  C   UNL d   1     -41.193-122.414 -54.263  0.00  0.00     0.025 A 
ATOM     12  C   UNL d   1     -41.384-123.817 -54.070  0.00  0.00     0.000 A 
ATOM     13  C   UNL d   1     -41.249-123.174 -54.573  0.00  0.00     0.002 A 
ENDROOT
BRANCH   4  14
ATOM     14  C   UNL d   1     -41.236-120.648 -52.020  0.00  0.00     0.041 A 
ATOM     15  C   UNL d   1     -41.211-120.547 -51.212  0.00  0.00     0.004 A 
ATOM     16  C   UNL d   1     -41.154-119.780 -50.894  0.00  0.00     0.000 A 
ATOM     17  C   UNL d   1     -41.123-119.123 -51.403  0.00  0.00     0.000 A 
ATOM     18  C   UNL d   1     -41.150-119.242 -52.223  0.00  0.00     0.000 A 
ATOM     19  C   UNL d   1     -41.206-120.001 -52.533  0.00  0.00     0.004 A 
ENDBRANCH   4  14
BRANCH   5  20
ATOM     20  C   UNL d   1     -41.765-123.188 -50.061  0.00  0.00     0.049 A 
ATOM     21  S   UNL d   1     -41.188-123.491 -49.561  0.00  0.00    -0.085 SA
ATOM     22  C   UNL d   1     -41.555-123.728 -48.862  0.00  0.00     0.035 A 
ATOM     23  C   UNL d   1     -42.365-123.569 -48.929  0.00  0.00     0.007 A 
ATOM     24  C   UNL d   1     -42.501-123.237 -49.664  0.00  0.00     0.009 A 
ENDBRANCH   5  20
TORSDOF 2
ENDMDL
MODEL 3
REMARK VINA RESULT:       8.1      1.167      3.139
REMARK  2 active torsions:
REMARK  status: ('A' for Active; 'I' for Inactive)
REMARK    1  A    between atoms: C_12  and  C_4 
REMARK    2  A    between atoms: C_10  and  C_5 
ROOT
ATOM      1  N   UNL d   1     -41.701-122.011 -51.919  0.00  0.00    -0.208 N 
ATOM      2  N   UNL d   1     -41.871-122.695 -51.485  0.00  0.00    -0.163 NA
ATOM      3  C   UNL d   1     -41.630-121.383 -51.387  0.00  0.00     0.088 A 
ATOM      4  C   UNL d   1     -41.604-121.887 -52.723  0.00  0.00     0.183 A 
ATOM      5  C   UNL d   1     -41.905-122.493 -50.688  0.00  0.00     0.109 A 
ATOM      6  O   UNL d   1     -41.435-121.130 -53.000  0.00  0.00    -0.289 OA
ATOM      7  C   UNL d   1     -41.757-121.684 -50.624  0.00  0.00     0.041 A 
ATOM      8  C   UNL d   1     -41.462-120.634 -51.662  0.00  0.00     0.041 A 
ATOM      9  C   UNL d   1     -41.363-120.501 -52.473  0.00  0.00     0.103 A 
ATOM     10  C   UNL d   1     -41.390-120.005 -51.134  0.00  0.00     0.004 A 
ATOM     11  C   UNL d   1     -41.194-119.746 -52.751  0.00  0.00     0.025 A 
ATOM     12  C   UNL d   1     -41.221-119.249 -51.411  0.00  0.00     0.000 A 
ATOM     13  C   UNL d   1     -41.123-119.119 -52.222  0.00  0.00     0.002 A 
ENDROOT
BRANCH   4  14
ATOM     14  C   UNL d   1     -41.676-122.515 -53.253  0.00  0.00     0.041 A 
ATOM     15  C   UNL d   1     -41.163-123.146 -53.196  0.00  0.00     0.004 A 
ATOM     16  C   UNL d   1     -41.232-123.782 -53.729  0.00  0.00     0.000 A 
ATOM     17  C   UNL d   1     -41.822-123.769 -54.313  0.00  0.00     0.000 A 
ATOM     18  C   UNL d   1     -42.337-123.121 -54.358  0.00  0.00     0.000 A 
ATOM     19  C   UNL d   1     -42.266-122.494 -53.830  0.00  0.00     0.004 A 
ENDBRANCH   4  14
BRANCH   5  20
ATOM     20  C   UNL d   1     -42.059-123.003 -50.061  0.00  0.00     0.049 A 
ATOM     21  S   UNL d   1     -41.503-123.317 -49.544  0.00  0.00    -0.085 SA
ATOM     22  C   UNL d   1     -41.899-123.797 -49.005  0.00  0.00     0.035 A 
ATOM     23  C   UNL d   1     -42.706-123.782 -49.189  0.00  0.00     0.007 A 
ATOM     24  C   UNL d   1     -42.811-123.295 -49.838  0.00  0.00     0.009 A 
ENDBRANCH   5  20
TORSDOF 2
ENDMDL
MODEL 4
REMARK VINA RESULT:       9.6      0.733      2.908
REMARK  2 active torsions:
REMARK  status: ('A' for Active; 'I' for Inactive)
REMARK    1  A    between atoms: C_12  and  C_4 
REMARK    2  A    between atoms: C_10  and  C_5 
ROOT
ATOM      1  N   UNL d   1     -41.253-121.922 -51.866  0.00  0.00    -0.208 N 
ATOM      2  N   UNL d   1     -41.284-121.928 -52.693  0.00  0.00    -0.163 NA
ATOM      3  C   UNL d   1     -41.280-122.706 -51.606  0.00  0.00     0.088 A 
ATOM      4  C   UNL d   1     -41.205-121.307 -51.327  0.00  0.00     0.183 A 
ATOM      5  C   UNL d   1     -41.330-122.710 -52.944  0.00  0.00     0.109 A 
ATOM      6  O   UNL d   1     -41.182-121.473 -50.521  0.00  0.00    -0.289 OA
ATOM      7  C   UNL d   1     -41.327-123.193 -52.276  0.00  0.00     0.041 A 
ATOM      8  C   UNL d   1     -41.257-122.870 -50.807  0.00  0.00     0.041 A 
ATOM      9  C   UNL d   1     -41.208-122.254 -50.257  0.00  0.00     0.103 A 
ATOM     10  C   UNL d   1     -41.283-123.651 -50.543  0.00  0.00     0.004 A 
ATOM     11  C   UNL d   1     -41.186-122.418 -49.452  0.00  0.00     0.025 A 
ATOM     12  C   UNL d   1     -41.261-123.816 -49.738  0.00  0.00     0.000 A 
ATOM     13  C   UNL d   1     -41.212-123.198 -49.190  0.00  0.00     0.002 A 
ENDROOT
BRANCH   4  14
ATOM     14  C   UNL d   1     -41.179-120.525 -51.590  0.00  0.00     0.041 A 
ATOM     15  C   UNL d   1     -41.183-120.372 -52.390  0.00  0.00     0.004 A 
ATOM     16  C   UNL d   1     -41.157-119.585 -52.659  0.00  0.00     0.000 A 
ATOM     17  C   UNL d   1     -41.127-118.962 -52.110  0.00  0.00     0.000 A 
ATOM     18  C   UNL d   1     -41.123-119.133 -51.299  0.00  0.00     0.000 A 
ATOM     19  C   UNL d   1     -41.149-119.913 -51.037  0.00  0.00     0.004 A 
ENDBRANCH   4  14
BRANCH   5  20
ATOM     20  C   UNL d   1     -41.371-122.971 -53.724  0.00  0.00     0.049 A 
ATOM     21  S   UNL d   1     -41.509-123.742 -53.970  0.00  0.00    -0.085 SA
ATOM     22  C   UNL d   1     -41.504-123.752 -54.794  0.00  0.00     0.035 A 
ATOM     23  C   UNL d   1     -41.362-122.981 -55.060  0.00  0.00     0.007 A 
ATOM     24  C   UNL d   1     -41.279-122.495 -54.407  0.00  0.00     0.009 A 
ENDBRANCH   5  20
TORSDOF 2
ENDMDL
MODEL 5
REMARK VINA RESULT:      10.4      1.578      4.050
REMARK  2 active torsions:
REMARK  status: ('A' for Active; 'I' for Inactive)
REMARK    1  A    between atoms: C_12  and  C_4 
REMARK    2  A    between atoms: C_10  and  C_5 
ROOT
ATOM      1  N   UNL d   1     -41.579-121.562 -52.744  0.00  0.00    -0.208 N 
ATOM      2  N   UNL d   1     -41.536-120.764 -52.961  0.00  0.00    -0.163 NA
ATOM      3  C   UNL d   1     -41.432-121.613 -51.933  0.00  0.00     0.088 A 
ATOM      4  C   UNL d   1     -41.731-122.237 -53.182  0.00  0.00     0.183 A 
ATOM      5  C   UNL d   1     -41.364-120.323 -52.288  0.00  0.00     0.109 A 
ATOM      6  O   UNL d   1     -41.737-122.971 -52.809  0.00  0.00    -0.289 OA
ATOM      7  C   UNL d   1     -41.299-120.844 -51.651  0.00  0.00     0.041 A 
ATOM      8  C   UNL d   1     -41.439-122.340 -51.563  0.00  0.00     0.041 A 
ATOM      9  C   UNL d   1     -41.592-123.026 -52.000  0.00  0.00     0.103 A 
ATOM     10  C   UNL d   1     -41.293-122.396 -50.754  0.00  0.00     0.004 A 
ATOM     11  C   UNL d   1     -41.599-123.760 -51.628  0.00  0.00     0.025 A 
ATOM     12  C   UNL d   1     -41.300-123.129 -50.382  0.00  0.00     0.000 A 
ATOM     13  C   UNL d   1     -41.453-123.813 -50.820  0.00  0.00     0.002 A 
ENDROOT
BRANCH   4  14
ATOM     14  C   UNL d   1     -41.877-122.183 -53.993  0.00  0.00     0.041 A 
ATOM     15  C   UNL d   1     -41.274-122.340 -54.518  0.00  0.00     0.004 A 
ATOM     16  C   UNL d   1     -41.418-122.287 -55.337  0.00  0.00     0.000 A 
ATOM     17  C   UNL d   1     -42.173-122.074 -55.611  0.00  0.00     0.000 A 
ATOM     18  C   UNL d   1     -42.775-121.918 -55.064  0.00  0.00     0.000 A 
ATOM     19  C   UNL d   1     -42.631-121.971 -54.256  0.00  0.00     0.004 A 
ENDBRANCH   4  14
BRANCH   5  20
ATOM     20  C   UNL d   1     -41.272-119.506 -52.250  0.00  0.00     0.049 A 
ATOM     21  S   UNL d   1     -41.206-119.057 -51.565  0.00  0.00    -0.085 SA
ATOM     22  C   UNL d   1     -41.123-118.268 -51.784  0.00  0.00     0.035 A 
ATOM     23  C   UNL d   1     -41.137-118.226 -52.611  0.00  0.00     0.007 A 
ATOM     24  C   UNL d   1     -41.228-118.985 -52.904  0.00  0.00     0.009 A 
ENDBRANCH   5  20
TORSDOF 2
ENDMDL
