MODEL 1
REMARK VINA RESULT:      -9.3      0.000      0.000
REMARK  4 active torsions:
REMARK  status: ('A' for Active; 'I' for Inactive)
REMARK    1  A    between atoms: N_2  and  S_1 
REMARK    2  A    between atoms: N_3  and  S_1 
REMARK    3  A    between atoms: C_8  and  N_3 
REMARK    4  A    between atoms: C_7  and  C_6 
ROOT
ATOM      1  N   UNL d   1      54.118  32.523  53.301  0.00  0.00    -0.144 NA
ENDROOT
BRANCH   1   2
ATOM      2  S   UNL d   1      53.760  31.787  53.397  0.00  0.00     0.351 S 
ATOM      3  O   UNL d   1      54.184  31.592  54.076  0.00  0.00    -0.180 OA
ATOM      4  O   UNL d   1      53.338  31.983  52.719  0.00  0.00    -0.180 OA
BRANCH   2   5
ATOM      5  N   UNL d   1      53.365  31.066  53.436  0.00  0.00    -0.215 N 
ATOM      6  C   UNL d   1      53.757  30.399  53.739  0.00  0.00     0.093 C 
ATOM      7  C   UNL d   1      53.362  29.686  53.775  0.00  0.00     0.020 C 
ATOM      8  C   UNL d   1      52.632  29.592  53.420  0.00  0.00     0.003 C 
ATOM      9  C   UNL d   1      52.290  30.226  53.020  0.00  0.00     0.020 C 
ATOM     10  C   UNL d   1      52.680  30.955  52.976  0.00  0.00     0.093 C 
ENDBRANCH   2   5
ENDBRANCH   1   2
BRANCH   1  11
ATOM     11  C   UNL d   1      54.012  33.125  53.880  0.00  0.00     0.095 A 
ATOM     12  C   UNL d   1      53.468  33.740  53.744  0.00  0.00     0.023 A 
ATOM     13  C   UNL d   1      53.355  34.326  54.319  0.00  0.00     0.041 A 
ATOM     14  C   UNL d   1      53.792  34.299  55.027  0.00  0.00     0.003 A 
ATOM     15  C   UNL d   1      54.340  33.686  55.177  0.00  0.00     0.002 A 
ATOM     16  C   UNL d   1      54.446  33.092  54.593  0.00  0.00     0.020 A 
BRANCH  13  17
ATOM     17  C   UNL d   1      52.930  35.011  54.133  0.00  0.00     0.196 C 
ATOM     18  O   UNL d   1      53.253  35.749  54.299  0.00  0.00    -0.287 OA
ATOM     19  C   UNL d   1      52.185  34.949  53.783  0.00  0.00     0.045 C 
ENDBRANCH  13  17
ENDBRANCH   1  11
TORSDOF 4
ENDMDL
MODEL 2
REMARK VINA RESULT:      -8.7      1.905      3.033
REMARK  4 active torsions:
REMARK  status: ('A' for Active; 'I' for Inactive)
REMARK    1  A    between atoms: N_2  and  S_1 
REMARK    2  A    between atoms: N_3  and  S_1 
REMARK    3  A    between atoms: C_8  and  N_3 
REMARK    4  A    between atoms: C_7  and  C_6 
ROOT
ATOM      1  N   UNL d   1      52.617  32.431  53.581  0.00  0.00    -0.144 NA
ENDROOT
BRANCH   1   2
ATOM      2  S   UNL d   1      52.098  32.960  53.220  0.00  0.00     0.351 S 
ATOM      3  O   UNL d   1      52.388  32.834  52.460  0.00  0.00    -0.180 OA
ATOM      4  O   UNL d   1      51.809  33.085  53.980  0.00  0.00    -0.180 OA
BRANCH   2   5
ATOM      5  N   UNL d   1      51.553  33.501  52.923  0.00  0.00    -0.215 N 
ATOM      6  C   UNL d   1      50.810  33.577  53.286  0.00  0.00     0.093 C 
ATOM      7  C   UNL d   1      50.273  34.114  52.988  0.00  0.00     0.020 C 
ATOM      8  C   UNL d   1      50.411  34.497  52.280  0.00  0.00     0.003 C 
ATOM      9  C   UNL d   1      51.102  34.338  51.861  0.00  0.00     0.020 C 
ATOM     10  C   UNL d   1      51.655  33.796  52.151  0.00  0.00     0.093 C 
ENDBRANCH   2   5
ENDBRANCH   1   2
BRANCH   1  11
ATOM     11  C   UNL d   1      53.416  32.652  53.724  0.00  0.00     0.095 A 
ATOM     12  C   UNL d   1      53.616  33.055  54.424  0.00  0.00     0.023 A 
ATOM     13  C   UNL d   1      54.405  33.262  54.570  0.00  0.00     0.041 A 
ATOM     14  C   UNL d   1      54.993  33.070  54.012  0.00  0.00     0.003 A 
ATOM     15  C   UNL d   1      54.806  32.664  53.306  0.00  0.00     0.002 A 
ATOM     16  C   UNL d   1      54.005  32.452  53.166  0.00  0.00     0.020 A 
BRANCH  13  17
ATOM     17  C   UNL d   1      54.588  33.783  55.186  0.00  0.00     0.196 C 
ATOM     18  O   UNL d   1      54.576  34.595  55.050  0.00  0.00    -0.287 OA
ATOM     19  C   UNL d   1      54.782  33.487  55.932  0.00  0.00     0.045 C 
ENDBRANCH  13  17
ENDBRANCH   1  11
TORSDOF 4
ENDMDL
MODEL 3
REMARK VINA RESULT:      -8.6      1.053      4.051
REMARK  4 active torsions:
REMARK  status: ('A' for Active; 'I' for Inactive)
REMARK    1  A    between atoms: N_2  and  S_1 
REMARK    2  A    between atoms: N_3  and  S_1 
REMARK    3  A    between atoms: C_8  and  N_3 
REMARK    4  A    between atoms: C_7  and  C_6 
ROOT
ATOM      1  N   UNL d   1      54.125  31.927  53.645  0.00  0.00    -0.144 NA
ENDROOT
BRANCH   1   2
ATOM      2  S   UNL d   1      53.801  32.646  53.882  0.00  0.00     0.351 S 
ATOM      3  O   UNL d   1      53.710  32.425  54.670  0.00  0.00    -0.180 OA
ATOM      4  O   UNL d   1      53.892  32.867  53.095  0.00  0.00    -0.180 OA
BRANCH   2   5
ATOM      5  N   UNL d   1      53.483  33.386  54.054  0.00  0.00    -0.215 N 
ATOM      6  C   UNL d   1      53.207  33.867  53.436  0.00  0.00     0.093 C 
ATOM      7  C   UNL d   1      52.893  34.600  53.610  0.00  0.00     0.020 C 
ATOM      8  C   UNL d   1      52.946  34.912  54.363  0.00  0.00     0.003 C 
ATOM      9  C   UNL d   1      53.321  34.479  54.955  0.00  0.00     0.020 C 
ATOM     10  C   UNL d   1      53.643  33.735  54.793  0.00  0.00     0.093 C 
ENDBRANCH   2   5
ENDBRANCH   1   2
BRANCH   1  11
ATOM     11  C   UNL d   1      53.632  31.254  53.538  0.00  0.00     0.095 A 
ATOM     12  C   UNL d   1      53.660  30.627  54.085  0.00  0.00     0.023 A 
ATOM     13  C   UNL d   1      53.165  29.971  53.986  0.00  0.00     0.041 A 
ATOM     14  C   UNL d   1      52.647  29.938  53.335  0.00  0.00     0.003 A 
ATOM     15  C   UNL d   1      52.607  30.561  52.779  0.00  0.00     0.002 A 
ATOM     16  C   UNL d   1      53.107  31.227  52.888  0.00  0.00     0.020 A 
BRANCH  13  17
ATOM     17  C   UNL d   1      53.290  29.288  54.437  0.00  0.00     0.196 C 
ATOM     18  O   UNL d   1      52.891  29.194  55.151  0.00  0.00    -0.287 OA
ATOM     19  C   UNL d   1      53.812  28.708  54.170  0.00  0.00     0.045 C 
ENDBRANCH  13  17
ENDBRANCH   1  11
TORSDOF 4
ENDMDL
MODEL 4
REMARK VINA RESULT:      -8.3      1.771      3.720
REMARK  4 active torsions:
REMARK  status: ('A' for Active; 'I' for Inactive)
REMARK    1  A    between atoms: N_2  and  S_1 
REMARK    2  A    between atoms: N_3  and  S_1 
REMARK    3  A    between atoms: C_8  and  N_3 
REMARK    4  A    between atoms: C_7  and  C_6 
ROOT
ATOM      1  N   UNL d   1      53.052  33.482  52.980  0.00  0.00    -0.144 NA
ENDROOT
BRANCH   1   2
ATOM      2  S   UNL d   1      52.264  33.719  52.939  0.00  0.00     0.351 S 
ATOM      3  O   UNL d   1      52.197  33.882  53.743  0.00  0.00    -0.180 OA
ATOM      4  O   UNL d   1      52.332  33.556  52.135  0.00  0.00    -0.180 OA
BRANCH   2   5
ATOM      5  N   UNL d   1      51.479  33.942  52.828  0.00  0.00    -0.215 N 
ATOM      6  C   UNL d   1      51.175  34.002  52.058  0.00  0.00     0.093 C 
ATOM      7  C   UNL d   1      50.397  34.224  51.952  0.00  0.00     0.020 C 
ATOM      8  C   UNL d   1      49.947  34.491  52.580  0.00  0.00     0.003 C 
ATOM      9  C   UNL d   1      50.285  34.537  53.330  0.00  0.00     0.020 C 
ATOM     10  C   UNL d   1      51.073  34.315  53.451  0.00  0.00     0.093 C 
ENDBRANCH   2   5
ENDBRANCH   1   2
BRANCH   1  11
ATOM     11  C   UNL d   1      53.261  32.769  53.375  0.00  0.00     0.095 A 
ATOM     12  C   UNL d   1      53.134  32.036  53.003  0.00  0.00     0.023 A 
ATOM     13  C   UNL d   1      53.351  31.335  53.387  0.00  0.00     0.041 A 
ATOM     14  C   UNL d   1      53.688  31.367  54.147  0.00  0.00     0.003 A 
ATOM     15  C   UNL d   1      53.822  32.097  54.532  0.00  0.00     0.002 A 
ATOM     16  C   UNL d   1      53.606  32.804  54.135  0.00  0.00     0.020 A 
BRANCH  13  17
ATOM     17  C   UNL d   1      53.098  30.605  53.088  0.00  0.00     0.196 C 
ATOM     18  O   UNL d   1      52.989  30.513  52.278  0.00  0.00    -0.287 OA
ATOM     19  C   UNL d   1      52.957  29.977  53.604  0.00  0.00     0.045 C 
ENDBRANCH  13  17
ENDBRANCH   1  11
TORSDOF 4
ENDMDL
