MODEL 1
REMARK VINA RESULT:      50.0      0.000      0.000
REMARK  5 active torsions:
REMARK  status: ('A' for Active; 'I' for Inactive)
REMARK    1  A    between atoms: N_6  and  C_1 
REMARK    2  A    between atoms: S_2  and  C_11 
REMARK    3  A    between atoms: N_8  and  S_2 
REMARK    4  A    between atoms: C_10  and  C_3 
REMARK       I    between atoms: C_9  and  N_6 
REMARK    5  A    between atoms: C_14  and  C_9 
REMARK       I    between atoms: N_22  and  C_10 
ROOT
ATOM      1  C   UNL d   1     -55.108-102.034 -39.058  0.00  0.00     0.104 A 
ATOM      2  C   UNL d   1     -55.096-102.079 -40.715  0.00  0.00     0.058 A 
ATOM      3  C   UNL d   1     -55.016-101.339 -39.487  0.00  0.00     0.013 A 
ATOM      4  C   UNL d   1     -55.196-102.761 -39.456  0.00  0.00     0.013 A 
ATOM      5  C   UNL d   1     -55.009-101.360 -40.316  0.00  0.00     0.005 A 
ATOM      6  C   UNL d   1     -55.190-102.782 -40.281  0.00  0.00     0.005 A 
ENDROOT
BRANCH   2   7
ATOM      7  C   UNL d   1     -55.090-102.099 -41.539  0.00  0.00     0.280 C 
ATOM      8  N   UNL d   1     -54.778-101.273 -41.922  0.00  0.00    -0.201 NA
ATOM      9  O   UNL d   1     -55.308-102.700 -41.780  0.00  0.00    -0.265 OA
BRANCH   8  10
ATOM     10  C   UNL d   1     -54.788-101.332 -42.657  0.00  0.00     0.119 A 
ATOM     11  C   UNL d   1     -54.823-100.954 -43.334  0.00  0.00     0.082 A 
ATOM     12  C   UNL d   1     -54.800-101.487 -43.918  0.00  0.00     0.013 A 
ATOM     13  C   UNL d   1     -54.818-101.416 -44.706  0.00  0.00     0.001 A 
ATOM     14  C   UNL d   1     -54.749-102.204 -43.586  0.00  0.00     0.031 A 
ATOM     15  C   UNL d   1     -54.786-102.061 -45.158  0.00  0.00     0.001 A 
ATOM     16  C   UNL d   1     -54.736-102.773 -44.829  0.00  0.00     0.006 A 
ATOM     17  S   UNL d   1     -54.742-102.108 -42.807  0.00  0.00    -0.068 SA
BRANCH  11  18
ATOM     18  C   UNL d   1     -54.874-100.172 -43.426  0.00  0.00     0.281 C 
ATOM     19  O   UNL d   1     -54.861 -99.700 -42.790  0.00  0.00    -0.265 OA
ATOM     20  N   UNL d   1     -54.937 -99.859 -44.149  0.00  0.00    -0.205 NA
ATOM     21  C   UNL d   1     -54.990 -99.041 -44.241  0.00  0.00     0.123 C 
ENDBRANCH  11  18
ENDBRANCH   8  10
ENDBRANCH   2   7
BRANCH   1  22
ATOM     22  S   UNL d   1     -55.114-102.013 -38.229  0.00  0.00     0.272 S 
ATOM     23  O   UNL d   1     -55.281-102.821 -38.210  0.00  0.00    -0.200 OA
ATOM     24  O   UNL d   1     -54.947-101.202 -38.248  0.00  0.00    -0.200 OA
BRANCH  22  25
ATOM     25  N   UNL d   1     -55.121-101.993 -37.405  0.00  0.00    -0.225 N 
ATOM     26  C   UNL d   1     -55.536-102.561 -36.976  0.00  0.00     0.118 A 
ATOM     27  C   UNL d   1     -55.542-102.540 -36.143  0.00  0.00     0.142 A 
ATOM     28  O   UNL d   1     -55.128-101.945 -35.743  0.00  0.00    -0.300 OA
ATOM     29  C   UNL d   1     -54.717-101.383 -36.171  0.00  0.00     0.142 A 
ATOM     30  C   UNL d   1     -54.711-101.403 -36.995  0.00  0.00     0.118 A 
ENDBRANCH  22  25
ENDBRANCH   1  22
TORSDOF 5
ENDMDL
