MODEL 1
REMARK VINA RESULT:      44.6      0.000      0.000
REMARK  7 active torsions:
REMARK  status: ('A' for Active; 'I' for Inactive)
REMARK    1  A    between atoms: C_21  and  C_3 
REMARK    2  A    between atoms: S_17  and  C_5 
REMARK    3  A    between atoms: C_11  and  C_16 
REMARK       I    between atoms: N_14  and  C_11 
REMARK    4  A    between atoms: C_19  and  N_14 
REMARK    5  A    between atoms: C_16  and  C_20 
REMARK    6  A    between atoms: C_20  and  S_17 
REMARK    7  A    between atoms: O_27  and  C_22 
ROOT
ATOM      1  C   UNL d   1      46.386 -18.991  41.823  0.00  0.00     0.092 A 
ATOM      2  C   UNL d   1      46.217 -18.446  43.135  0.00  0.00     0.057 A 
ATOM      3  C   UNL d   1      46.346 -19.092  42.644  0.00  0.00     0.016 A 
ATOM      4  N   UNL d   1      46.166 -17.589  41.995  0.00  0.00    -0.239 NA
ATOM      5  C   UNL d   1      46.296 -18.239  41.498  0.00  0.00     0.120 A 
ATOM      6  C   UNL d   1      46.127 -17.693  42.810  0.00  0.00     0.081 A 
ATOM      7  C   UNL d   1      46.178 -18.550  43.949  0.00  0.00     0.193 A 
ATOM      8  C   UNL d   1      46.515 -19.644  41.330  0.00  0.00     0.103 C 
ATOM      9  N   UNL d   1      46.647 -20.305  40.838  0.00  0.00    -0.191 NA
ATOM     10  C   UNL d   1      45.959 -17.150  44.118  0.00  0.00     0.042 A 
ATOM     11  C   UNL d   1      46.049 -17.902  44.442  0.00  0.00     0.019 A 
ATOM     12  C   UNL d   1      45.998 -17.046  43.300  0.00  0.00    -0.003 A 
ATOM     13  O   UNL d   1      46.268 -19.302  44.273  0.00  0.00    -0.287 OA
ATOM     14  C   UNL d   1      45.840 -16.328  44.070  0.00  0.00     0.009 C 
ATOM     15  C   UNL d   1      45.918 -17.244  44.937  0.00  0.00     0.009 C 
ENDROOT
BRANCH   3  16
ATOM     16  C   UNL d   1      46.436 -19.844  42.968  0.00  0.00     0.001 C 
ATOM     17  C   UNL d   1      45.775 -20.310  43.119  0.00  0.00     0.000 C 
ENDBRANCH   3  16
BRANCH   5  18
ATOM     18  S   UNL d   1      46.335 -18.136  40.680  0.00  0.00    -0.067 SA
BRANCH  18  19
ATOM     19  C   UNL d   1      45.652 -17.953  40.257  0.00  0.00     0.042 C 
BRANCH  19  20
ATOM     20  C   UNL d   1      45.688 -17.859  39.434  0.00  0.00     0.070 C 
BRANCH  20  21
ATOM     21  C   UNL d   1      45.128 -17.377  39.052  0.00  0.00     0.280 C 
ATOM     22  N   UNL d   1      45.355 -16.933  38.389  0.00  0.00    -0.208 NA
ATOM     23  O   UNL d   1      44.353 -17.338  39.328  0.00  0.00    -0.265 OA
BRANCH  22  24
ATOM     24  C   UNL d   1      44.796 -16.450  38.007  0.00  0.00     0.085 A 
ATOM     25  C   UNL d   1      44.875 -16.275  37.206  0.00  0.00     0.021 A 
ATOM     26  C   UNL d   1      44.319 -15.798  36.835  0.00  0.00     0.026 A 
ATOM     27  C   UNL d   1      43.677 -15.488  37.255  0.00  0.00     0.094 A 
ATOM     28  C   UNL d   1      43.598 -15.663  38.055  0.00  0.00     0.026 A 
ATOM     29  C   UNL d   1      44.157 -16.145  38.438  0.00  0.00     0.021 A 
BRANCH  27  30
ATOM     30  O   UNL d   1      43.110 -15.001  36.872  0.00  0.00    -0.328 OA
ATOM     31  C   UNL d   1      42.310 -15.221  36.871  0.00  0.00     0.181 C 
ENDBRANCH  27  30
ENDBRANCH  22  24
ENDBRANCH  20  21
ENDBRANCH  19  20
ENDBRANCH  18  19
ENDBRANCH   5  18
TORSDOF 7
ENDMDL
