MODEL 1
REMARK VINA RESULT:      -5.6      0.000      0.000
REMARK  2 active torsions:
REMARK  status: ('A' for Active; 'I' for Inactive)
REMARK    1  A    between atoms: C_4  and  S_1 
REMARK    2  A    between atoms: C_6  and  C_4 
ROOT
ATOM      1  C   UNL d   1     -47.502  12.666  23.329  0.00  0.00     0.013 A 
ATOM      2  C   UNL d   1     -48.234  12.778  22.962  0.00  0.00     0.001 A 
ATOM      3  C   UNL d   1     -47.324  11.957  23.693  0.00  0.00     0.001 A 
ATOM      4  C   UNL d   1     -47.874  11.349  23.698  0.00  0.00     0.000 A 
ATOM      5  C   UNL d   1     -48.789  12.170  22.965  0.00  0.00     0.000 A 
ATOM      6  C   UNL d   1     -48.613  11.452  23.333  0.00  0.00     0.000 A 
ENDROOT
BRANCH   1   7
ATOM      7  C   UNL d   1     -46.948  13.279  23.324  0.00  0.00     0.119 C 
BRANCH   7   8
ATOM      8  S   UNL d   1     -46.350  13.292  22.754  0.00  0.00     0.303 S 
ATOM      9  O   UNL d   1     -45.810  12.887  23.331  0.00  0.00    -0.197 OA
ATOM     10  O   UNL d   1     -46.852  13.706  22.121  0.00  0.00    -0.197 OA
ATOM     11  N   UNL d   1     -45.768  13.295  22.224  0.00  0.00    -0.043 N 
ENDBRANCH   7   8
ENDBRANCH   1   7
TORSDOF 2
ENDMDL
MODEL 2
REMARK VINA RESULT:      -5.6      2.265      2.748
REMARK  2 active torsions:
REMARK  status: ('A' for Active; 'I' for Inactive)
REMARK    1  A    between atoms: C_4  and  S_1 
REMARK    2  A    between atoms: C_6  and  C_4 
ROOT
ATOM      1  C   UNL d   1     -47.835  13.892  22.656  0.00  0.00     0.013 A 
ATOM      2  C   UNL d   1     -47.853  13.109  22.921  0.00  0.00     0.001 A 
ATOM      3  C   UNL d   1     -47.148  14.331  22.705  0.00  0.00     0.001 A 
ATOM      4  C   UNL d   1     -46.469  13.996  23.019  0.00  0.00     0.000 A 
ATOM      5  C   UNL d   1     -47.173  12.770  23.237  0.00  0.00     0.000 A 
ATOM      6  C   UNL d   1     -46.477  13.210  23.289  0.00  0.00     0.000 A 
ENDROOT
BRANCH   1   7
ATOM      7  C   UNL d   1     -48.520  14.228  22.340  0.00  0.00     0.119 C 
BRANCH   7   8
ATOM      8  S   UNL d   1     -48.925  14.813  22.758  0.00  0.00     0.303 S 
ATOM      9  O   UNL d   1     -48.519  15.430  22.266  0.00  0.00    -0.197 OA
ATOM     10  O   UNL d   1     -49.373  14.232  23.294  0.00  0.00    -0.197 OA
ATOM     11  N   UNL d   1     -49.304  15.384  23.147  0.00  0.00    -0.043 N 
ENDBRANCH   7   8
ENDBRANCH   1   7
TORSDOF 2
ENDMDL
MODEL 3
REMARK VINA RESULT:      -5.5      2.329      2.631
REMARK  2 active torsions:
REMARK  status: ('A' for Active; 'I' for Inactive)
REMARK    1  A    between atoms: C_4  and  S_1 
REMARK    2  A    between atoms: C_6  and  C_4 
ROOT
ATOM      1  C   UNL d   1     -47.999  12.189  22.909  0.00  0.00     0.013 A 
ATOM      2  C   UNL d   1     -47.753  12.892  22.548  0.00  0.00     0.001 A 
ATOM      3  C   UNL d   1     -47.535  11.832  23.480  0.00  0.00     0.001 A 
ATOM      4  C   UNL d   1     -46.821  12.169  23.698  0.00  0.00     0.000 A 
ATOM      5  C   UNL d   1     -47.036  13.232  22.765  0.00  0.00     0.000 A 
ATOM      6  C   UNL d   1     -46.565  12.874  23.341  0.00  0.00     0.000 A 
ENDROOT
BRANCH   1   7
ATOM      7  C   UNL d   1     -48.719  11.851  22.689  0.00  0.00     0.119 C 
BRANCH   7   8
ATOM      8  S   UNL d   1     -49.366  11.882  23.202  0.00  0.00     0.303 S 
ATOM      9  O   UNL d   1     -49.176  11.058  23.471  0.00  0.00    -0.197 OA
ATOM     10  O   UNL d   1     -49.611  12.725  22.969  0.00  0.00    -0.197 OA
ATOM     11  N   UNL d   1     -49.978  11.894  23.697  0.00  0.00    -0.043 N 
ENDBRANCH   7   8
ENDBRANCH   1   7
TORSDOF 2
ENDMDL
MODEL 4
REMARK VINA RESULT:      -5.5      1.851      2.307
REMARK  2 active torsions:
REMARK  status: ('A' for Active; 'I' for Inactive)
REMARK    1  A    between atoms: C_4  and  S_1 
REMARK    2  A    between atoms: C_6  and  C_4 
ROOT
ATOM      1  C   UNL d   1     -48.838  12.425  22.761  0.00  0.00     0.013 A 
ATOM      2  C   UNL d   1     -49.599  12.171  22.560  0.00  0.00     0.001 A 
ATOM      3  C   UNL d   1     -48.394  12.862  22.233  0.00  0.00     0.001 A 
ATOM      4  C   UNL d   1     -48.701  13.053  21.498  0.00  0.00     0.000 A 
ATOM      5  C   UNL d   1     -49.911  12.362  21.823  0.00  0.00     0.000 A 
ATOM      6  C   UNL d   1     -49.465  12.803  21.286  0.00  0.00     0.000 A 
ENDROOT
BRANCH   1   7
ATOM      7  C   UNL d   1     -48.530  12.232  23.502  0.00  0.00     0.119 C 
BRANCH   7   8
ATOM      8  S   UNL d   1     -47.891  11.712  23.562  0.00  0.00     0.303 S 
ATOM      9  O   UNL d   1     -47.346  12.408  23.640  0.00  0.00    -0.197 OA
ATOM     10  O   UNL d   1     -48.395  10.959  23.488  0.00  0.00    -0.197 OA
ATOM     11  N   UNL d   1     -47.271  11.230  23.621  0.00  0.00    -0.043 N 
ENDBRANCH   7   8
ENDBRANCH   1   7
TORSDOF 2
ENDMDL
