MODEL 1
REMARK VINA RESULT:      -7.9      0.000      0.000
REMARK  8 active torsions:
REMARK  status: ('A' for Active; 'I' for Inactive)
REMARK    1  A    between atoms: C_3  and  N_1 
REMARK    2  A    between atoms: C_6  and  N_2 
REMARK    3  A    between atoms: C_4  and  C_3 
REMARK    4  A    between atoms: C_7  and  C_3 
REMARK       I    between atoms: C_5  and  N_8 
REMARK    5  A    between atoms: O_18  and  C_5 
REMARK    6  A    between atoms: N_8  and  C_7 
REMARK    7  A    between atoms: C_21  and  O_18 
REMARK    8  A    between atoms: C_22  and  C_21 
ROOT
ATOM      1  C   UNL d   1      52.011  33.999  53.045  0.00  0.00     0.107 C 
ENDROOT
BRANCH   1   2
ATOM      2  N   UNL d   1      52.239  33.202  53.116  0.00  0.00    -0.298 N 
ATOM      3  C   UNL d   1      51.772  32.686  53.559  0.00  0.00     0.100 A 
ATOM      4  C   UNL d   1      51.989  31.894  53.637  0.00  0.00     0.100 A 
ATOM      5  N   UNL d   1      52.674  31.617  53.271  0.00  0.00    -0.299 N 
ATOM      6  C   UNL d   1      53.139  32.134  52.829  0.00  0.00     0.100 A 
ATOM      7  C   UNL d   1      52.925  32.925  52.750  0.00  0.00     0.100 A 
BRANCH   5   8
ATOM      8  C   UNL d   1      52.889  30.830  53.348  0.00  0.00     0.092 A 
ATOM      9  C   UNL d   1      53.409  30.597  53.942  0.00  0.00     0.156 A 
ATOM     10  F   UNL d   1      53.715  31.160  54.462  0.00  0.00    -0.203 F 
ATOM     11  C   UNL d   1      53.626  29.807  54.022  0.00  0.00     0.031 A 
ATOM     12  C   UNL d   1      53.320  29.244  53.502  0.00  0.00     0.002 A 
ATOM     13  C   UNL d   1      52.796  29.477  52.903  0.00  0.00     0.002 A 
ATOM     14  C   UNL d   1      52.583  30.268  52.828  0.00  0.00     0.020 A 
ENDBRANCH   5   8
ENDBRANCH   1   2
BRANCH   1  15
ATOM     15  C   UNL d   1      52.401  34.587  53.473  0.00  0.00     0.118 A 
ATOM     16  O   UNL d   1      52.955  35.071  53.106  0.00  0.00    -0.304 OA
ATOM     17  C   UNL d   1      53.248  35.601  53.672  0.00  0.00     0.123 A 
ATOM     18  C   UNL d   1      52.877  35.442  54.380  0.00  0.00     0.029 A 
ATOM     19  C   UNL d   1      52.356  34.821  54.264  0.00  0.00     0.028 A 
ENDBRANCH   1  15
BRANCH   1  20
ATOM     20  C   UNL d   1      51.383  34.203  52.537  0.00  0.00     0.124 C 
BRANCH  20  21
ATOM     21  N   UNL d   1      50.673  34.482  52.850  0.00  0.00    -0.183 NA
ATOM     22  C   UNL d   1      50.028  34.615  52.356  0.00  0.00     0.392 C 
ATOM     23  O   UNL d   1      50.085  34.472  51.552  0.00  0.00    -0.236 OA
BRANCH  22  24
ATOM     24  O   UNL d   1      49.320  34.895  52.674  0.00  0.00    -0.256 OA
BRANCH  24  25
ATOM     25  C   UNL d   1      48.802  35.331  52.209  0.00  0.00     0.128 C 
BRANCH  25  26
ATOM     26  C   UNL d   1      48.155  35.710  52.553  0.00  0.00     0.025 A 
ATOM     27  C   UNL d   1      47.471  35.840  52.110  0.00  0.00     0.002 A 
ATOM     28  C   UNL d   1      46.824  36.219  52.454  0.00  0.00     0.000 A 
ATOM     29  C   UNL d   1      46.861  36.468  53.240  0.00  0.00     0.000 A 
ATOM     30  C   UNL d   1      47.541  36.337  53.675  0.00  0.00     0.000 A 
ATOM     31  C   UNL d   1      48.193  35.959  53.339  0.00  0.00     0.002 A 
ENDBRANCH  25  26
ENDBRANCH  24  25
ENDBRANCH  22  24
ENDBRANCH  20  21
ENDBRANCH   1  20
TORSDOF 8
ENDMDL
MODEL 2
REMARK VINA RESULT:      -7.7      1.769      5.786
REMARK  8 active torsions:
REMARK  status: ('A' for Active; 'I' for Inactive)
REMARK    1  A    between atoms: C_3  and  N_1 
REMARK    2  A    between atoms: C_6  and  N_2 
REMARK    3  A    between atoms: C_4  and  C_3 
REMARK    4  A    between atoms: C_7  and  C_3 
REMARK       I    between atoms: C_5  and  N_8 
REMARK    5  A    between atoms: O_18  and  C_5 
REMARK    6  A    between atoms: N_8  and  C_7 
REMARK    7  A    between atoms: C_21  and  O_18 
REMARK    8  A    between atoms: C_22  and  C_21 
ROOT
ATOM      1  C   UNL d   1      52.151  33.616  53.058  0.00  0.00     0.107 C 
ENDROOT
BRANCH   1   2
ATOM      2  N   UNL d   1      51.412  33.890  52.791  0.00  0.00    -0.298 N 
ATOM      3  C   UNL d   1      51.363  34.274  52.062  0.00  0.00     0.100 A 
ATOM      4  C   UNL d   1      50.636  34.550  51.787  0.00  0.00     0.100 A 
ATOM      5  N   UNL d   1      49.956  34.443  52.242  0.00  0.00    -0.299 N 
ATOM      6  C   UNL d   1      50.008  34.060  52.969  0.00  0.00     0.100 A 
ATOM      7  C   UNL d   1      50.732  33.783  53.246  0.00  0.00     0.100 A 
BRANCH   5   8
ATOM      8  C   UNL d   1      49.235  34.718  51.969  0.00  0.00     0.092 A 
ATOM      9  C   UNL d   1      48.795  35.250  52.417  0.00  0.00     0.156 A 
ATOM     10  F   UNL d   1      49.083  35.507  53.146  0.00  0.00    -0.203 F 
ATOM     11  C   UNL d   1      48.069  35.527  52.145  0.00  0.00     0.031 A 
ATOM     12  C   UNL d   1      47.780  35.270  51.416  0.00  0.00     0.002 A 
ATOM     13  C   UNL d   1      48.222  34.734  50.963  0.00  0.00     0.002 A 
ATOM     14  C   UNL d   1      48.946  34.460  51.241  0.00  0.00     0.020 A 
ENDBRANCH   5   8
ENDBRANCH   1   2
BRANCH   1  15
ATOM     15  C   UNL d   1      52.584  34.049  53.610  0.00  0.00     0.118 A 
ATOM     16  O   UNL d   1      53.157  34.585  53.363  0.00  0.00    -0.304 OA
ATOM     17  C   UNL d   1      53.494  34.931  54.037  0.00  0.00     0.123 A 
ATOM     18  C   UNL d   1      53.130  34.609  54.692  0.00  0.00     0.029 A 
ATOM     19  C   UNL d   1      52.571  34.068  54.436  0.00  0.00     0.028 A 
ENDBRANCH   1  15
BRANCH   1  20
ATOM     20  C   UNL d   1      52.453  32.898  52.763  0.00  0.00     0.124 C 
BRANCH  20  21
ATOM     21  N   UNL d   1      52.423  32.216  53.228  0.00  0.00    -0.183 NA
ATOM     22  C   UNL d   1      52.713  31.504  52.934  0.00  0.00     0.392 C 
ATOM     23  O   UNL d   1      53.034  31.466  52.181  0.00  0.00    -0.236 OA
BRANCH  22  24
ATOM     24  O   UNL d   1      52.681  30.825  53.402  0.00  0.00    -0.256 OA
BRANCH  24  25
ATOM     25  C   UNL d   1      53.363  30.391  53.546  0.00  0.00     0.128 C 
BRANCH  25  26
ATOM     26  C   UNL d   1      53.353  29.773  54.094  0.00  0.00     0.025 A 
ATOM     27  C   UNL d   1      53.444  28.994  53.837  0.00  0.00     0.002 A 
ATOM     28  C   UNL d   1      53.434  28.377  54.384  0.00  0.00     0.000 A 
ATOM     29  C   UNL d   1      53.333  28.538  55.188  0.00  0.00     0.000 A 
ATOM     30  C   UNL d   1      53.243  29.312  55.437  0.00  0.00     0.000 A 
ATOM     31  C   UNL d   1      53.252  29.935  54.896  0.00  0.00     0.002 A 
ENDBRANCH  25  26
ENDBRANCH  24  25
ENDBRANCH  22  24
ENDBRANCH  20  21
ENDBRANCH   1  20
TORSDOF 8
ENDMDL
MODEL 3
REMARK VINA RESULT:      -6.5      1.485      2.213
REMARK  8 active torsions:
REMARK  status: ('A' for Active; 'I' for Inactive)
REMARK    1  A    between atoms: C_3  and  N_1 
REMARK    2  A    between atoms: C_6  and  N_2 
REMARK    3  A    between atoms: C_4  and  C_3 
REMARK    4  A    between atoms: C_7  and  C_3 
REMARK       I    between atoms: C_5  and  N_8 
REMARK    5  A    between atoms: O_18  and  C_5 
REMARK    6  A    between atoms: N_8  and  C_7 
REMARK    7  A    between atoms: C_21  and  O_18 
REMARK    8  A    between atoms: C_22  and  C_21 
ROOT
ATOM      1  C   UNL d   1      53.940  33.278  53.973  0.00  0.00     0.107 C 
ENDROOT
BRANCH   1   2
ATOM      2  N   UNL d   1      53.780  32.461  53.951  0.00  0.00    -0.298 N 
ATOM      3  C   UNL d   1      53.332  32.121  54.554  0.00  0.00     0.100 A 
ATOM      4  C   UNL d   1      53.167  31.313  54.543  0.00  0.00     0.100 A 
ATOM      5  N   UNL d   1      53.451  30.844  53.926  0.00  0.00    -0.299 N 
ATOM      6  C   UNL d   1      53.898  31.186  53.326  0.00  0.00     0.100 A 
ATOM      7  C   UNL d   1      54.064  31.992  53.334  0.00  0.00     0.100 A 
BRANCH   5   8
ATOM      8  C   UNL d   1      53.287  30.041  53.915  0.00  0.00     0.092 A 
ATOM      9  C   UNL d   1      52.761  29.731  53.363  0.00  0.00     0.156 A 
ATOM     10  F   UNL d   1      52.397  30.233  52.819  0.00  0.00    -0.203 F 
ATOM     11  C   UNL d   1      52.595  28.925  53.350  0.00  0.00     0.031 A 
ATOM     12  C   UNL d   1      52.959  28.424  53.895  0.00  0.00     0.002 A 
ATOM     13  C   UNL d   1      53.489  28.734  54.452  0.00  0.00     0.002 A 
ATOM     14  C   UNL d   1      53.651  29.540  54.460  0.00  0.00     0.020 A 
ENDBRANCH   5   8
ENDBRANCH   1   2
BRANCH   1  15
ATOM     15  C   UNL d   1      54.478  33.585  54.518  0.00  0.00     0.118 A 
ATOM     16  O   UNL d   1      55.264  33.703  54.306  0.00  0.00    -0.304 OA
ATOM     17  C   UNL d   1      55.663  34.013  54.964  0.00  0.00     0.123 A 
ATOM     18  C   UNL d   1      55.126  34.084  55.573  0.00  0.00     0.029 A 
ATOM     19  C   UNL d   1      54.397  33.823  55.306  0.00  0.00     0.028 A 
ENDBRANCH   1  15
BRANCH   1  20
ATOM     20  C   UNL d   1      53.552  33.787  53.440  0.00  0.00     0.124 C 
BRANCH  20  21
ATOM     21  N   UNL d   1      52.743  33.928  53.518  0.00  0.00    -0.183 NA
ATOM     22  C   UNL d   1      52.366  34.457  53.013  0.00  0.00     0.392 C 
ATOM     23  O   UNL d   1      52.788  34.846  52.430  0.00  0.00    -0.236 OA
BRANCH  22  24
ATOM     24  O   UNL d   1      51.556  34.594  53.095  0.00  0.00    -0.256 OA
BRANCH  24  25
ATOM     25  C   UNL d   1      51.021  34.217  52.599  0.00  0.00     0.128 C 
BRANCH  25  26
ATOM     26  C   UNL d   1      50.251  34.503  52.526  0.00  0.00     0.025 A 
ATOM     27  C   UNL d   1      49.841  34.406  51.816  0.00  0.00     0.002 A 
ATOM     28  C   UNL d   1      49.070  34.692  51.743  0.00  0.00     0.000 A 
ATOM     29  C   UNL d   1      48.710  35.075  52.380  0.00  0.00     0.000 A 
ATOM     30  C   UNL d   1      49.120  35.169  53.081  0.00  0.00     0.000 A 
ATOM     31  C   UNL d   1      49.891  34.885  53.162  0.00  0.00     0.002 A 
ENDBRANCH  25  26
ENDBRANCH  24  25
ENDBRANCH  22  24
ENDBRANCH  20  21
ENDBRANCH   1  20
TORSDOF 8
ENDMDL
MODEL 4
REMARK VINA RESULT:      -6.1      1.726      3.048
REMARK  8 active torsions:
REMARK  status: ('A' for Active; 'I' for Inactive)
REMARK    1  A    between atoms: C_3  and  N_1 
REMARK    2  A    between atoms: C_6  and  N_2 
REMARK    3  A    between atoms: C_4  and  C_3 
REMARK    4  A    between atoms: C_7  and  C_3 
REMARK       I    between atoms: C_5  and  N_8 
REMARK    5  A    between atoms: O_18  and  C_5 
REMARK    6  A    between atoms: N_8  and  C_7 
REMARK    7  A    between atoms: C_21  and  O_18 
REMARK    8  A    between atoms: C_22  and  C_21 
ROOT
ATOM      1  C   UNL d   1      49.893  34.746  52.669  0.00  0.00     0.107 C 
ENDROOT
BRANCH   1   2
ATOM      2  N   UNL d   1      50.598  34.378  52.914  0.00  0.00    -0.298 N 
ATOM      3  C   UNL d   1      51.319  34.756  52.776  0.00  0.00     0.100 A 
ATOM      4  C   UNL d   1      52.025  34.401  53.015  0.00  0.00     0.100 A 
ATOM      5  N   UNL d   1      52.010  33.667  53.392  0.00  0.00    -0.299 N 
ATOM      6  C   UNL d   1      51.289  33.293  53.528  0.00  0.00     0.100 A 
ATOM      7  C   UNL d   1      50.583  33.644  53.291  0.00  0.00     0.100 A 
BRANCH   5   8
ATOM      8  C   UNL d   1      52.710  33.316  53.629  0.00  0.00     0.092 A 
ATOM      9  C   UNL d   1      53.054  32.724  53.172  0.00  0.00     0.156 A 
ATOM     10  F   UNL d   1      52.690  32.484  52.471  0.00  0.00    -0.203 F 
ATOM     11  C   UNL d   1      53.759  32.369  53.407  0.00  0.00     0.031 A 
ATOM     12  C   UNL d   1      54.123  32.608  54.108  0.00  0.00     0.002 A 
ATOM     13  C   UNL d   1      53.778  33.205  54.570  0.00  0.00     0.002 A 
ATOM     14  C   UNL d   1      53.074  33.555  54.329  0.00  0.00     0.020 A 
ENDBRANCH   5   8
ENDBRANCH   1   2
BRANCH   1  15
ATOM     15  C   UNL d   1      49.516  34.507  51.975  0.00  0.00     0.118 A 
ATOM     16  O   UNL d   1      49.680  34.881  51.262  0.00  0.00    -0.304 OA
ATOM     17  C   UNL d   1      49.220  34.523  50.672  0.00  0.00     0.123 A 
ATOM     18  C   UNL d   1      48.778  33.934  51.022  0.00  0.00     0.029 A 
ATOM     19  C   UNL d   1      48.955  33.919  51.821  0.00  0.00     0.028 A 
ENDBRANCH   1  15
BRANCH   1  20
ATOM     20  C   UNL d   1      49.568  35.359  53.129  0.00  0.00     0.124 C 
BRANCH  20  21
ATOM     21  N   UNL d   1      48.821  35.268  53.468  0.00  0.00    -0.183 NA
ATOM     22  C   UNL d   1      48.466  35.900  53.859  0.00  0.00     0.392 C 
ATOM     23  O   UNL d   1      48.850  36.622  53.914  0.00  0.00    -0.236 OA
BRANCH  22  24
ATOM     24  O   UNL d   1      47.720  35.805  54.197  0.00  0.00    -0.256 OA
BRANCH  24  25
ATOM     25  C   UNL d   1      47.137  36.372  54.078  0.00  0.00     0.128 C 
BRANCH  25  26
ATOM     26  C   UNL d   1      46.375  36.250  54.370  0.00  0.00     0.025 A 
ATOM     27  C   UNL d   1      45.847  35.770  53.956  0.00  0.00     0.002 A 
ATOM     28  C   UNL d   1      45.085  35.649  54.247  0.00  0.00     0.000 A 
ATOM     29  C   UNL d   1      44.851  36.008  54.953  0.00  0.00     0.000 A 
ATOM     30  C   UNL d   1      45.378  36.484  55.359  0.00  0.00     0.000 A 
ATOM     31  C   UNL d   1      46.142  36.610  55.075  0.00  0.00     0.002 A 
ENDBRANCH  25  26
ENDBRANCH  24  25
ENDBRANCH  22  24
ENDBRANCH  20  21
ENDBRANCH   1  20
TORSDOF 8
ENDMDL
