MODEL 1
REMARK VINA RESULT:      -7.8      0.000      0.000
REMARK  5 active torsions:
REMARK  status: ('A' for Active; 'I' for Inactive)
REMARK    1  A    between atoms: C_6  and  C_1 
REMARK    2  A    between atoms: C_7  and  C_6 
REMARK    3  A    between atoms: C_11  and  C_19 
REMARK    4  A    between atoms: O_18  and  C_17 
REMARK    5  A    between atoms: C_19  and  O_18 
ROOT
ATOM      1  C   UNL d   1     -49.447  12.411  23.162  0.00  0.00     0.139 A 
ATOM      2  C   UNL d   1     -48.251  11.851  23.399  0.00  0.00     0.064 A 
ATOM      3  C   UNL d   1     -49.064  11.728  23.435  0.00  0.00     0.220 A 
ATOM      4  C   UNL d   1     -48.123  12.611  23.103  0.00  0.00     0.105 A 
ATOM      5  O   UNL d   1     -48.867  12.958  22.956  0.00  0.00    -0.304 OA
ATOM      6  C   UNL d   1     -47.357  12.895  23.003  0.00  0.00     0.049 A 
ATOM      7  C   UNL d   1     -47.614  11.374  23.595  0.00  0.00     0.007 A 
ATOM      8  O   UNL d   1     -49.438  11.043  23.698  0.00  0.00    -0.284 OA
ATOM      9  C   UNL d   1     -46.720  12.410  23.202  0.00  0.00     0.097 A 
ATOM     10  C   UNL d   1     -46.848  11.653  23.497  0.00  0.00     0.025 A 
ENDROOT
BRANCH   1  11
ATOM     11  C   UNL d   1     -50.264  12.526  23.105  0.00  0.00     0.034 C 
BRANCH  11  12
ATOM     12  C   UNL d   1     -50.567  13.117  22.618  0.00  0.00     0.032 A 
ATOM     13  S   UNL d   1     -50.793  13.872  22.850  0.00  0.00    -0.086 SA
ATOM     14  C   UNL d   1     -51.064  14.279  22.180  0.00  0.00     0.035 A 
ATOM     15  C   UNL d   1     -51.005  13.770  21.534  0.00  0.00     0.007 A 
ATOM     16  C   UNL d   1     -50.697  13.047  21.798  0.00  0.00     0.007 A 
ENDBRANCH  11  12
ENDBRANCH   1  11
BRANCH   9  17
ATOM     17  O   UNL d   1     -45.953  12.697  23.101  0.00  0.00    -0.319 OA
BRANCH  17  18
ATOM     18  C   UNL d   1     -45.700  12.916  22.344  0.00  0.00     0.246 C 
BRANCH  18  19
ATOM     19  C   UNL d   1     -44.915  13.134  22.227  0.00  0.00     0.217 C 
ATOM     20  O   UNL d   1     -44.708  13.933  22.169  0.00  0.00    -0.645 OA
ATOM     21  O   UNL d   1     -44.293  12.517  22.163  0.00  0.00    -0.645 OA
ENDBRANCH  18  19
ENDBRANCH  17  18
ENDBRANCH   9  17
TORSDOF 5
ENDMDL
MODEL 2
REMARK VINA RESULT:      -7.7      1.301      2.038
REMARK  5 active torsions:
REMARK  status: ('A' for Active; 'I' for Inactive)
REMARK    1  A    between atoms: C_6  and  C_1 
REMARK    2  A    between atoms: C_7  and  C_6 
REMARK    3  A    between atoms: C_11  and  C_19 
REMARK    4  A    between atoms: O_18  and  C_17 
REMARK    5  A    between atoms: C_19  and  O_18 
ROOT
ATOM      1  C   UNL d   1     -48.673  13.698  22.923  0.00  0.00     0.139 A 
ATOM      2  C   UNL d   1     -47.335  13.685  22.827  0.00  0.00     0.064 A 
ATOM      3  C   UNL d   1     -48.012  14.113  22.642  0.00  0.00     0.220 A 
ATOM      4  C   UNL d   1     -47.569  13.000  23.224  0.00  0.00     0.105 A 
ATOM      5  O   UNL d   1     -48.400  13.009  23.283  0.00  0.00    -0.304 OA
ATOM      6  C   UNL d   1     -47.008  12.456  23.481  0.00  0.00     0.049 A 
ATOM      7  C   UNL d   1     -46.539  13.827  22.686  0.00  0.00     0.007 A 
ATOM      8  O   UNL d   1     -48.035  14.835  22.245  0.00  0.00    -0.284 OA
ATOM      9  C   UNL d   1     -46.208  12.605  23.336  0.00  0.00     0.097 A 
ATOM     10  C   UNL d   1     -45.975  13.287  22.941  0.00  0.00     0.025 A 
ENDROOT
BRANCH   1  11
ATOM     11  C   UNL d   1     -49.464  13.930  22.856  0.00  0.00     0.034 C 
BRANCH  11  12
ATOM     12  C   UNL d   1     -50.068  13.382  22.974  0.00  0.00     0.032 A 
ATOM     13  S   UNL d   1     -50.474  13.248  23.676  0.00  0.00    -0.086 SA
ATOM     14  C   UNL d   1     -51.034  12.650  23.541  0.00  0.00     0.035 A 
ATOM     15  C   UNL d   1     -50.969  12.417  22.752  0.00  0.00     0.007 A 
ATOM     16  C   UNL d   1     -50.372  12.867  22.394  0.00  0.00     0.007 A 
ENDBRANCH  11  12
ENDBRANCH   1  11
BRANCH   9  17
ATOM     17  O   UNL d   1     -45.647  12.057  23.595  0.00  0.00    -0.319 OA
BRANCH  17  18
ATOM     18  C   UNL d   1     -45.321  11.526  23.052  0.00  0.00     0.246 C 
BRANCH  18  19
ATOM     19  C   UNL d   1     -44.795  10.950  23.316  0.00  0.00     0.217 C 
ATOM     20  O   UNL d   1     -45.075  10.271  23.696  0.00  0.00    -0.645 OA
ATOM     21  O   UNL d   1     -43.931  11.055  23.194  0.00  0.00    -0.645 OA
ENDBRANCH  18  19
ENDBRANCH  17  18
ENDBRANCH   9  17
TORSDOF 5
ENDMDL
MODEL 3
REMARK VINA RESULT:      -5.6      8.733     10.031
REMARK  5 active torsions:
REMARK  status: ('A' for Active; 'I' for Inactive)
REMARK    1  A    between atoms: C_6  and  C_1 
REMARK    2  A    between atoms: C_7  and  C_6 
REMARK    3  A    between atoms: C_11  and  C_19 
REMARK    4  A    between atoms: O_18  and  C_17 
REMARK    5  A    between atoms: C_19  and  O_18 
ROOT
ATOM      1  C   UNL d   1     -40.208  14.941  18.188  0.00  0.00     0.139 A 
ATOM      2  C   UNL d   1     -40.418  14.622  19.475  0.00  0.00     0.064 A 
ATOM      3  C   UNL d   1     -40.587  14.408  18.699  0.00  0.00     0.220 A 
ATOM      4  C   UNL d   1     -39.932  15.290  19.452  0.00  0.00     0.105 A 
ATOM      5  O   UNL d   1     -39.803  15.486  18.653  0.00  0.00    -0.304 OA
ATOM      6  C   UNL d   1     -39.667  15.636  20.151  0.00  0.00     0.049 A 
ATOM      7  C   UNL d   1     -40.640  14.300  20.196  0.00  0.00     0.007 A 
ATOM      8  O   UNL d   1     -41.055  13.772  18.464  0.00  0.00    -0.284 OA
ATOM      9  C   UNL d   1     -39.895  15.306  20.873  0.00  0.00     0.097 A 
ATOM     10  C   UNL d   1     -40.378  14.642  20.895  0.00  0.00     0.025 A 
ENDROOT
BRANCH   1  11
ATOM     11  C   UNL d   1     -40.231  14.929  17.361  0.00  0.00     0.034 C 
BRANCH  11  12
ATOM     12  C   UNL d   1     -39.569  15.150  16.925  0.00  0.00     0.032 A 
ATOM     13  S   UNL d   1     -39.432  15.885  16.586  0.00  0.00    -0.086 SA
ATOM     14  C   UNL d   1     -38.697  15.859  16.199  0.00  0.00     0.035 A 
ATOM     15  C   UNL d   1     -38.384  15.104  16.303  0.00  0.00     0.007 A 
ATOM     16  C   UNL d   1     -38.919  14.658  16.753  0.00  0.00     0.007 A 
ENDBRANCH  11  12
ENDBRANCH   1  11
BRANCH   9  17
ATOM     17  O   UNL d   1     -39.628  15.655  21.572  0.00  0.00    -0.319 OA
BRANCH  17  18
ATOM     18  C   UNL d   1     -39.091  15.245  22.049  0.00  0.00     0.246 C 
BRANCH  18  19
ATOM     19  C   UNL d   1     -38.717  15.638  22.668  0.00  0.00     0.217 C 
ATOM     20  O   UNL d   1     -37.946  15.922  22.577  0.00  0.00    -0.645 OA
ATOM     21  O   UNL d   1     -39.138  15.759  23.430  0.00  0.00    -0.645 OA
ENDBRANCH  18  19
ENDBRANCH  17  18
ENDBRANCH   9  17
TORSDOF 5
ENDMDL
MODEL 4
REMARK VINA RESULT:      -5.4      1.875      4.291
REMARK  5 active torsions:
REMARK  status: ('A' for Active; 'I' for Inactive)
REMARK    1  A    between atoms: C_6  and  C_1 
REMARK    2  A    between atoms: C_7  and  C_6 
REMARK    3  A    between atoms: C_11  and  C_19 
REMARK    4  A    between atoms: O_18  and  C_17 
REMARK    5  A    between atoms: C_19  and  O_18 
ROOT
ATOM      1  C   UNL d   1     -47.440  12.310  23.350  0.00  0.00     0.139 A 
ATOM      2  C   UNL d   1     -48.775  12.187  23.292  0.00  0.00     0.064 A 
ATOM      3  C   UNL d   1     -48.070  11.769  23.358  0.00  0.00     0.220 A 
ATOM      4  C   UNL d   1     -48.590  12.990  23.241  0.00  0.00     0.105 A 
ATOM      5  O   UNL d   1     -47.761  13.065  23.278  0.00  0.00    -0.304 OA
ATOM      6  C   UNL d   1     -49.188  13.551  23.169  0.00  0.00     0.049 A 
ATOM      7  C   UNL d   1     -49.558  11.944  23.270  0.00  0.00     0.007 A 
ATOM      8  O   UNL d   1     -47.996  10.951  23.423  0.00  0.00    -0.284 OA
ATOM      9  C   UNL d   1     -49.974  13.300  23.148  0.00  0.00     0.097 A 
ATOM     10  C   UNL d   1     -50.158  12.500  23.198  0.00  0.00     0.025 A 
ENDROOT
BRANCH   1  11
ATOM     11  C   UNL d   1     -46.636  12.127  23.405  0.00  0.00     0.034 C 
BRANCH  11  12
ATOM     12  C   UNL d   1     -46.084  12.549  22.963  0.00  0.00     0.032 A 
ATOM     13  S   UNL d   1     -45.525  12.231  22.450  0.00  0.00    -0.086 SA
ATOM     14  C   UNL d   1     -45.087  12.857  22.124  0.00  0.00     0.035 A 
ATOM     15  C   UNL d   1     -45.380  13.561  22.439  0.00  0.00     0.007 A 
ATOM     16  C   UNL d   1     -45.998  13.377  22.960  0.00  0.00     0.007 A 
ENDBRANCH  11  12
ENDBRANCH   1  11
BRANCH   9  17
ATOM     17  O   UNL d   1     -50.572  13.865  23.076  0.00  0.00    -0.319 OA
BRANCH  17  18
ATOM     18  C   UNL d   1     -50.416  14.648  23.292  0.00  0.00     0.246 C 
BRANCH  18  19
ATOM     19  C   UNL d   1     -50.842  15.257  22.939  0.00  0.00     0.217 C 
ATOM     20  O   UNL d   1     -51.062  15.922  23.379  0.00  0.00    -0.645 OA
ATOM     21  O   UNL d   1     -51.064  15.204  22.091  0.00  0.00    -0.645 OA
ENDBRANCH  18  19
ENDBRANCH  17  18
ENDBRANCH   9  17
TORSDOF 5
ENDMDL
MODEL 5
REMARK VINA RESULT:      -5.3      8.753     10.151
REMARK  5 active torsions:
REMARK  status: ('A' for Active; 'I' for Inactive)
REMARK    1  A    between atoms: C_6  and  C_1 
REMARK    2  A    between atoms: C_7  and  C_6 
REMARK    3  A    between atoms: C_11  and  C_19 
REMARK    4  A    between atoms: O_18  and  C_17 
REMARK    5  A    between atoms: C_19  and  O_18 
ROOT
ATOM      1  C   UNL d   1     -40.224  14.811  20.206  0.00  0.00     0.139 A 
ATOM      2  C   UNL d   1     -40.378  15.048  18.895  0.00  0.00     0.064 A 
ATOM      3  C   UNL d   1     -40.630  15.268  19.646  0.00  0.00     0.220 A 
ATOM      4  C   UNL d   1     -39.812  14.453  18.982  0.00  0.00     0.105 A 
ATOM      5  O   UNL d   1     -39.718  14.306  19.797  0.00  0.00    -0.304 OA
ATOM      6  C   UNL d   1     -39.455  14.118  18.320  0.00  0.00     0.049 A 
ATOM      7  C   UNL d   1     -40.586  15.310  18.146  0.00  0.00     0.007 A 
ATOM      8  O   UNL d   1     -41.192  15.846  19.818  0.00  0.00    -0.284 OA
ATOM      9  C   UNL d   1     -39.670  14.386  17.570  0.00  0.00     0.097 A 
ATOM     10  C   UNL d   1     -40.233  14.979  17.483  0.00  0.00     0.025 A 
ENDROOT
BRANCH   1  11
ATOM     11  C   UNL d   1     -40.308  14.851  21.028  0.00  0.00     0.034 C 
BRANCH  11  12
ATOM     12  C   UNL d   1     -39.691  14.619  21.521  0.00  0.00     0.032 A 
ATOM     13  S   UNL d   1     -39.090  15.101  21.807  0.00  0.00    -0.086 SA
ATOM     14  C   UNL d   1     -38.590  14.637  22.281  0.00  0.00     0.035 A 
ATOM     15  C   UNL d   1     -38.888  13.867  22.283  0.00  0.00     0.007 A 
ATOM     16  C   UNL d   1     -39.570  13.849  21.814  0.00  0.00     0.007 A 
ENDBRANCH  11  12
ENDBRANCH   1  11
BRANCH   9  17
ATOM     17  O   UNL d   1     -39.310  14.049  16.908  0.00  0.00    -0.319 OA
BRANCH  17  18
ATOM     18  C   UNL d   1     -38.574  14.333  16.659  0.00  0.00     0.246 C 
BRANCH  18  19
ATOM     19  C   UNL d   1     -38.240  14.039  15.967  0.00  0.00     0.217 C 
ATOM     20  O   UNL d   1     -38.100  13.229  15.881  0.00  0.00    -0.645 OA
ATOM     21  O   UNL d   1     -38.029  14.588  15.313  0.00  0.00    -0.645 OA
ENDBRANCH  18  19
ENDBRANCH  17  18
ENDBRANCH   9  17
TORSDOF 5
ENDMDL
