MODEL 1
REMARK VINA RESULT:      -2.1      0.000      0.000
REMARK  3 active torsions:
REMARK  status: ('A' for Active; 'I' for Inactive)
REMARK    1  A    between atoms: S_3  and  N_1 
REMARK    2  A    between atoms: C_5  and  C_4 
REMARK    3  A    between atoms: C_11  and  C_6 
ROOT
ATOM      1  N   UNL d   1      32.088  16.864 -23.759  0.00  0.00    -0.155 N 
ATOM      2  N   UNL d   1      31.518  16.303 -23.916  0.00  0.00    -0.153 NA
ATOM      3  C   UNL d   1      31.738  17.595 -23.773  0.00  0.00     0.098 A 
ATOM      4  C   UNL d   1      30.811  16.696 -24.028  0.00  0.00     0.126 A 
ATOM      5  C   UNL d   1      30.938  17.493 -23.942  0.00  0.00     0.043 A 
ENDROOT
BRANCH   3   6
ATOM      6  C   UNL d   1      32.113  18.318 -23.643  0.00  0.00     0.047 A 
ATOM      7  C   UNL d   1      32.484  18.709 -24.269  0.00  0.00     0.140 A 
ATOM      8  N   UNL d   1      32.860  19.434 -24.136  0.00  0.00    -0.234 NA
ATOM      9 CL   UNL d   1      32.478  18.378 -25.023  0.00  0.00    -0.061 Cl
ATOM     10  C   UNL d   1      32.866  19.766 -23.381  0.00  0.00     0.082 A 
ATOM     11  C   UNL d   1      32.495  19.374 -22.755  0.00  0.00     0.018 A 
ATOM     12  C   UNL d   1      33.241  20.489 -23.251  0.00  0.00     0.019 A 
ATOM     13  C   UNL d   1      32.120  18.651 -22.886  0.00  0.00     0.005 A 
ATOM     14  C   UNL d   1      32.501  19.706 -22.000  0.00  0.00     0.002 A 
ATOM     15  C   UNL d   1      32.868  20.407 -21.888  0.00  0.00     0.000 A 
ATOM     16  C   UNL d   1      33.239  20.799 -22.514  0.00  0.00     0.002 A 
ATOM     17  C   UNL d   1      32.874  20.739 -21.133  0.00  0.00     0.000 C 
ENDBRANCH   3   6
BRANCH   1  18
ATOM     18  S   UNL d   1      32.678  16.304 -23.683  0.00  0.00     0.266 S 
ATOM     19  O   UNL d   1      33.043  15.977 -24.338  0.00  0.00    -0.203 OA
ATOM     20  O   UNL d   1      32.769  16.195 -22.869  0.00  0.00    -0.203 OA
ATOM     21  C   UNL d   1      33.237  15.768 -23.397  0.00  0.00     0.165 C 
ENDBRANCH   1  18
BRANCH   4  22
ATOM     22  C   UNL d   1      30.095  16.347 -24.198  0.00  0.00     0.119 A 
ATOM     23  O   UNL d   1      29.889  15.938 -24.869  0.00  0.00    -0.304 OA
ATOM     24  C   UNL d   1      29.118  15.684 -24.807  0.00  0.00     0.123 A 
ATOM     25  C   UNL d   1      28.826  15.932 -24.088  0.00  0.00     0.029 A 
ATOM     26  C   UNL d   1      29.419  16.345 -23.697  0.00  0.00     0.028 A 
ENDBRANCH   4  22
TORSDOF 3
ENDMDL
MODEL 2
REMARK VINA RESULT:      -0.1      1.222      4.216
REMARK  3 active torsions:
REMARK  status: ('A' for Active; 'I' for Inactive)
REMARK    1  A    between atoms: S_3  and  N_1 
REMARK    2  A    between atoms: C_5  and  C_4 
REMARK    3  A    between atoms: C_11  and  C_6 
ROOT
ATOM      1  N   UNL d   1      32.260  16.999 -23.420  0.00  0.00    -0.155 N 
ATOM      2  N   UNL d   1      32.775  17.619 -23.297  0.00  0.00    -0.153 NA
ATOM      3  C   UNL d   1      31.589  17.290 -23.771  0.00  0.00     0.098 A 
ATOM      4  C   UNL d   1      32.415  18.297 -23.575  0.00  0.00     0.126 A 
ATOM      5  C   UNL d   1      31.683  18.103 -23.870  0.00  0.00     0.043 A 
ENDROOT
BRANCH   3   6
ATOM      6  C   UNL d   1      30.926  16.853 -23.992  0.00  0.00     0.047 A 
ATOM      7  C   UNL d   1      30.958  16.362 -24.656  0.00  0.00     0.140 A 
ATOM      8  N   UNL d   1      30.292  15.924 -24.876  0.00  0.00    -0.234 NA
ATOM      9 CL   UNL d   1      31.652  16.310 -25.097  0.00  0.00    -0.061 Cl
ATOM     10  C   UNL d   1      29.596  15.976 -24.435  0.00  0.00     0.082 A 
ATOM     11  C   UNL d   1      29.565  16.466 -23.771  0.00  0.00     0.018 A 
ATOM     12  C   UNL d   1      28.934  15.539 -24.656  0.00  0.00     0.019 A 
ATOM     13  C   UNL d   1      30.229  16.904 -23.550  0.00  0.00     0.005 A 
ATOM     14  C   UNL d   1      28.871  16.518 -23.330  0.00  0.00     0.002 A 
ATOM     15  C   UNL d   1      28.235  16.089 -23.556  0.00  0.00     0.000 A 
ATOM     16  C   UNL d   1      28.267  15.599 -24.220  0.00  0.00     0.002 A 
ATOM     17  C   UNL d   1      27.540  16.141 -23.114  0.00  0.00     0.000 C 
ENDBRANCH   3   6
BRANCH   1  18
ATOM     18  S   UNL d   1      32.773  16.453 -23.095  0.00  0.00     0.266 S 
ATOM     19  O   UNL d   1      33.224  15.959 -23.566  0.00  0.00    -0.203 OA
ATOM     20  O   UNL d   1      32.700  16.547 -22.278  0.00  0.00    -0.203 OA
ATOM     21  C   UNL d   1      33.219  15.983 -22.583  0.00  0.00     0.165 C 
ENDBRANCH   1  18
BRANCH   4  22
ATOM     22  C   UNL d   1      32.736  19.045 -23.562  0.00  0.00     0.119 A 
ATOM     23  O   UNL d   1      32.924  19.493 -22.911  0.00  0.00    -0.304 OA
ATOM     24  C   UNL d   1      33.232  20.208 -23.152  0.00  0.00     0.123 A 
ATOM     25  C   UNL d   1      33.241  20.218 -23.966  0.00  0.00     0.029 A 
ATOM     26  C   UNL d   1      32.937  19.505 -24.238  0.00  0.00     0.028 A 
ENDBRANCH   4  22
TORSDOF 3
ENDMDL
