MODEL 1
REMARK VINA RESULT:      31.9      0.000      0.000
REMARK  3 active torsions:
REMARK  status: ('A' for Active; 'I' for Inactive)
REMARK    1  A    between atoms: C_6  and  C_1 
REMARK    2  A    between atoms: C_7  and  C_4 
REMARK    3  A    between atoms: O_14  and  C_6 
ROOT
ATOM      1  C   UNL d   1     -55.089-101.951 -40.327  0.00  0.00     0.167 A 
ATOM      2  C   UNL d   1     -55.091-102.630 -39.851  0.00  0.00     0.047 A 
ATOM      3  N   UNL d   1     -54.945-101.141 -39.176  0.00  0.00    -0.148 NA
ATOM      4  C   UNL d   1     -54.946-101.815 -38.699  0.00  0.00     0.105 A 
ATOM      5  N   UNL d   1     -55.016-101.203 -39.991  0.00  0.00    -0.143 NA
ENDROOT
BRANCH   4   6
ATOM      6  C   UNL d   1     -54.888-101.959 -37.890  0.00  0.00     0.019 A 
ATOM      7  C   UNL d   1     -54.822-101.324 -37.368  0.00  0.00     0.002 A 
ATOM      8  C   UNL d   1     -54.763-101.467 -36.559  0.00  0.00     0.000 A 
ATOM      9  C   UNL d   1     -54.814-100.554 -37.648  0.00  0.00     0.000 C 
ATOM     10  C   UNL d   1     -54.771-102.246 -36.273  0.00  0.00     0.000 A 
ATOM     11  C   UNL d   1     -54.838-102.874 -36.802  0.00  0.00     0.000 A 
ATOM     12  C   UNL d   1     -54.713-102.387 -35.461  0.00  0.00     0.000 C 
ATOM     13  C   UNL d   1     -54.896-102.734 -37.607  0.00  0.00     0.002 A 
ENDBRANCH   4   6
BRANCH   1  14
ATOM     14  C   UNL d   1     -55.162-102.028 -41.148  0.00  0.00     0.316 C 
ATOM     15  O   UNL d   1     -55.154-102.775 -41.490  0.00  0.00    -0.257 OA
BRANCH  14  16
ATOM     16  O   UNL d   1     -55.240-101.361 -41.618  0.00  0.00    -0.294 OA
ATOM     17  C   UNL d   1     -55.178-101.424 -42.471  0.00  0.00     0.185 C 
ENDBRANCH  14  16
ENDBRANCH   1  14
TORSDOF 3
ENDMDL
