MODEL 1
REMARK VINA RESULT:      -9.3      0.000      0.000
REMARK  3 active torsions:
REMARK  status: ('A' for Active; 'I' for Inactive)
REMARK    1  A    between atoms: C_3  and  C_1 
REMARK    2  A    between atoms: C_5  and  C_3 
REMARK    3  A    between atoms: C_11  and  C_5 
ROOT
ATOM      1  C   UNL d   1      53.289  32.248  53.532  0.00  0.00     0.109 C 
ATOM      2  C   UNL d   1      53.679  32.409  54.235  0.00  0.00     0.105 C 
ATOM      3  N   UNL d   1      54.076  32.565  54.941  0.00  0.00    -0.191 NA
ENDROOT
BRANCH   1   4
ATOM      4  C   UNL d   1      52.668  32.738  53.288  0.00  0.00     0.192 A 
ATOM      5  N   UNL d   1      52.644  33.200  52.591  0.00  0.00    -0.220 NA
ATOM      6  C   UNL d   1      51.918  33.602  52.571  0.00  0.00     0.106 A 
ATOM      7  C   UNL d   1      51.597  34.128  52.022  0.00  0.00     0.021 A 
ATOM      8  C   UNL d   1      51.488  33.395  53.250  0.00  0.00     0.119 A 
ATOM      9  C   UNL d   1      50.847  34.448  52.150  0.00  0.00     0.002 A 
ATOM     10  C   UNL d   1      50.417  34.241  52.830  0.00  0.00     0.002 A 
ATOM     11  C   UNL d   1      50.738  33.715  53.378  0.00  0.00     0.026 A 
ATOM     12  O   UNL d   1      51.945  32.864  53.695  0.00  0.00    -0.287 OA
ENDBRANCH   1   4
BRANCH   1  13
ATOM     13  C   UNL d   1      53.512  31.603  53.069  0.00  0.00     0.014 C 
BRANCH  13  14
ATOM     14  C   UNL d   1      53.301  30.837  53.298  0.00  0.00     0.004 A 
ATOM     15  C   UNL d   1      52.697  30.445  52.896  0.00  0.00     0.021 A 
ATOM     16  C   UNL d   1      52.487  29.679  53.125  0.00  0.00     0.099 A 
ATOM     17  N   UNL d   1      52.879  29.312  53.751  0.00  0.00    -0.242 NA
ATOM     18  C   UNL d   1      53.491  29.712  54.158  0.00  0.00     0.099 A 
ATOM     19  C   UNL d   1      53.695  30.478  53.922  0.00  0.00     0.021 A 
ENDBRANCH  13  14
ENDBRANCH   1  13
TORSDOF 3
ENDMDL
MODEL 2
REMARK VINA RESULT:      -9.1      1.556      2.808
REMARK  3 active torsions:
REMARK  status: ('A' for Active; 'I' for Inactive)
REMARK    1  A    between atoms: C_3  and  C_1 
REMARK    2  A    between atoms: C_5  and  C_3 
REMARK    3  A    between atoms: C_11  and  C_5 
ROOT
ATOM      1  C   UNL d   1      53.349  31.850  53.209  0.00  0.00     0.109 C 
ATOM      2  C   UNL d   1      52.618  32.105  52.938  0.00  0.00     0.105 C 
ATOM      3  N   UNL d   1      51.883  32.356  52.661  0.00  0.00    -0.191 NA
ENDROOT
BRANCH   1   4
ATOM      4  C   UNL d   1      53.787  32.334  53.718  0.00  0.00     0.192 A 
ATOM      5  N   UNL d   1      54.497  32.736  53.532  0.00  0.00    -0.220 NA
ATOM      6  C   UNL d   1      54.743  33.154  54.206  0.00  0.00     0.106 A 
ATOM      7  C   UNL d   1      55.395  33.640  54.344  0.00  0.00     0.021 A 
ATOM      8  C   UNL d   1      54.191  33.016  54.812  0.00  0.00     0.119 A 
ATOM      9  C   UNL d   1      55.499  33.989  55.084  0.00  0.00     0.002 A 
ATOM     10  C   UNL d   1      54.947  33.851  55.690  0.00  0.00     0.002 A 
ATOM     11  C   UNL d   1      54.295  33.365  55.553  0.00  0.00     0.026 A 
ATOM     12  O   UNL d   1      53.602  32.512  54.516  0.00  0.00    -0.287 OA
ENDBRANCH   1   4
BRANCH   1  13
ATOM     13  C   UNL d   1      53.647  31.117  52.978  0.00  0.00     0.014 C 
BRANCH  13  14
ATOM     14  C   UNL d   1      53.316  30.422  53.279  0.00  0.00     0.004 A 
ATOM     15  C   UNL d   1      53.698  30.022  53.890  0.00  0.00     0.021 A 
ATOM     16  C   UNL d   1      53.367  29.327  54.191  0.00  0.00     0.099 A 
ATOM     17  N   UNL d   1      52.660  29.038  53.880  0.00  0.00    -0.242 NA
ATOM     18  C   UNL d   1      52.274  29.445  53.260  0.00  0.00     0.099 A 
ATOM     19  C   UNL d   1      52.612  30.140  52.965  0.00  0.00     0.021 A 
ENDBRANCH  13  14
ENDBRANCH   1  13
TORSDOF 3
ENDMDL
MODEL 3
REMARK VINA RESULT:      -8.8      0.966      2.341
REMARK  3 active torsions:
REMARK  status: ('A' for Active; 'I' for Inactive)
REMARK    1  A    between atoms: C_3  and  C_1 
REMARK    2  A    between atoms: C_5  and  C_3 
REMARK    3  A    between atoms: C_11  and  C_5 
ROOT
ATOM      1  C   UNL d   1      53.382  32.382  53.346  0.00  0.00     0.109 C 
ATOM      2  C   UNL d   1      53.317  31.572  53.458  0.00  0.00     0.105 C 
ATOM      3  N   UNL d   1      53.259  30.757  53.573  0.00  0.00    -0.191 NA
ENDROOT
BRANCH   1   4
ATOM      4  C   UNL d   1      52.710  32.821  53.146  0.00  0.00     0.192 A 
ATOM      5  N   UNL d   1      52.613  33.298  52.466  0.00  0.00    -0.220 NA
ATOM      6  C   UNL d   1      51.854  33.635  52.491  0.00  0.00     0.106 A 
ATOM      7  C   UNL d   1      51.462  34.146  51.974  0.00  0.00     0.021 A 
ATOM      8  C   UNL d   1      51.476  33.372  53.182  0.00  0.00     0.119 A 
ATOM      9  C   UNL d   1      50.695  34.394  52.146  0.00  0.00     0.002 A 
ATOM     10  C   UNL d   1      50.317  34.131  52.837  0.00  0.00     0.002 A 
ATOM     11  C   UNL d   1      50.709  33.620  53.353  0.00  0.00     0.026 A 
ATOM     12  O   UNL d   1      51.999  32.871  53.588  0.00  0.00    -0.287 OA
ENDBRANCH   1   4
BRANCH   1  13
ATOM     13  C   UNL d   1      54.111  32.757  53.430  0.00  0.00     0.014 C 
BRANCH  13  14
ATOM     14  C   UNL d   1      54.367  33.001  54.178  0.00  0.00     0.004 A 
ATOM     15  C   UNL d   1      54.886  33.639  54.241  0.00  0.00     0.021 A 
ATOM     16  C   UNL d   1      55.142  33.882  54.988  0.00  0.00     0.099 A 
ATOM     17  N   UNL d   1      54.878  33.489  55.664  0.00  0.00    -0.242 NA
ATOM     18  C   UNL d   1      54.351  32.843  55.598  0.00  0.00     0.099 A 
ATOM     19  C   UNL d   1      54.101  32.605  54.846  0.00  0.00     0.021 A 
ENDBRANCH  13  14
ENDBRANCH   1  13
TORSDOF 3
ENDMDL
MODEL 4
REMARK VINA RESULT:      -8.8      1.424      3.912
REMARK  3 active torsions:
REMARK  status: ('A' for Active; 'I' for Inactive)
REMARK    1  A    between atoms: C_3  and  C_1 
REMARK    2  A    between atoms: C_5  and  C_3 
REMARK    3  A    between atoms: C_11  and  C_5 
ROOT
ATOM      1  C   UNL d   1      53.910  32.706  54.080  0.00  0.00     0.109 C 
ATOM      2  C   UNL d   1      54.600  32.995  53.746  0.00  0.00     0.105 C 
ATOM      3  N   UNL d   1      55.294  33.293  53.413  0.00  0.00    -0.191 NA
ENDROOT
BRANCH   1   4
ATOM      4  C   UNL d   1      53.660  31.938  53.900  0.00  0.00     0.192 A 
ATOM      5  N   UNL d   1      53.696  31.272  54.405  0.00  0.00    -0.220 NA
ATOM      6  C   UNL d   1      53.386  30.619  53.998  0.00  0.00     0.106 A 
ATOM      7  C   UNL d   1      53.284  29.831  54.219  0.00  0.00     0.021 A 
ATOM      8  C   UNL d   1      53.156  30.871  53.240  0.00  0.00     0.119 A 
ATOM      9  C   UNL d   1      52.954  29.293  53.687  0.00  0.00     0.002 A 
ATOM     10  C   UNL d   1      52.725  29.546  52.929  0.00  0.00     0.002 A 
ATOM     11  C   UNL d   1      52.826  30.334  52.708  0.00  0.00     0.026 A 
ATOM     12  O   UNL d   1      53.323  31.682  53.175  0.00  0.00    -0.287 OA
ENDBRANCH   1   4
BRANCH   1  13
ATOM     13  C   UNL d   1      53.466  33.175  54.592  0.00  0.00     0.014 C 
BRANCH  13  14
ATOM     14  C   UNL d   1      53.153  33.894  54.329  0.00  0.00     0.004 A 
ATOM     15  C   UNL d   1      53.455  34.600  54.627  0.00  0.00     0.021 A 
ATOM     16  C   UNL d   1      53.142  35.319  54.363  0.00  0.00     0.099 A 
ATOM     17  N   UNL d   1      52.532  35.325  53.808  0.00  0.00    -0.242 NA
ATOM     18  C   UNL d   1      52.227  34.607  53.508  0.00  0.00     0.099 A 
ATOM     19  C   UNL d   1      52.546  33.893  53.776  0.00  0.00     0.021 A 
ENDBRANCH  13  14
ENDBRANCH   1  13
TORSDOF 3
ENDMDL
MODEL 5
REMARK VINA RESULT:      -8.6      1.958      2.574
REMARK  3 active torsions:
REMARK  status: ('A' for Active; 'I' for Inactive)
REMARK    1  A    between atoms: C_3  and  C_1 
REMARK    2  A    between atoms: C_5  and  C_3 
REMARK    3  A    between atoms: C_11  and  C_5 
ROOT
ATOM      1  C   UNL d   1      52.970  34.664  53.683  0.00  0.00     0.109 C 
ATOM      2  C   UNL d   1      53.050  35.294  54.202  0.00  0.00     0.105 C 
ATOM      3  N   UNL d   1      53.136  35.926  54.724  0.00  0.00    -0.191 NA
ENDROOT
BRANCH   1   4
ATOM      4  C   UNL d   1      52.259  34.559  53.275  0.00  0.00     0.192 A 
ATOM      5  N   UNL d   1      52.173  34.427  52.453  0.00  0.00    -0.220 NA
ATOM      6  C   UNL d   1      51.363  34.353  52.285  0.00  0.00     0.106 A 
ATOM      7  C   UNL d   1      50.958  34.220  51.579  0.00  0.00     0.021 A 
ATOM      8  C   UNL d   1      50.942  34.437  52.996  0.00  0.00     0.119 A 
ATOM      9  C   UNL d   1      50.135  34.171  51.579  0.00  0.00     0.002 A 
ATOM     10  C   UNL d   1      49.713  34.255  52.291  0.00  0.00     0.002 A 
ATOM     11  C   UNL d   1      50.118  34.388  52.997  0.00  0.00     0.026 A 
ATOM     12  O   UNL d   1      51.489  34.564  53.608  0.00  0.00    -0.287 OA
ENDBRANCH   1   4
BRANCH   1  13
ATOM     13  C   UNL d   1      53.594  34.137  53.569  0.00  0.00     0.014 C 
BRANCH  13  14
ATOM     14  C   UNL d   1      53.864  33.671  54.197  0.00  0.00     0.004 A 
ATOM     15  C   UNL d   1      53.536  32.924  54.317  0.00  0.00     0.021 A 
ATOM     16  C   UNL d   1      53.805  32.459  54.945  0.00  0.00     0.099 A 
ATOM     17  N   UNL d   1      54.397  32.742  55.445  0.00  0.00    -0.242 NA
ATOM     18  C   UNL d   1      54.728  33.499  55.321  0.00  0.00     0.099 A 
ATOM     19  C   UNL d   1      54.453  33.959  54.691  0.00  0.00     0.021 A 
ENDBRANCH  13  14
ENDBRANCH   1  13
TORSDOF 3
ENDMDL
MODEL 6
REMARK VINA RESULT:      -8.1      1.722      3.871
REMARK  3 active torsions:
REMARK  status: ('A' for Active; 'I' for Inactive)
REMARK    1  A    between atoms: C_3  and  C_1 
REMARK    2  A    between atoms: C_5  and  C_3 
REMARK    3  A    between atoms: C_11  and  C_5 
ROOT
ATOM      1  C   UNL d   1      52.653  33.212  52.972  0.00  0.00     0.109 C 
ATOM      2  C   UNL d   1      52.367  32.467  52.785  0.00  0.00     0.105 C 
ATOM      3  N   UNL d   1      52.076  31.719  52.593  0.00  0.00    -0.191 NA
ENDROOT
BRANCH   1   4
ATOM      4  C   UNL d   1      53.221  33.295  53.567  0.00  0.00     0.192 A 
ATOM      5  N   UNL d   1      53.976  33.645  53.488  0.00  0.00    -0.220 NA
ATOM      6  C   UNL d   1      54.359  33.608  54.224  0.00  0.00     0.106 A 
ATOM      7  C   UNL d   1      55.104  33.864  54.469  0.00  0.00     0.021 A 
ATOM      8  C   UNL d   1      53.847  33.238  54.764  0.00  0.00     0.119 A 
ATOM      9  C   UNL d   1      55.340  33.751  55.252  0.00  0.00     0.002 A 
ATOM     10  C   UNL d   1      54.828  33.381  55.791  0.00  0.00     0.002 A 
ATOM     11  C   UNL d   1      54.083  33.125  55.546  0.00  0.00     0.026 A 
ATOM     12  O   UNL d   1      53.146  33.043  54.364  0.00  0.00    -0.287 OA
ENDBRANCH   1   4
BRANCH   1  13
ATOM     13  C   UNL d   1      52.376  33.877  52.569  0.00  0.00     0.014 C 
BRANCH  13  14
ATOM     14  C   UNL d   1      51.569  34.058  52.573  0.00  0.00     0.004 A 
ATOM     15  C   UNL d   1      51.137  33.994  51.874  0.00  0.00     0.021 A 
ATOM     16  C   UNL d   1      50.329  34.174  51.878  0.00  0.00     0.099 A 
ATOM     17  N   UNL d   1      49.963  34.415  52.576  0.00  0.00    -0.242 NA
ATOM     18  C   UNL d   1      50.404  34.480  53.284  0.00  0.00     0.099 A 
ATOM     19  C   UNL d   1      51.211  34.297  53.272  0.00  0.00     0.021 A 
ENDBRANCH  13  14
ENDBRANCH   1  13
TORSDOF 3
ENDMDL
