MODEL 1
REMARK VINA RESULT:      -9.4      0.000      0.000
REMARK  4 active torsions:
REMARK  status: ('A' for Active; 'I' for Inactive)
REMARK    1  A    between atoms: N_10  and  C_3 
REMARK    2  A    between atoms: C_11  and  C_4 
REMARK    3  A    between atoms: C_15  and  N_10 
REMARK       I    between atoms: C_12  and  N_13 
REMARK    4  A    between atoms: N_13  and  C_16 
ROOT
ATOM      1  C   UNL d   1      53.220  31.114  53.662  0.00  0.00     0.167 A 
ATOM      2  N   UNL d   1      52.895  31.595  53.084  0.00  0.00    -0.195 N 
ATOM      3  C   UNL d   1      52.963  32.416  53.139  0.00  0.00     0.167 A 
ATOM      4  C   UNL d   1      53.067  30.334  53.461  0.00  0.00     0.057 A 
ATOM      5  N   UNL d   1      52.539  31.116  52.521  0.00  0.00    -0.161 NA
ATOM      6  N   UNL d   1      53.618  31.445  54.305  0.00  0.00    -0.227 NA
ATOM      7  C   UNL d   1      53.362  32.750  53.784  0.00  0.00     0.058 A 
ATOM      8  C   UNL d   1      52.644  30.341  52.752  0.00  0.00     0.124 A 
ATOM      9  C   UNL d   1      53.686  32.269  54.361  0.00  0.00     0.086 A 
ATOM     10  C   UNL d   1      54.081  32.621  54.999  0.00  0.00     0.021 C 
ENDROOT
BRANCH   3  11
ATOM     11  N   UNL d   1      52.638  32.898  52.560  0.00  0.00    -0.227 NA
BRANCH  11  12
ATOM     12  C   UNL d   1      52.018  33.411  52.745  0.00  0.00     0.083 A 
ATOM     13  C   UNL d   1      52.145  34.225  52.724  0.00  0.00     0.021 A 
ATOM     14  C   UNL d   1      51.522  34.745  52.910  0.00  0.00     0.021 A 
ATOM     15  C   UNL d   1      50.786  34.446  53.113  0.00  0.00     0.085 A 
ATOM     16  C   UNL d   1      50.662  33.623  53.134  0.00  0.00     0.021 A 
ATOM     17  C   UNL d   1      51.278  33.110  52.950  0.00  0.00     0.021 A 
BRANCH  15  18
ATOM     18  N   UNL d   1      50.161  34.971  53.300  0.00  0.00    -0.208 NA
ATOM     19  C   UNL d   1      49.505  35.038  52.804  0.00  0.00     0.279 C 
ATOM     20  O   UNL d   1      48.884  35.563  52.993  0.00  0.00    -0.265 OA
ATOM     21  C   UNL d   1      49.466  34.587  52.120  0.00  0.00     0.068 C 
ENDBRANCH  15  18
ENDBRANCH  11  12
ENDBRANCH   3  11
BRANCH   4  22
ATOM     22  C   UNL d   1      53.326  29.711  53.939  0.00  0.00     0.004 A 
ATOM     23  C   UNL d   1      52.863  29.481  54.582  0.00  0.00     0.000 A 
ATOM     24  C   UNL d   1      53.114  28.861  55.065  0.00  0.00     0.000 A 
ATOM     25  C   UNL d   1      53.832  28.470  54.903  0.00  0.00     0.000 A 
ATOM     26  C   UNL d   1      54.286  28.706  54.261  0.00  0.00     0.000 A 
ATOM     27  C   UNL d   1      54.031  29.327  53.780  0.00  0.00     0.000 A 
ENDBRANCH   4  22
TORSDOF 4
ENDMDL
MODEL 2
REMARK VINA RESULT:      -8.4      2.320      6.613
REMARK  4 active torsions:
REMARK  status: ('A' for Active; 'I' for Inactive)
REMARK    1  A    between atoms: N_10  and  C_3 
REMARK    2  A    between atoms: C_11  and  C_4 
REMARK    3  A    between atoms: C_15  and  N_10 
REMARK       I    between atoms: C_12  and  N_13 
REMARK    4  A    between atoms: N_13  and  C_16 
ROOT
ATOM      1  C   UNL d   1      48.167  35.470  52.511  0.00  0.00     0.167 A 
ATOM      2  N   UNL d   1      48.872  35.438  52.926  0.00  0.00    -0.195 N 
ATOM      3  C   UNL d   1      49.534  35.070  52.596  0.00  0.00     0.167 A 
ATOM      4  C   UNL d   1      47.616  35.864  52.973  0.00  0.00     0.057 A 
ATOM      5  N   UNL d   1      48.762  35.812  53.648  0.00  0.00    -0.161 NA
ATOM      6  N   UNL d   1      48.111  35.135  51.758  0.00  0.00    -0.227 NA
ATOM      7  C   UNL d   1      49.479  34.734  51.841  0.00  0.00     0.058 A 
ATOM      8  C   UNL d   1      47.991  36.073  53.677  0.00  0.00     0.124 A 
ATOM      9  C   UNL d   1      48.774  34.766  51.426  0.00  0.00     0.086 A 
ATOM     10  C   UNL d   1      48.739  34.424  50.672  0.00  0.00     0.021 C 
ENDROOT
BRANCH   3  11
ATOM     11  N   UNL d   1      50.240  35.038  53.012  0.00  0.00    -0.227 NA
BRANCH  11  12
ATOM     12  C   UNL d   1      50.740  34.386  52.934  0.00  0.00     0.083 A 
ATOM     13  C   UNL d   1      51.402  34.439  52.445  0.00  0.00     0.021 A 
ATOM     14  C   UNL d   1      51.908  33.783  52.364  0.00  0.00     0.021 A 
ATOM     15  C   UNL d   1      51.747  33.088  52.769  0.00  0.00     0.085 A 
ATOM     16  C   UNL d   1      51.077  33.039  53.261  0.00  0.00     0.021 A 
ATOM     17  C   UNL d   1      50.578  33.688  53.340  0.00  0.00     0.021 A 
BRANCH  15  18
ATOM     18  N   UNL d   1      52.257  32.430  52.685  0.00  0.00    -0.208 NA
ATOM     19  C   UNL d   1      52.925  32.351  53.164  0.00  0.00     0.279 C 
ATOM     20  O   UNL d   1      53.432  31.694  53.078  0.00  0.00    -0.265 OA
ATOM     21  C   UNL d   1      53.090  32.925  53.727  0.00  0.00     0.068 C 
ENDBRANCH  15  18
ENDBRANCH  11  12
ENDBRANCH   3  11
BRANCH   4  22
ATOM     22  C   UNL d   1      46.843  35.986  52.704  0.00  0.00     0.004 A 
ATOM     23  C   UNL d   1      46.243  35.487  52.971  0.00  0.00     0.000 A 
ATOM     24  C   UNL d   1      45.470  35.603  52.708  0.00  0.00     0.000 A 
ATOM     25  C   UNL d   1      45.297  36.219  52.174  0.00  0.00     0.000 A 
ATOM     26  C   UNL d   1      45.901  36.709  51.914  0.00  0.00     0.000 A 
ATOM     27  C   UNL d   1      46.674  36.591  52.180  0.00  0.00     0.000 A 
ENDBRANCH   4  22
TORSDOF 4
ENDMDL
MODEL 3
REMARK VINA RESULT:      -8.1      2.276      5.004
REMARK  4 active torsions:
REMARK  status: ('A' for Active; 'I' for Inactive)
REMARK    1  A    between atoms: N_10  and  C_3 
REMARK    2  A    between atoms: C_11  and  C_4 
REMARK    3  A    between atoms: C_15  and  N_10 
REMARK       I    between atoms: C_12  and  N_13 
REMARK    4  A    between atoms: N_13  and  C_16 
ROOT
ATOM      1  C   UNL d   1      52.877  33.476  53.562  0.00  0.00     0.167 A 
ATOM      2  N   UNL d   1      53.208  32.818  53.203  0.00  0.00    -0.195 N 
ATOM      3  C   UNL d   1      52.725  32.233  52.878  0.00  0.00     0.167 A 
ATOM      4  C   UNL d   1      53.485  33.955  53.830  0.00  0.00     0.057 A 
ATOM      5  N   UNL d   1      54.024  32.887  53.247  0.00  0.00    -0.161 NA
ATOM      6  N   UNL d   1      52.056  33.559  53.603  0.00  0.00    -0.227 NA
ATOM      7  C   UNL d   1      51.901  32.315  52.918  0.00  0.00     0.058 A 
ATOM      8  C   UNL d   1      54.195  33.585  53.631  0.00  0.00     0.124 A 
ATOM      9  C   UNL d   1      51.570  32.972  53.277  0.00  0.00     0.086 A 
ATOM     10  C   UNL d   1      50.744  33.037  53.307  0.00  0.00     0.021 C 
ENDROOT
BRANCH   3  11
ATOM     11  N   UNL d   1      53.057  31.574  52.519  0.00  0.00    -0.227 NA
BRANCH  11  12
ATOM     12  C   UNL d   1      53.083  30.852  52.918  0.00  0.00     0.083 A 
ATOM     13  C   UNL d   1      53.790  30.606  53.264  0.00  0.00     0.021 A 
ATOM     14  C   UNL d   1      53.821  29.878  53.667  0.00  0.00     0.021 A 
ATOM     15  C   UNL d   1      53.150  29.409  53.717  0.00  0.00     0.085 A 
ATOM     16  C   UNL d   1      52.439  29.661  53.366  0.00  0.00     0.021 A 
ATOM     17  C   UNL d   1      52.409  30.381  52.968  0.00  0.00     0.021 A 
BRANCH  15  18
ATOM     18  N   UNL d   1      53.184  28.678  54.123  0.00  0.00    -0.208 NA
ATOM     19  C   UNL d   1      53.248  28.654  54.945  0.00  0.00     0.279 C 
ATOM     20  O   UNL d   1      53.282  27.923  55.346  0.00  0.00    -0.265 OA
ATOM     21  C   UNL d   1      53.281  29.356  55.369  0.00  0.00     0.068 C 
ENDBRANCH  15  18
ENDBRANCH  11  12
ENDBRANCH   3  11
BRANCH   4  22
ATOM     22  C   UNL d   1      53.327  34.667  54.220  0.00  0.00     0.004 A 
ATOM     23  C   UNL d   1      53.321  34.679  55.045  0.00  0.00     0.000 A 
ATOM     24  C   UNL d   1      53.165  35.385  55.442  0.00  0.00     0.000 A 
ATOM     25  C   UNL d   1      53.013  36.082  55.011  0.00  0.00     0.000 A 
ATOM     26  C   UNL d   1      53.022  36.060  54.191  0.00  0.00     0.000 A 
ATOM     27  C   UNL d   1      53.179  35.352  53.797  0.00  0.00     0.000 A 
ENDBRANCH   4  22
TORSDOF 4
ENDMDL
MODEL 4
REMARK VINA RESULT:      -8.0      2.323      3.366
REMARK  4 active torsions:
REMARK  status: ('A' for Active; 'I' for Inactive)
REMARK    1  A    between atoms: N_10  and  C_3 
REMARK    2  A    between atoms: C_11  and  C_4 
REMARK    3  A    between atoms: C_15  and  N_10 
REMARK       I    between atoms: C_12  and  N_13 
REMARK    4  A    between atoms: N_13  and  C_16 
ROOT
ATOM      1  C   UNL d   1      52.335  33.792  53.343  0.00  0.00     0.167 A 
ATOM      2  N   UNL d   1      51.945  34.301  52.833  0.00  0.00    -0.195 N 
ATOM      3  C   UNL d   1      51.222  34.084  52.499  0.00  0.00     0.167 A 
ATOM      4  C   UNL d   1      53.030  34.153  53.584  0.00  0.00     0.057 A 
ATOM      5  N   UNL d   1      52.397  34.981  52.756  0.00  0.00    -0.161 NA
ATOM      6  N   UNL d   1      52.008  33.056  53.528  0.00  0.00    -0.227 NA
ATOM      7  C   UNL d   1      50.893  33.346  52.683  0.00  0.00     0.058 A 
ATOM      8  C   UNL d   1      53.063  34.891  53.216  0.00  0.00     0.124 A 
ATOM      9  C   UNL d   1      51.282  32.837  53.193  0.00  0.00     0.086 A 
ATOM     10  C   UNL d   1      50.937  32.104  53.365  0.00  0.00     0.021 C 
ENDROOT
BRANCH   3  11
ATOM     11  N   UNL d   1      50.832  34.593  51.988  0.00  0.00    -0.227 NA
BRANCH  11  12
ATOM     12  C   UNL d   1      50.013  34.687  52.039  0.00  0.00     0.083 A 
ATOM     13  C   UNL d   1      49.538  34.444  51.411  0.00  0.00     0.021 A 
ATOM     14  C   UNL d   1      48.712  34.537  51.458  0.00  0.00     0.021 A 
ATOM     15  C   UNL d   1      48.375  34.869  52.127  0.00  0.00     0.085 A 
ATOM     16  C   UNL d   1      48.858  35.114  52.759  0.00  0.00     0.021 A 
ATOM     17  C   UNL d   1      49.675  35.021  52.712  0.00  0.00     0.021 A 
BRANCH  15  18
ATOM     18  N   UNL d   1      47.544  34.962  52.173  0.00  0.00    -0.208 NA
ATOM     19  C   UNL d   1      47.193  35.692  52.020  0.00  0.00     0.279 C 
ATOM     20  O   UNL d   1      46.364  35.781  52.066  0.00  0.00    -0.265 OA
ATOM     21  C   UNL d   1      47.663  36.334  51.821  0.00  0.00     0.068 C 
ENDBRANCH  15  18
ENDBRANCH  11  12
ENDBRANCH   3  11
BRANCH   4  22
ATOM     22  C   UNL d   1      53.549  33.775  54.106  0.00  0.00     0.004 A 
ATOM     23  C   UNL d   1      54.113  33.255  53.802  0.00  0.00     0.000 A 
ATOM     24  C   UNL d   1      54.634  32.874  54.315  0.00  0.00     0.000 A 
ATOM     25  C   UNL d   1      54.591  33.014  55.136  0.00  0.00     0.000 A 
ATOM     26  C   UNL d   1      54.026  33.533  55.428  0.00  0.00     0.000 A 
ATOM     27  C   UNL d   1      53.506  33.913  54.911  0.00  0.00     0.000 A 
ENDBRANCH   4  22
TORSDOF 4
ENDMDL
