MODEL 1
REMARK VINA RESULT:      -3.3      0.000      0.000
REMARK  3 active torsions:
REMARK  status: ('A' for Active; 'I' for Inactive)
REMARK    1  A    between atoms: C_6  and  C_2 
REMARK    2  A    between atoms: O_7  and  C_6 
REMARK    3  A    between atoms: C_8  and  O_7 
ROOT
ATOM      1  N   UNL d   1      32.495  20.939 -21.202  0.00  0.00    -0.224 NA
ATOM      2  C   UNL d   1      32.920  20.778 -21.889  0.00  0.00     0.188 A 
ATOM      3  N   UNL d   1      33.159  21.520 -22.220  0.00  0.00    -0.224 NA
ATOM      4  C   UNL d   1      32.471  21.775 -21.107  0.00  0.00     0.101 A 
ATOM      5  C   UNL d   1      32.878  22.131 -21.731  0.00  0.00     0.101 A 
ATOM      6  C   UNL d   1      32.124  22.242 -20.522  0.00  0.00     0.021 A 
ATOM      7  C   UNL d   1      32.937  22.953 -21.769  0.00  0.00     0.021 A 
ATOM      8  C   UNL d   1      32.194  23.013 -20.582  0.00  0.00     0.002 A 
ATOM      9  C   UNL d   1      32.601  23.369 -21.206  0.00  0.00     0.002 A 
ENDROOT
BRANCH   2  10
ATOM     10  C   UNL d   1      32.857  19.979 -21.844  0.00  0.00     0.161 C 
BRANCH  10  11
ATOM     11  O   UNL d   1      32.896  19.530 -22.532  0.00  0.00    -0.302 OA
BRANCH  11  12
ATOM     12  C   UNL d   1      32.873  18.797 -22.911  0.00  0.00     0.100 A 
ATOM     13  C   UNL d   1      33.240  18.143 -22.567  0.00  0.00     0.026 A 
ATOM     14  C   UNL d   1      33.218  17.415 -22.944  0.00  0.00     0.013 A 
ATOM     15  C   UNL d   1      32.828  17.332 -23.668  0.00  0.00     0.058 A 
ATOM     16  C   UNL d   1      32.460  17.991 -24.013  0.00  0.00     0.013 A 
ATOM     17 CL   UNL d   1      32.806  16.604 -24.045  0.00  0.00    -0.082 Cl
ATOM     18  C   UNL d   1      32.482  18.719 -23.636  0.00  0.00     0.026 A 
ENDBRANCH  11  12
ENDBRANCH  10  11
ENDBRANCH   2  10
TORSDOF 3
ENDMDL
MODEL 2
REMARK VINA RESULT:      -3.3      2.098      4.757
REMARK  3 active torsions:
REMARK  status: ('A' for Active; 'I' for Inactive)
REMARK    1  A    between atoms: C_6  and  C_2 
REMARK    2  A    between atoms: O_7  and  C_6 
REMARK    3  A    between atoms: C_8  and  O_7 
ROOT
ATOM      1  N   UNL d   1      33.241  18.420 -22.470  0.00  0.00    -0.224 NA
ATOM      2  C   UNL d   1      32.902  19.115 -22.758  0.00  0.00     0.188 A 
ATOM      3  N   UNL d   1      32.499  18.922 -23.478  0.00  0.00    -0.224 NA
ATOM      4  C   UNL d   1      33.049  17.802 -23.009  0.00  0.00     0.101 A 
ATOM      5  C   UNL d   1      32.595  18.109 -23.626  0.00  0.00     0.101 A 
ATOM      6  C   UNL d   1      33.241  16.999 -22.998  0.00  0.00     0.021 A 
ATOM      7  C   UNL d   1      32.333  17.614 -24.232  0.00  0.00     0.021 A 
ATOM      8  C   UNL d   1      32.982  16.555 -23.580  0.00  0.00     0.002 A 
ATOM      9  C   UNL d   1      32.528  16.863 -24.198  0.00  0.00     0.002 A 
ENDROOT
BRANCH   2  10
ATOM     10  C   UNL d   1      33.161  19.589 -22.165  0.00  0.00     0.161 C 
BRANCH  10  11
ATOM     11  O   UNL d   1      32.903  20.369 -22.127  0.00  0.00    -0.302 OA
BRANCH  11  12
ATOM     12  C   UNL d   1      32.832  21.080 -21.716  0.00  0.00     0.100 A 
ATOM     13  C   UNL d   1      32.472  21.094 -20.974  0.00  0.00     0.026 A 
ATOM     14  C   UNL d   1      32.401  21.802 -20.565  0.00  0.00     0.013 A 
ATOM     15  C   UNL d   1      32.690  22.503 -20.893  0.00  0.00     0.058 A 
ATOM     16  C   UNL d   1      33.052  22.487 -21.639  0.00  0.00     0.013 A 
ATOM     17 CL   UNL d   1      32.620  23.211 -20.484  0.00  0.00    -0.082 Cl
ATOM     18  C   UNL d   1      33.123  21.780 -22.048  0.00  0.00     0.026 A 
ENDBRANCH  11  12
ENDBRANCH  10  11
ENDBRANCH   2  10
TORSDOF 3
ENDMDL
MODEL 3
REMARK VINA RESULT:      -3.2      2.265      4.723
REMARK  3 active torsions:
REMARK  status: ('A' for Active; 'I' for Inactive)
REMARK    1  A    between atoms: C_6  and  C_2 
REMARK    2  A    between atoms: O_7  and  C_6 
REMARK    3  A    between atoms: C_8  and  O_7 
ROOT
ATOM      1  N   UNL d   1      33.050  19.284 -21.907  0.00  0.00    -0.224 NA
ATOM      2  C   UNL d   1      33.128  20.079 -22.110  0.00  0.00     0.188 A 
ATOM      3  N   UNL d   1      33.211  20.121 -22.952  0.00  0.00    -0.224 NA
ATOM      4  C   UNL d   1      33.084  18.835 -22.618  0.00  0.00     0.101 A 
ATOM      5  C   UNL d   1      33.183  19.348 -23.259  0.00  0.00     0.101 A 
ATOM      6  C   UNL d   1      33.036  18.021 -22.746  0.00  0.00     0.021 A 
ATOM      7  C   UNL d   1      33.234  19.045 -24.025  0.00  0.00     0.021 A 
ATOM      8  C   UNL d   1      33.087  17.763 -23.476  0.00  0.00     0.002 A 
ATOM      9  C   UNL d   1      33.186  18.276 -24.116  0.00  0.00     0.002 A 
ENDROOT
BRANCH   2  10
ATOM     10  C   UNL d   1      33.077  20.364 -21.362  0.00  0.00     0.161 C 
BRANCH  10  11
ATOM     11  O   UNL d   1      32.915  21.162 -21.242  0.00  0.00    -0.302 OA
BRANCH  11  12
ATOM     12  C   UNL d   1      32.786  21.797 -20.731  0.00  0.00     0.100 A 
ATOM     13  C   UNL d   1      33.231  21.869 -20.040  0.00  0.00     0.026 A 
ATOM     14  C   UNL d   1      33.103  22.500 -19.533  0.00  0.00     0.013 A 
ATOM     15  C   UNL d   1      32.529  23.068 -19.711  0.00  0.00     0.058 A 
ATOM     16  C   UNL d   1      32.083  22.995 -20.406  0.00  0.00     0.013 A 
ATOM     17 CL   UNL d   1      32.402  23.700 -19.204  0.00  0.00    -0.082 Cl
ATOM     18  C   UNL d   1      32.211  22.364 -20.914  0.00  0.00     0.026 A 
ENDBRANCH  11  12
ENDBRANCH  10  11
ENDBRANCH   2  10
TORSDOF 3
ENDMDL
MODEL 4
REMARK VINA RESULT:      -1.4      3.628      5.783
REMARK  3 active torsions:
REMARK  status: ('A' for Active; 'I' for Inactive)
REMARK    1  A    between atoms: C_6  and  C_2 
REMARK    2  A    between atoms: O_7  and  C_6 
REMARK    3  A    between atoms: C_8  and  O_7 
ROOT
ATOM      1  N   UNL d   1      30.028  16.143 -23.330  0.00  0.00    -0.224 NA
ATOM      2  C   UNL d   1      30.472  16.261 -24.014  0.00  0.00     0.188 A 
ATOM      3  N   UNL d   1      29.973  16.085 -24.675  0.00  0.00    -0.224 NA
ATOM      4  C   UNL d   1      29.259  15.895 -23.565  0.00  0.00     0.101 A 
ATOM      5  C   UNL d   1      29.225  15.860 -24.390  0.00  0.00     0.101 A 
ATOM      6  C   UNL d   1      28.594  15.701 -23.117  0.00  0.00     0.021 A 
ATOM      7  C   UNL d   1      28.526  15.631 -24.764  0.00  0.00     0.021 A 
ATOM      8  C   UNL d   1      27.949  15.489 -23.494  0.00  0.00     0.002 A 
ATOM      9  C   UNL d   1      27.915  15.453 -24.318  0.00  0.00     0.002 A 
ENDROOT
BRANCH   2  10
ATOM     10  C   UNL d   1      31.147  16.483 -23.642  0.00  0.00     0.161 C 
BRANCH  10  11
ATOM     11  O   UNL d   1      31.660  17.009 -24.011  0.00  0.00    -0.302 OA
BRANCH  11  12
ATOM     12  C   UNL d   1      32.056  17.733 -24.025  0.00  0.00     0.100 A 
ATOM     13  C   UNL d   1      32.089  18.173 -24.721  0.00  0.00     0.026 A 
ATOM     14  C   UNL d   1      32.482  18.893 -24.735  0.00  0.00     0.013 A 
ATOM     15  C   UNL d   1      32.848  19.181 -24.051  0.00  0.00     0.058 A 
ATOM     16  C   UNL d   1      32.814  18.737 -23.351  0.00  0.00     0.013 A 
ATOM     17 CL   UNL d   1      33.241  19.900 -24.064  0.00  0.00    -0.082 Cl
ATOM     18  C   UNL d   1      32.420  18.017 -23.338  0.00  0.00     0.026 A 
ENDBRANCH  11  12
ENDBRANCH  10  11
ENDBRANCH   2  10
TORSDOF 3
ENDMDL
MODEL 5
REMARK VINA RESULT:      -1.2      3.300      4.377
REMARK  3 active torsions:
REMARK  status: ('A' for Active; 'I' for Inactive)
REMARK    1  A    between atoms: C_6  and  C_2 
REMARK    2  A    between atoms: O_7  and  C_6 
REMARK    3  A    between atoms: C_8  and  O_7 
ROOT
ATOM      1  N   UNL d   1      32.166  22.607 -18.796  0.00  0.00    -0.224 NA
ATOM      2  C   UNL d   1      32.736  22.969 -19.269  0.00  0.00     0.188 A 
ATOM      3  N   UNL d   1      33.241  23.420 -18.759  0.00  0.00    -0.224 NA
ATOM      4  C   UNL d   1      32.317  22.831 -17.999  0.00  0.00     0.101 A 
ATOM      5  C   UNL d   1      32.975  23.329 -17.976  0.00  0.00     0.101 A 
ATOM      6  C   UNL d   1      31.926  22.633 -17.300  0.00  0.00     0.021 A 
ATOM      7  C   UNL d   1      33.241  23.628 -17.255  0.00  0.00     0.021 A 
ATOM      8  C   UNL d   1      32.196  22.929 -16.635  0.00  0.00     0.002 A 
ATOM      9  C   UNL d   1      32.854  23.427 -16.612  0.00  0.00     0.002 A 
ENDROOT
BRANCH   2  10
ATOM     10  C   UNL d   1      32.471  22.673 -19.966  0.00  0.00     0.161 C 
BRANCH  10  11
ATOM     11  O   UNL d   1      32.851  22.881 -20.665  0.00  0.00    -0.302 OA
BRANCH  11  12
ATOM     12  C   UNL d   1      32.882  22.882 -21.490  0.00  0.00     0.100 A 
ATOM     13  C   UNL d   1      33.108  22.201 -21.896  0.00  0.00     0.026 A 
ATOM     14  C   UNL d   1      33.139  22.203 -22.715  0.00  0.00     0.013 A 
ATOM     15  C   UNL d   1      32.944  22.886 -23.139  0.00  0.00     0.058 A 
ATOM     16  C   UNL d   1      32.716  23.570 -22.729  0.00  0.00     0.013 A 
ATOM     17 CL   UNL d   1      32.974  22.887 -23.958  0.00  0.00    -0.082 Cl
ATOM     18  C   UNL d   1      32.685  23.568 -21.909  0.00  0.00     0.026 A 
ENDBRANCH  11  12
ENDBRANCH  10  11
ENDBRANCH   2  10
TORSDOF 3
ENDMDL
MODEL 6
REMARK VINA RESULT:      -0.6      2.433      5.091
REMARK  3 active torsions:
REMARK  status: ('A' for Active; 'I' for Inactive)
REMARK    1  A    between atoms: C_6  and  C_2 
REMARK    2  A    between atoms: O_7  and  C_6 
REMARK    3  A    between atoms: C_8  and  O_7 
ROOT
ATOM      1  N   UNL d   1      31.757  17.770 -24.191  0.00  0.00    -0.224 NA
ATOM      2  C   UNL d   1      32.445  17.713 -23.742  0.00  0.00     0.188 A 
ATOM      3  N   UNL d   1      32.522  16.907 -23.493  0.00  0.00    -0.224 NA
ATOM      4  C   UNL d   1      31.408  17.004 -24.221  0.00  0.00     0.101 A 
ATOM      5  C   UNL d   1      31.877  16.476 -23.793  0.00  0.00     0.101 A 
ATOM      6  C   UNL d   1      30.720  16.738 -24.590  0.00  0.00     0.021 A 
ATOM      7  C   UNL d   1      31.657  15.682 -23.736  0.00  0.00     0.021 A 
ATOM      8  C   UNL d   1      30.535  15.988 -24.520  0.00  0.00     0.002 A 
ATOM      9  C   UNL d   1      31.004  15.459 -24.093  0.00  0.00     0.002 A 
ENDROOT
BRANCH   2  10
ATOM     10  C   UNL d   1      32.652  18.486 -23.803  0.00  0.00     0.161 C 
BRANCH  10  11
ATOM     11  O   UNL d   1      32.889  18.897 -23.131  0.00  0.00    -0.302 OA
BRANCH  11  12
ATOM     12  C   UNL d   1      32.977  19.607 -22.720  0.00  0.00     0.100 A 
ATOM     13  C   UNL d   1      33.153  20.302 -23.129  0.00  0.00     0.026 A 
ATOM     14  C   UNL d   1      33.241  21.007 -22.720  0.00  0.00     0.013 A 
ATOM     15  C   UNL d   1      33.153  21.027 -21.899  0.00  0.00     0.058 A 
ATOM     16  C   UNL d   1      32.976  20.328 -21.489  0.00  0.00     0.013 A 
ATOM     17 CL   UNL d   1      33.241  21.733 -21.490  0.00  0.00    -0.082 Cl
ATOM     18  C   UNL d   1      32.888  19.622 -21.898  0.00  0.00     0.026 A 
ENDBRANCH  11  12
ENDBRANCH  10  11
ENDBRANCH   2  10
TORSDOF 3
ENDMDL
