MODEL 1
REMARK VINA RESULT:      11.1      0.000      0.000
REMARK  6 active torsions:
REMARK  status: ('A' for Active; 'I' for Inactive)
REMARK       I    between atoms: N_2  and  C_1 
REMARK    1  A    between atoms: C_3  and  C_1 
REMARK    2  A    between atoms: C_5  and  N_2 
REMARK    3  A    between atoms: C_6  and  C_3 
REMARK    4  A    between atoms: C_8  and  C_5 
REMARK    5  A    between atoms: O_7  and  C_6 
REMARK    6  A    between atoms: C_9  and  O_7 
ROOT
ATOM      1  C   UNL d   1      13.851  11.947  -1.023  0.00  0.00     0.330 C 
ATOM      2  N   UNL d   1      14.399  12.284  -0.518  0.00  0.00    -0.362 NA
ATOM      3  O   UNL d   1      13.098  11.779  -0.757  0.00  0.00    -0.251 OA
ENDROOT
BRANCH   1   4
ATOM      4  C   UNL d   1      14.060  11.781  -1.792  0.00  0.00     0.103 C 
BRANCH   4   5
ATOM      5  C   UNL d   1      13.519  11.939  -2.403  0.00  0.00     0.129 C 
BRANCH   5   6
ATOM      6  O   UNL d   1      13.667  12.563  -2.936  0.00  0.00    -0.305 OA
BRANCH   6   7
ATOM      7  C   UNL d   1      13.368  12.532  -3.706  0.00  0.00     0.100 A 
ATOM      8  C   UNL d   1      13.196  11.819  -4.045  0.00  0.00     0.025 A 
ATOM      9  C   UNL d   1      12.894  11.779  -4.824  0.00  0.00     0.002 A 
ATOM     10  C   UNL d   1      12.775  12.488  -5.238  0.00  0.00     0.000 A 
ATOM     11  C   UNL d   1      12.947  13.201  -4.899  0.00  0.00     0.002 A 
ATOM     12  C   UNL d   1      13.244  13.234  -4.133  0.00  0.00     0.025 A 
ENDBRANCH   6   7
ENDBRANCH   5   6
ENDBRANCH   4   5
ENDBRANCH   1   4
BRANCH   2  13
ATOM     13  C   UNL d   1      14.962  12.623  -0.022  0.00  0.00     0.165 C 
BRANCH  13  14
ATOM     14  C   UNL d   1      15.105  13.431  -0.030  0.00  0.00     0.032 A 
ATOM     15  C   UNL d   1      15.881  13.710  -0.028  0.00  0.00     0.003 A 
ATOM     16  C   UNL d   1      16.027  14.530  -0.035  0.00  0.00     0.000 A 
ATOM     17  C   UNL d   1      15.394  15.063  -0.044  0.00  0.00     0.000 A 
ATOM     18  C   UNL d   1      14.624  14.778  -0.046  0.00  0.00     0.000 A 
ATOM     19  C   UNL d   1      14.479  13.958  -0.039  0.00  0.00     0.003 A 
ENDBRANCH  13  14
ENDBRANCH   2  13
TORSDOF 6
ENDMDL
