MODEL 1
REMARK VINA RESULT:      64.4      0.000      0.000
REMARK  4 active torsions:
REMARK  status: ('A' for Active; 'I' for Inactive)
REMARK       I    between atoms: C_4  and  N_1 
REMARK    1  A    between atoms: C_7  and  C_3 
REMARK    2  A    between atoms: C_8  and  C_4 
REMARK    3  A    between atoms: C_10  and  C_5 
REMARK    4  A    between atoms: O_23  and  C_18 
ROOT
ATOM      1  N   UNL d   1     -51.460  26.166  33.697  0.00  0.00    -0.194 N 
ATOM      2  N   UNL d   1     -51.198  26.937  33.785  0.00  0.00    -0.163 NA
ATOM      3  C   UNL d   1     -50.800  25.669  33.684  0.00  0.00     0.091 A 
ATOM      4  C   UNL d   1     -52.267  25.913  33.631  0.00  0.00     0.286 C 
ATOM      5  C   UNL d   1     -50.373  26.914  33.826  0.00  0.00     0.103 A 
ATOM      6  C   UNL d   1     -50.137  26.141  33.764  0.00  0.00     0.040 A 
ATOM      7  O   UNL d   1     -52.867  26.485  33.654  0.00  0.00    -0.265 OA
ENDROOT
BRANCH   5   8
ATOM      8  C   UNL d   1     -49.882  27.571  33.914  0.00  0.00     0.019 A 
ATOM      9  C   UNL d   1     -49.808  28.124  33.307  0.00  0.00     0.004 A 
ATOM     10  C   UNL d   1     -49.316  28.781  33.396  0.00  0.00     0.024 A 
ATOM     11  C   UNL d   1     -48.894  28.886  34.100  0.00  0.00     0.094 A 
ATOM     12  C   UNL d   1     -48.966  28.332  34.711  0.00  0.00     0.024 A 
ATOM     13  C   UNL d   1     -49.460  27.676  34.619  0.00  0.00     0.004 A 
BRANCH  11  14
ATOM     14  O   UNL d   1     -48.401  29.543  34.193  0.00  0.00    -0.328 OA
ATOM     15  C   UNL d   1     -47.818  29.545  34.780  0.00  0.00     0.181 C 
ENDBRANCH  11  14
ENDBRANCH   5   8
BRANCH   3  16
ATOM     16  C   UNL d   1     -50.824  24.842  33.604  0.00  0.00     0.057 A 
ATOM     17  C   UNL d   1     -50.137  24.446  33.416  0.00  0.00     0.197 A 
ATOM     18  O   UNL d   1     -49.439  24.842  33.307  0.00  0.00    -0.286 OA
ATOM     19  C   UNL d   1     -50.157  23.615  33.334  0.00  0.00     0.042 A 
ATOM     20  C   UNL d   1     -50.861  23.190  33.441  0.00  0.00     0.003 A 
ATOM     21  C   UNL d   1     -51.533  23.620  33.629  0.00  0.00     0.000 A 
ATOM     22  C   UNL d   1     -51.518  24.417  33.709  0.00  0.00     0.005 A 
ENDBRANCH   3  16
BRANCH   4  23
ATOM     23  C   UNL d   1     -52.444  25.130  33.547  0.00  0.00     0.087 A 
ATOM     24  S   UNL d   1     -53.168  24.811  33.650  0.00  0.00    -0.082 SA
ATOM     25  C   UNL d   1     -53.103  23.983  33.508  0.00  0.00     0.036 A 
ATOM     26  C   UNL d   1     -52.310  23.822  33.315  0.00  0.00     0.008 A 
ATOM     27  C   UNL d   1     -51.902  24.536  33.340  0.00  0.00     0.012 A 
ENDBRANCH   4  23
TORSDOF 4
ENDMDL
