MODEL 1
REMARK VINA RESULT:      24.1      0.000      0.000
REMARK  5 active torsions:
REMARK  status: ('A' for Active; 'I' for Inactive)
REMARK    1  A    between atoms: C_2  and  N_1 
REMARK    2  A    between atoms: C_4  and  C_7 
REMARK    3  A    between atoms: N_17  and  C_10 
REMARK    4  A    between atoms: C_20  and  N_17 
REMARK    5  A    between atoms: C_21  and  C_20 
ROOT
ATOM      1  C   UNL d   1      14.681  12.342  -2.099  0.00  0.00     0.144 A 
ATOM      2  C   UNL d   1      14.465  12.479  -2.890  0.00  0.00     0.027 A 
ATOM      3  C   UNL d   1      13.706  12.263  -3.156  0.00  0.00     0.021 A 
ATOM      4  C   UNL d   1      14.145  11.993  -1.580  0.00  0.00     0.103 A 
ATOM      5  C   UNL d   1      13.169  11.911  -2.628  0.00  0.00     0.003 A 
ATOM      6  C   UNL d   1      13.394  11.779  -1.843  0.00  0.00     0.021 A 
ENDROOT
BRANCH   3   7
ATOM      7  C   UNL d   1      13.489  12.398  -3.938  0.00  0.00     0.103 A 
ATOM      8  N   UNL d   1      13.518  11.781  -4.488  0.00  0.00    -0.145 NA
ATOM      9  N   UNL d   1      13.301  11.915  -5.271  0.00  0.00    -0.106 NA
ATOM     10  C   UNL d   1      13.055  12.666  -5.508  0.00  0.00     0.297 A 
ATOM     11  C   UNL d   1      13.026  13.284  -4.958  0.00  0.00     0.066 A 
ATOM     12  O   UNL d   1      12.839  12.801  -6.290  0.00  0.00    -0.264 OA
ATOM     13  C   UNL d   1      13.244  13.151  -4.168  0.00  0.00     0.024 A 
ATOM     14  C   UNL d   1      13.215  13.767  -3.623  0.00  0.00     0.002 C 
ENDBRANCH   3   7
BRANCH   1  15
ATOM     15  N   UNL d   1      15.438  12.559  -1.842  0.00  0.00    -0.112 N 
ATOM     16  O   UNL d   1      16.063  12.018  -1.915  0.00  0.00    -0.532 OA
ATOM     17  O   UNL d   1      15.573  13.304  -1.517  0.00  0.00    -0.532 OA
ENDBRANCH   1  15
BRANCH   4  18
ATOM     18  N   UNL d   1      14.362  11.858  -0.797  0.00  0.00    -0.239 NA
BRANCH  18  19
ATOM     19  C   UNL d   1      14.141  12.396  -0.208  0.00  0.00     0.144 C 
BRANCH  19  20
ATOM     20  C   UNL d   1      13.347  12.500  -0.014  0.00  0.00     0.255 C 
ATOM     21  O   UNL d   1      13.006  13.249  -0.029  0.00  0.00    -0.281 OA
ENDBRANCH  19  20
ENDBRANCH  18  19
ENDBRANCH   4  18
TORSDOF 5
ENDMDL
MODEL 2
REMARK VINA RESULT:      24.6      2.453      3.944
REMARK  5 active torsions:
REMARK  status: ('A' for Active; 'I' for Inactive)
REMARK    1  A    between atoms: C_2  and  N_1 
REMARK    2  A    between atoms: C_4  and  C_7 
REMARK    3  A    between atoms: N_17  and  C_10 
REMARK    4  A    between atoms: C_20  and  N_17 
REMARK    5  A    between atoms: C_21  and  C_20 
ROOT
ATOM      1  C   UNL d   1      14.679  12.787  -1.013  0.00  0.00     0.144 A 
ATOM      2  C   UNL d   1      14.903  13.550  -0.772  0.00  0.00     0.027 A 
ATOM      3  C   UNL d   1      14.755  14.201  -1.269  0.00  0.00     0.021 A 
ATOM      4  C   UNL d   1      14.311  12.675  -1.741  0.00  0.00     0.103 A 
ATOM      5  C   UNL d   1      14.384  14.084  -2.003  0.00  0.00     0.003 A 
ATOM      6  C   UNL d   1      14.165  13.320  -2.233  0.00  0.00     0.021 A 
ENDROOT
BRANCH   3   7
ATOM      7  C   UNL d   1      14.976  14.958  -1.034  0.00  0.00     0.103 A 
ATOM      8  N   UNL d   1      15.204  15.098  -0.252  0.00  0.00    -0.145 NA
ATOM      9  N   UNL d   1      15.426  15.855  -0.016  0.00  0.00    -0.106 NA
ATOM     10  C   UNL d   1      15.420  16.475  -0.560  0.00  0.00     0.297 A 
ATOM     11  C   UNL d   1      15.192  16.336  -1.343  0.00  0.00     0.066 A 
ATOM     12  O   UNL d   1      15.641  17.233  -0.325  0.00  0.00    -0.264 OA
ATOM     13  C   UNL d   1      14.968  15.573  -1.584  0.00  0.00     0.024 A 
ATOM     14  C   UNL d   1      14.742  15.436  -2.363  0.00  0.00     0.002 C 
ENDBRANCH   3   7
BRANCH   1  15
ATOM     15  N   UNL d   1      14.829  12.143  -0.513  0.00  0.00    -0.112 N 
ATOM     16  O   UNL d   1      14.218  11.849  -0.035  0.00  0.00    -0.532 OA
ATOM     17  O   UNL d   1      15.577  11.797  -0.487  0.00  0.00    -0.532 OA
ENDBRANCH   1  15
BRANCH   4  18
ATOM     18  N   UNL d   1      14.090  11.917  -1.977  0.00  0.00    -0.239 NA
BRANCH  18  19
ATOM     19  C   UNL d   1      13.439  11.813  -2.477  0.00  0.00     0.144 C 
BRANCH  19  20
ATOM     20  C   UNL d   1      13.541  11.779  -3.294  0.00  0.00     0.255 C 
ATOM     21  O   UNL d   1      12.931  11.995  -3.803  0.00  0.00    -0.281 OA
ENDBRANCH  19  20
ENDBRANCH  18  19
ENDBRANCH   4  18
TORSDOF 5
ENDMDL
