MODEL 1
REMARK VINA RESULT:      -2.8      0.000      0.000
REMARK  3 active torsions:
REMARK  status: ('A' for Active; 'I' for Inactive)
REMARK    1  A    between atoms: C_6  and  C_2 
REMARK    2  A    between atoms: C_8  and  C_3 
REMARK    3  A    between atoms: C_7  and  C_6 
ROOT
ATOM      1  N   UNL d   1      31.637  17.039 -23.468  0.00  0.00    -0.238 NA
ATOM      2  C   UNL d   1      32.402  17.107 -23.763  0.00  0.00     0.113 A 
ATOM      3  C   UNL d   1      31.174  16.564 -23.996  0.00  0.00     0.088 A 
ATOM      4  S   UNL d   1      32.424  16.679 -24.471  0.00  0.00    -0.066 SA
ATOM      5  C   UNL d   1      31.703  16.349 -24.626  0.00  0.00     0.056 A 
ENDROOT
BRANCH   3   6
ATOM      6  C   UNL d   1      30.390  16.391 -23.862  0.00  0.00     0.018 A 
ATOM      7  C   UNL d   1      30.157  15.818 -23.338  0.00  0.00     0.002 A 
ATOM      8  C   UNL d   1      29.373  15.645 -23.204  0.00  0.00     0.011 A 
ATOM      9  C   UNL d   1      28.786  16.076 -23.625  0.00  0.00     0.058 A 
ATOM     10  C   UNL d   1      29.009  16.659 -24.159  0.00  0.00     0.011 A 
ATOM     11 CL   UNL d   1      27.982  15.923 -23.510  0.00  0.00    -0.082 Cl
ATOM     12  C   UNL d   1      29.811  16.825 -24.286  0.00  0.00     0.002 A 
ENDBRANCH   3   6
BRANCH   2  13
ATOM     13  C   UNL d   1      33.035  17.517 -23.431  0.00  0.00     0.058 C 
BRANCH  13  14
ATOM     14  C   UNL d   1      33.025  18.335 -23.394  0.00  0.00     0.159 C 
ATOM     15  S   UNL d   1      33.241  18.866 -24.040  0.00  0.00    -0.055 SA
ATOM     16  N   UNL d   1      32.799  18.616 -22.716  0.00  0.00    -0.136 N 
ENDBRANCH  13  14
ENDBRANCH   2  13
TORSDOF 3
ENDMDL
MODEL 2
REMARK VINA RESULT:      -2.8      2.224      3.698
REMARK  3 active torsions:
REMARK  status: ('A' for Active; 'I' for Inactive)
REMARK    1  A    between atoms: C_6  and  C_2 
REMARK    2  A    between atoms: C_8  and  C_3 
REMARK    3  A    between atoms: C_7  and  C_6 
ROOT
ATOM      1  N   UNL d   1      30.766  16.627 -23.945  0.00  0.00    -0.238 NA
ATOM      2  C   UNL d   1      30.523  15.862 -23.766  0.00  0.00     0.113 A 
ATOM      3  C   UNL d   1      31.593  16.705 -23.779  0.00  0.00     0.088 A 
ATOM      4  S   UNL d   1      31.190  15.459 -23.489  0.00  0.00    -0.066 SA
ATOM      5  C   UNL d   1      31.836  15.944 -23.489  0.00  0.00     0.056 A 
ENDROOT
BRANCH   3   6
ATOM      6  C   UNL d   1      32.005  17.398 -23.896  0.00  0.00     0.018 A 
ATOM      7  C   UNL d   1      32.344  17.809 -23.285  0.00  0.00     0.002 A 
ATOM      8  C   UNL d   1      32.754  18.501 -23.403  0.00  0.00     0.011 A 
ATOM      9  C   UNL d   1      32.829  18.800 -24.186  0.00  0.00     0.058 A 
ATOM     10  C   UNL d   1      32.490  18.392 -24.814  0.00  0.00     0.011 A 
ATOM     11 CL   UNL d   1      33.241  19.501 -24.337  0.00  0.00    -0.082 Cl
ATOM     12  C   UNL d   1      32.074  17.689 -24.680  0.00  0.00     0.002 A 
ENDBRANCH   3   6
BRANCH   2  13
ATOM     13  C   UNL d   1      29.766  15.543 -23.843  0.00  0.00     0.058 C 
BRANCH  13  14
ATOM     14  C   UNL d   1      29.168  15.771 -23.333  0.00  0.00     0.159 C 
ATOM     15  S   UNL d   1      28.523  16.311 -23.530  0.00  0.00    -0.055 SA
ATOM     16  N   UNL d   1      29.216  15.460 -22.633  0.00  0.00    -0.136 N 
ENDBRANCH  13  14
ENDBRANCH   2  13
TORSDOF 3
ENDMDL
MODEL 3
REMARK VINA RESULT:      -2.5      2.444      3.577
REMARK  3 active torsions:
REMARK  status: ('A' for Active; 'I' for Inactive)
REMARK    1  A    between atoms: C_6  and  C_2 
REMARK    2  A    between atoms: C_8  and  C_3 
REMARK    3  A    between atoms: C_7  and  C_6 
ROOT
ATOM      1  N   UNL d   1      32.948  19.203 -22.127  0.00  0.00    -0.238 NA
ATOM      2  C   UNL d   1      33.143  19.999 -22.054  0.00  0.00     0.113 A 
ATOM      3  C   UNL d   1      32.924  18.995 -22.948  0.00  0.00     0.088 A 
ATOM      4  S   UNL d   1      33.241  20.292 -22.821  0.00  0.00    -0.066 SA
ATOM      5  C   UNL d   1      33.115  19.709 -23.366  0.00  0.00     0.056 A 
ENDROOT
BRANCH   3   6
ATOM      6  C   UNL d   1      32.747  18.243 -23.208  0.00  0.00     0.018 A 
ATOM      7  C   UNL d   1      32.116  18.091 -23.694  0.00  0.00     0.002 A 
ATOM      8  C   UNL d   1      31.939  17.341 -23.954  0.00  0.00     0.011 A 
ATOM      9  C   UNL d   1      32.429  16.702 -23.709  0.00  0.00     0.058 A 
ATOM     10  C   UNL d   1      33.071  16.843 -23.217  0.00  0.00     0.011 A 
ATOM     11 CL   UNL d   1      32.274  15.928 -23.957  0.00  0.00    -0.082 Cl
ATOM     12  C   UNL d   1      33.240  17.612 -22.960  0.00  0.00     0.002 A 
ENDBRANCH   3   6
BRANCH   2  13
ATOM     13  C   UNL d   1      33.227  20.435 -21.359  0.00  0.00     0.058 C 
BRANCH  13  14
ATOM     14  C   UNL d   1      32.825  21.141 -21.262  0.00  0.00     0.159 C 
ATOM     15  S   UNL d   1      33.136  21.923 -21.459  0.00  0.00    -0.055 SA
ATOM     16  N   UNL d   1      32.119  21.064 -20.971  0.00  0.00    -0.136 N 
ENDBRANCH  13  14
ENDBRANCH   2  13
TORSDOF 3
ENDMDL
MODEL 4
REMARK VINA RESULT:      -2.4      3.459      5.074
REMARK  3 active torsions:
REMARK  status: ('A' for Active; 'I' for Inactive)
REMARK    1  A    between atoms: C_6  and  C_2 
REMARK    2  A    between atoms: C_8  and  C_3 
REMARK    3  A    between atoms: C_7  and  C_6 
ROOT
ATOM      1  N   UNL d   1      33.028  19.883 -23.028  0.00  0.00    -0.238 NA
ATOM      2  C   UNL d   1      33.164  19.085 -23.175  0.00  0.00     0.113 A 
ATOM      3  C   UNL d   1      33.020  20.017 -22.191  0.00  0.00     0.088 A 
ATOM      4  S   UNL d   1      33.241  18.717 -22.438  0.00  0.00    -0.066 SA
ATOM      5  C   UNL d   1      33.158  19.255 -21.841  0.00  0.00     0.056 A 
ENDROOT
BRANCH   3   6
ATOM      6  C   UNL d   1      32.898  20.752 -21.862  0.00  0.00     0.018 A 
ATOM      7  C   UNL d   1      32.512  20.851 -21.156  0.00  0.00     0.002 A 
ATOM      8  C   UNL d   1      32.391  21.586 -20.828  0.00  0.00     0.011 A 
ATOM      9  C   UNL d   1      32.676  22.264 -21.235  0.00  0.00     0.058 A 
ATOM     10  C   UNL d   1      33.069  22.176 -21.951  0.00  0.00     0.011 A 
ATOM     11 CL   UNL d   1      32.568  23.023 -20.927  0.00  0.00    -0.082 Cl
ATOM     12  C   UNL d   1      33.186  21.423 -22.275  0.00  0.00     0.002 A 
ENDBRANCH   3   6
BRANCH   2  13
ATOM     13  C   UNL d   1      33.216  18.710 -23.907  0.00  0.00     0.058 C 
BRANCH  13  14
ATOM     14  C   UNL d   1      32.543  18.427 -24.276  0.00  0.00     0.159 C 
ATOM     15  S   UNL d   1      32.074  17.753 -24.009  0.00  0.00    -0.055 SA
ATOM     16  N   UNL d   1      32.342  18.818 -24.905  0.00  0.00    -0.136 N 
ENDBRANCH  13  14
ENDBRANCH   2  13
TORSDOF 3
ENDMDL
MODEL 5
REMARK VINA RESULT:      -1.3      2.458      3.825
REMARK  3 active torsions:
REMARK  status: ('A' for Active; 'I' for Inactive)
REMARK    1  A    between atoms: C_6  and  C_2 
REMARK    2  A    between atoms: C_8  and  C_3 
REMARK    3  A    between atoms: C_7  and  C_6 
ROOT
ATOM      1  N   UNL d   1      29.483  16.402 -24.231  0.00  0.00    -0.238 NA
ATOM      2  C   UNL d   1      28.813  16.840 -24.425  0.00  0.00     0.113 A 
ATOM      3  C   UNL d   1      30.173  16.810 -24.505  0.00  0.00     0.088 A 
ATOM      4  S   UNL d   1      29.078  17.518 -24.818  0.00  0.00    -0.066 SA
ATOM      5  C   UNL d   1      29.884  17.518 -24.875  0.00  0.00     0.056 A 
ENDROOT
BRANCH   3   6
ATOM      6  C   UNL d   1      30.928  16.522 -24.399  0.00  0.00     0.018 A 
ATOM      7  C   UNL d   1      31.176  15.827 -24.735  0.00  0.00     0.002 A 
ATOM      8  C   UNL d   1      31.929  15.539 -24.629  0.00  0.00     0.011 A 
ATOM      9  C   UNL d   1      32.468  15.978 -24.156  0.00  0.00     0.058 A 
ATOM     10  C   UNL d   1      32.229  16.683 -23.810  0.00  0.00     0.011 A 
ATOM     11 CL   UNL d   1      33.240  15.710 -24.030  0.00  0.00    -0.082 Cl
ATOM     12  C   UNL d   1      31.459  16.966 -23.925  0.00  0.00     0.002 A 
ENDBRANCH   3   6
BRANCH   2  13
ATOM     13  C   UNL d   1      28.026  16.653 -24.266  0.00  0.00     0.058 C 
BRANCH  13  14
ATOM     14  C   UNL d   1      27.822  16.290 -23.561  0.00  0.00     0.159 C 
ATOM     15  S   UNL d   1      27.628  15.453 -23.469  0.00  0.00    -0.055 SA
ATOM     16  N   UNL d   1      27.812  16.761 -22.956  0.00  0.00    -0.136 N 
ENDBRANCH  13  14
ENDBRANCH   2  13
TORSDOF 3
ENDMDL
