MODEL 1
REMARK VINA RESULT:      24.3      0.000      0.000
REMARK  2 active torsions:
REMARK  status: ('A' for Active; 'I' for Inactive)
REMARK    1  A    between atoms: C_9  and  C_1 
REMARK    2  A    between atoms: O_13  and  C_11 
ROOT
ATOM      1  C   UNL d   1      58.183  49.673  50.921  0.00  0.00     0.064 A 
ATOM      2  C   UNL d   1      58.885  49.639  50.499  0.00  0.00     0.199 A 
ATOM      3  C   UNL d   1      59.624  49.638  50.875  0.00  0.00     0.062 A 
ATOM      4  C   UNL d   1      58.211  49.707  51.768  0.00  0.00     0.126 A 
ATOM      5  C   UNL d   1      59.652  49.672  51.700  0.00  0.00     0.105 A 
ATOM      6  O   UNL d   1      58.939  49.707  52.155  0.00  0.00    -0.305 OA
ATOM      7  C   UNL d   1      60.298  49.606  50.453  0.00  0.00     0.007 A 
ATOM      8  C   UNL d   1      60.353  49.673  52.110  0.00  0.00     0.049 A 
ATOM      9  O   UNL d   1      58.857  49.606  49.679  0.00  0.00    -0.286 OA
ATOM     10  C   UNL d   1      61.054  49.639  51.676  0.00  0.00     0.096 A 
ATOM     11  C   UNL d   1      61.026  49.605  50.830  0.00  0.00     0.024 A 
ENDROOT
BRANCH   1  12
ATOM     12  C   UNL d   1      57.482  49.672  50.522  0.00  0.00     0.005 A 
ATOM     13  C   UNL d   1      56.755  49.634  50.947  0.00  0.00     0.000 A 
ATOM     14  C   UNL d   1      56.053  49.633  50.547  0.00  0.00     0.000 A 
ATOM     15  C   UNL d   1      56.035  49.669  49.722  0.00  0.00     0.000 A 
ATOM     16  C   UNL d   1      56.752  49.707  49.289  0.00  0.00     0.000 A 
ATOM     17  C   UNL d   1      57.464  49.708  49.696  0.00  0.00     0.000 A 
ENDBRANCH   1  12
BRANCH  10  18
ATOM     18  O   UNL d   1      61.796  49.641  52.113  0.00  0.00    -0.328 OA
ATOM     19  C   UNL d   1      61.767  49.704  52.931  0.00  0.00     0.181 C 
ENDBRANCH  10  18
TORSDOF 2
ENDMDL
