MODEL 1
REMARK VINA RESULT:      43.6      0.000      0.000
REMARK  5 active torsions:
REMARK  status: ('A' for Active; 'I' for Inactive)
REMARK    1  A    between atoms: C_12  and  N_1 
REMARK    2  A    between atoms: C_6  and  C_5 
REMARK    3  A    between atoms: C_7  and  C_6 
REMARK       I    between atoms: N_9  and  C_7 
REMARK    4  A    between atoms: C_13  and  N_9 
REMARK    5  A    between atoms: C_16  and  C_12 
ROOT
ATOM      1  N   UNL d   1     -51.466  24.821  33.307  0.00  0.00    -0.235 N 
ATOM      2  C   UNL d   1     -50.655  24.667  33.308  0.00  0.00     0.298 A 
ATOM      3  C   UNL d   1     -51.581  25.629  33.307  0.00  0.00     0.274 A 
ATOM      4  S   UNL d   1     -50.264  25.395  33.308  0.00  0.00    -0.022 SA
ATOM      5  C   UNL d   1     -50.835  25.989  33.307  0.00  0.00     0.095 A 
ATOM      6  O   UNL d   1     -50.289  23.926  33.309  0.00  0.00    -0.259 OA
ATOM      7  O   UNL d   1     -52.301  26.017  33.306  0.00  0.00    -0.266 OA
ENDROOT
BRANCH   5   8
ATOM      8  C   UNL d   1     -50.688  26.805  33.307  0.00  0.00     0.074 C 
BRANCH   8   9
ATOM      9  C   UNL d   1     -50.028  27.104  33.702  0.00  0.00     0.280 C 
ATOM     10  N   UNL d   1     -50.032  27.878  33.986  0.00  0.00    -0.208 NA
ATOM     11  O   UNL d   1     -49.360  26.625  33.813  0.00  0.00    -0.265 OA
BRANCH  10  12
ATOM     12  C   UNL d   1     -49.372  28.174  34.379  0.00  0.00     0.085 A 
ATOM     13  C   UNL d   1     -49.019  27.739  34.982  0.00  0.00     0.019 A 
ATOM     14  C   UNL d   1     -48.357  28.037  35.376  0.00  0.00     0.002 A 
ATOM     15  C   UNL d   1     -48.049  28.773  35.165  0.00  0.00     0.000 A 
ATOM     16  C   UNL d   1     -48.405  29.211  34.558  0.00  0.00     0.002 A 
ATOM     17  C   UNL d   1     -49.064  28.907  34.171  0.00  0.00     0.019 A 
ENDBRANCH  10  12
ENDBRANCH   8   9
ENDBRANCH   5   8
BRANCH   1  18
ATOM     18  C   UNL d   1     -52.059  24.251  33.307  0.00  0.00     0.086 C 
BRANCH  18  19
ATOM     19  C   UNL d   1     -52.554  24.157  33.957  0.00  0.00     0.019 C 
ATOM     20  C   UNL d   1     -52.999  23.472  34.042  0.00  0.00     0.002 C 
ENDBRANCH  18  19
ENDBRANCH   1  18
TORSDOF 5
ENDMDL
MODEL 2
REMARK VINA RESULT:      43.7      1.005      4.742
REMARK  5 active torsions:
REMARK  status: ('A' for Active; 'I' for Inactive)
REMARK    1  A    between atoms: C_12  and  N_1 
REMARK    2  A    between atoms: C_6  and  C_5 
REMARK    3  A    between atoms: C_7  and  C_6 
REMARK       I    between atoms: N_9  and  C_7 
REMARK    4  A    between atoms: C_13  and  N_9 
REMARK    5  A    between atoms: C_16  and  C_12 
ROOT
ATOM      1  N   UNL d   1     -49.155  27.096  33.688  0.00  0.00    -0.235 N 
ATOM      2  C   UNL d   1     -49.924  27.369  33.556  0.00  0.00     0.298 A 
ATOM      3  C   UNL d   1     -49.165  26.280  33.712  0.00  0.00     0.274 A 
ATOM      4  S   UNL d   1     -50.415  26.706  33.499  0.00  0.00    -0.022 SA
ATOM      5  C   UNL d   1     -49.948  26.035  33.595  0.00  0.00     0.095 A 
ATOM      6  O   UNL d   1     -50.168  28.155  33.492  0.00  0.00    -0.259 OA
ATOM      7  O   UNL d   1     -48.521  25.790  33.830  0.00  0.00    -0.266 OA
ENDROOT
BRANCH   5   8
ATOM      8  C   UNL d   1     -50.214  25.251  33.578  0.00  0.00     0.074 C 
BRANCH   8   9
ATOM      9  C   UNL d   1     -51.020  25.092  33.495  0.00  0.00     0.280 C 
ATOM     10  N   UNL d   1     -51.297  24.318  33.556  0.00  0.00    -0.208 NA
ATOM     11  O   UNL d   1     -51.551  25.712  33.350  0.00  0.00    -0.265 OA
BRANCH  10  12
ATOM     12  C   UNL d   1     -52.100  24.162  33.473  0.00  0.00     0.085 A 
ATOM     13  C   UNL d   1     -52.641  24.781  33.438  0.00  0.00     0.019 A 
ATOM     14  C   UNL d   1     -53.448  24.623  33.354  0.00  0.00     0.002 A 
ATOM     15  C   UNL d   1     -53.713  23.843  33.306  0.00  0.00     0.000 A 
ATOM     16  C   UNL d   1     -53.167  23.220  33.342  0.00  0.00     0.002 A 
ATOM     17  C   UNL d   1     -52.366  23.385  33.425  0.00  0.00     0.019 A 
ENDBRANCH  10  12
ENDBRANCH   8   9
ENDBRANCH   5   8
BRANCH   1  18
ATOM     18  C   UNL d   1     -48.490  27.572  33.778  0.00  0.00     0.086 C 
BRANCH  18  19
ATOM     19  C   UNL d   1     -48.397  28.043  34.445  0.00  0.00     0.019 C 
ATOM     20  C   UNL d   1     -47.660  28.353  34.633  0.00  0.00     0.002 C 
ENDBRANCH  18  19
ENDBRANCH   1  18
TORSDOF 5
ENDMDL
MODEL 3
REMARK VINA RESULT:      44.6      0.748      1.260
REMARK  5 active torsions:
REMARK  status: ('A' for Active; 'I' for Inactive)
REMARK    1  A    between atoms: C_12  and  N_1 
REMARK    2  A    between atoms: C_6  and  C_5 
REMARK    3  A    between atoms: C_7  and  C_6 
REMARK       I    between atoms: N_9  and  C_7 
REMARK    4  A    between atoms: C_13  and  N_9 
REMARK    5  A    between atoms: C_16  and  C_12 
ROOT
ATOM      1  N   UNL d   1     -51.896  25.270  33.311  0.00  0.00    -0.235 N 
ATOM      2  C   UNL d   1     -52.132  26.062  33.311  0.00  0.00     0.298 A 
ATOM      3  C   UNL d   1     -51.080  25.239  33.317  0.00  0.00     0.274 A 
ATOM      4  S   UNL d   1     -51.448  26.525  33.316  0.00  0.00    -0.022 SA
ATOM      5  C   UNL d   1     -50.798  26.018  33.320  0.00  0.00     0.095 A 
ATOM      6  O   UNL d   1     -52.906  26.350  33.306  0.00  0.00    -0.259 OA
ATOM      7  O   UNL d   1     -50.620  24.562  33.319  0.00  0.00    -0.266 OA
ENDROOT
BRANCH   5   8
ATOM      8  C   UNL d   1     -50.002  26.247  33.326  0.00  0.00     0.074 C 
BRANCH   8   9
ATOM      9  C   UNL d   1     -49.753  26.855  33.826  0.00  0.00     0.280 C 
ATOM     10  N   UNL d   1     -49.080  27.293  33.640  0.00  0.00    -0.208 NA
ATOM     11  O   UNL d   1     -50.181  27.025  34.516  0.00  0.00    -0.265 OA
BRANCH  10  12
ATOM     12  C   UNL d   1     -48.833  27.898  34.140  0.00  0.00     0.085 A 
ATOM     13  C   UNL d   1     -48.370  27.728  34.799  0.00  0.00     0.019 A 
ATOM     14  C   UNL d   1     -48.123  28.337  35.301  0.00  0.00     0.002 A 
ATOM     15  C   UNL d   1     -48.341  29.117  35.141  0.00  0.00     0.000 A 
ATOM     16  C   UNL d   1     -48.807  29.287  34.476  0.00  0.00     0.002 A 
ATOM     17  C   UNL d   1     -49.049  28.675  33.982  0.00  0.00     0.019 A 
ENDBRANCH  10  12
ENDBRANCH   8   9
ENDBRANCH   5   8
BRANCH   1  18
ATOM     18  C   UNL d   1     -52.402  24.623  33.307  0.00  0.00     0.086 C 
BRANCH  18  19
ATOM     19  C   UNL d   1     -52.115  23.861  33.424  0.00  0.00     0.019 C 
ATOM     20  C   UNL d   1     -52.633  23.227  33.476  0.00  0.00     0.002 C 
ENDBRANCH  18  19
ENDBRANCH   1  18
TORSDOF 5
ENDMDL
