MODEL 1
REMARK VINA RESULT:      -8.2      0.000      0.000
REMARK  6 active torsions:
REMARK  status: ('A' for Active; 'I' for Inactive)
REMARK    1  A    between atoms: C_2  and  S_1 
REMARK    2  A    between atoms: C_13  and  S_1 
REMARK    3  A    between atoms: C_5  and  C_3 
REMARK    4  A    between atoms: C_19  and  C_5 
REMARK    5  A    between atoms: O_25  and  C_22 
REMARK    6  A    between atoms: C_30  and  O_25 
ROOT
ATOM      1  C   UNL d   1      52.898  33.164  53.343  0.00  0.00     0.094 A 
ATOM      2  C   UNL d   1      53.457  33.717  53.608  0.00  0.00     0.069 A 
ATOM      3  C   UNL d   1      53.058  32.358  53.392  0.00  0.00     0.031 A 
ATOM      4  C   UNL d   1      53.776  32.097  53.707  0.00  0.00     0.084 A 
ATOM      5  C   UNL d   1      52.502  31.812  53.128  0.00  0.00     0.029 A 
ATOM      6  N   UNL d   1      54.333  32.643  53.971  0.00  0.00    -0.244 NA
ATOM      7  C   UNL d   1      54.175  33.457  53.923  0.00  0.00     0.103 A 
ATOM      8  C   UNL d   1      53.936  31.291  53.756  0.00  0.00     0.046 A 
ATOM      9  C   UNL d   1      52.662  31.007  53.177  0.00  0.00     0.123 A 
ATOM     10  C   UNL d   1      53.379  30.746  53.492  0.00  0.00     0.124 A 
ATOM     11  O   UNL d   1      52.105  30.460  52.913  0.00  0.00    -0.301 OA
ATOM     12  O   UNL d   1      53.539  29.939  53.541  0.00  0.00    -0.301 OA
ATOM     13  C   UNL d   1      52.981  29.389  53.276  0.00  0.00     0.149 A 
ATOM     14  C   UNL d   1      52.263  29.650  52.962  0.00  0.00     0.149 A 
ENDROOT
BRANCH   1  15
ATOM     15  S   UNL d   1      52.178  33.413  53.027  0.00  0.00     0.210 S 
ATOM     16  O   UNL d   1      52.521  33.497  52.281  0.00  0.00    -0.217 OA
ATOM     17  O   UNL d   1      51.836  33.329  53.773  0.00  0.00    -0.217 OA
BRANCH  15  18
ATOM     18  C   UNL d   1      51.453  33.660  52.722  0.00  0.00     0.088 A 
ATOM     19  C   UNL d   1      51.401  33.892  51.929  0.00  0.00     0.013 A 
ATOM     20  C   UNL d   1      50.671  34.141  51.622  0.00  0.00     0.025 A 
ATOM     21  C   UNL d   1      50.005  34.157  52.104  0.00  0.00     0.100 A 
ATOM     22  C   UNL d   1      50.053  33.927  52.897  0.00  0.00     0.025 A 
ATOM     23  C   UNL d   1      50.786  33.676  53.205  0.00  0.00     0.013 A 
BRANCH  21  24
ATOM     24  O   UNL d   1      49.270  34.406  51.803  0.00  0.00    -0.305 OA
BRANCH  24  25
ATOM     25  C   UNL d   1      49.138  34.439  50.991  0.00  0.00     0.123 C 
ATOM     26  C   UNL d   1      48.401  34.668  50.705  0.00  0.00     0.029 C 
ENDBRANCH  24  25
ENDBRANCH  21  24
ENDBRANCH  15  18
ENDBRANCH   1  15
BRANCH   2  27
ATOM     27  C   UNL d   1      53.299  34.528  53.559  0.00  0.00     0.198 C 
ATOM     28  O   UNL d   1      53.149  34.881  52.829  0.00  0.00    -0.286 OA
BRANCH  27  29
ATOM     29  C   UNL d   1      53.291  34.985  54.246  0.00  0.00     0.039 A 
ATOM     30  C   UNL d   1      53.511  34.656  54.975  0.00  0.00     0.003 A 
ATOM     31  C   UNL d   1      53.504  35.113  55.662  0.00  0.00     0.000 A 
ATOM     32  C   UNL d   1      53.275  35.905  55.632  0.00  0.00     0.000 A 
ATOM     33  C   UNL d   1      53.053  36.238  54.899  0.00  0.00     0.000 A 
ATOM     34  C   UNL d   1      53.059  35.785  54.212  0.00  0.00     0.003 A 
ENDBRANCH  27  29
ENDBRANCH   2  27
TORSDOF 6
ENDMDL
MODEL 2
REMARK VINA RESULT:      -8.0      0.820      3.629
REMARK  6 active torsions:
REMARK  status: ('A' for Active; 'I' for Inactive)
REMARK    1  A    between atoms: C_2  and  S_1 
REMARK    2  A    between atoms: C_13  and  S_1 
REMARK    3  A    between atoms: C_5  and  C_3 
REMARK    4  A    between atoms: C_19  and  C_5 
REMARK    5  A    between atoms: O_25  and  C_22 
REMARK    6  A    between atoms: C_30  and  O_25 
ROOT
ATOM      1  C   UNL d   1      52.651  33.271  53.414  0.00  0.00     0.094 A 
ATOM      2  C   UNL d   1      52.965  32.506  53.339  0.00  0.00     0.069 A 
ATOM      3  C   UNL d   1      53.002  33.815  53.922  0.00  0.00     0.031 A 
ATOM      4  C   UNL d   1      53.669  33.601  54.360  0.00  0.00     0.084 A 
ATOM      5  C   UNL d   1      52.687  34.573  53.993  0.00  0.00     0.029 A 
ATOM      6  N   UNL d   1      53.983  32.844  54.289  0.00  0.00    -0.244 NA
ATOM      7  C   UNL d   1      53.632  32.292  53.777  0.00  0.00     0.103 A 
ATOM      8  C   UNL d   1      54.020  34.146  54.868  0.00  0.00     0.046 A 
ATOM      9  C   UNL d   1      53.038  35.116  54.501  0.00  0.00     0.123 A 
ATOM     10  C   UNL d   1      53.705  34.903  54.939  0.00  0.00     0.124 A 
ATOM     11  O   UNL d   1      52.724  35.874  54.572  0.00  0.00    -0.301 OA
ATOM     12  O   UNL d   1      54.056  35.447  55.447  0.00  0.00    -0.301 OA
ATOM     13  C   UNL d   1      53.742  36.209  55.520  0.00  0.00     0.149 A 
ATOM     14  C   UNL d   1      53.075  36.423  55.082  0.00  0.00     0.149 A 
ENDROOT
BRANCH   1  15
ATOM     15  S   UNL d   1      51.985  33.496  52.981  0.00  0.00     0.210 S 
ATOM     16  O   UNL d   1      52.459  33.716  52.343  0.00  0.00    -0.217 OA
ATOM     17  O   UNL d   1      51.511  33.275  53.619  0.00  0.00    -0.217 OA
BRANCH  15  18
ATOM     18  C   UNL d   1      51.312  33.717  52.558  0.00  0.00     0.088 A 
ATOM     19  C   UNL d   1      50.566  33.634  52.906  0.00  0.00     0.013 A 
ATOM     20  C   UNL d   1      49.889  33.856  52.480  0.00  0.00     0.025 A 
ATOM     21  C   UNL d   1      49.962  34.157  51.717  0.00  0.00     0.100 A 
ATOM     22  C   UNL d   1      50.706  34.242  51.367  0.00  0.00     0.025 A 
ATOM     23  C   UNL d   1      51.386  34.018  51.795  0.00  0.00     0.013 A 
BRANCH  21  24
ATOM     24  O   UNL d   1      49.288  34.383  51.284  0.00  0.00    -0.305 OA
BRANCH  24  25
ATOM     25  C   UNL d   1      48.695  34.836  51.634  0.00  0.00     0.123 C 
ATOM     26  C   UNL d   1      48.050  35.082  51.187  0.00  0.00     0.029 C 
ENDBRANCH  24  25
ENDBRANCH  21  24
ENDBRANCH  15  18
ENDBRANCH   1  15
BRANCH   2  27
ATOM     27  C   UNL d   1      52.614  31.958  52.829  0.00  0.00     0.198 C 
ATOM     28  O   UNL d   1      52.250  32.208  52.133  0.00  0.00    -0.286 OA
BRANCH  27  29
ATOM     29  C   UNL d   1      52.627  31.155  53.019  0.00  0.00     0.039 A 
ATOM     30  C   UNL d   1      52.007  30.814  53.453  0.00  0.00     0.003 A 
ATOM     31  C   UNL d   1      52.020  30.011  53.644  0.00  0.00     0.000 A 
ATOM     32  C   UNL d   1      52.650  29.536  53.404  0.00  0.00     0.000 A 
ATOM     33  C   UNL d   1      53.275  29.878  52.967  0.00  0.00     0.000 A 
ATOM     34  C   UNL d   1      53.266  30.679  52.775  0.00  0.00     0.003 A 
ENDBRANCH  27  29
ENDBRANCH   2  27
TORSDOF 6
ENDMDL
MODEL 3
REMARK VINA RESULT:      -7.6      1.353      3.948
REMARK  6 active torsions:
REMARK  status: ('A' for Active; 'I' for Inactive)
REMARK    1  A    between atoms: C_2  and  S_1 
REMARK    2  A    between atoms: C_13  and  S_1 
REMARK    3  A    between atoms: C_5  and  C_3 
REMARK    4  A    between atoms: C_19  and  C_5 
REMARK    5  A    between atoms: O_25  and  C_22 
REMARK    6  A    between atoms: C_30  and  O_25 
ROOT
ATOM      1  C   UNL d   1      52.992  33.235  53.390  0.00  0.00     0.094 A 
ATOM      2  C   UNL d   1      53.677  33.675  53.554  0.00  0.00     0.069 A 
ATOM      3  C   UNL d   1      52.300  33.616  53.161  0.00  0.00     0.031 A 
ATOM      4  C   UNL d   1      52.284  34.439  53.092  0.00  0.00     0.084 A 
ATOM      5  C   UNL d   1      51.623  33.176  53.000  0.00  0.00     0.029 A 
ATOM      6  N   UNL d   1      52.961  34.879  53.252  0.00  0.00    -0.244 NA
ATOM      7  C   UNL d   1      53.661  34.498  53.484  0.00  0.00     0.103 A 
ATOM      8  C   UNL d   1      51.592  34.820  52.862  0.00  0.00     0.046 A 
ATOM      9  C   UNL d   1      50.931  33.558  52.770  0.00  0.00     0.123 A 
ATOM     10  C   UNL d   1      50.915  34.381  52.701  0.00  0.00     0.124 A 
ATOM     11  O   UNL d   1      50.253  33.118  52.609  0.00  0.00    -0.301 OA
ATOM     12  O   UNL d   1      50.222  34.762  52.471  0.00  0.00    -0.301 OA
ATOM     13  C   UNL d   1      49.541  34.322  52.309  0.00  0.00     0.149 A 
ATOM     14  C   UNL d   1      49.557  33.499  52.378  0.00  0.00     0.149 A 
ENDROOT
BRANCH   1  15
ATOM     15  S   UNL d   1      52.996  32.413  53.456  0.00  0.00     0.210 S 
ATOM     16  O   UNL d   1      53.284  32.340  52.687  0.00  0.00    -0.217 OA
ATOM     17  O   UNL d   1      52.707  32.485  54.226  0.00  0.00    -0.217 OA
BRANCH  15  18
ATOM     18  C   UNL d   1      52.995  31.591  53.533  0.00  0.00     0.088 A 
ATOM     19  C   UNL d   1      53.022  31.118  52.855  0.00  0.00     0.013 A 
ATOM     20  C   UNL d   1      53.022  30.291  52.932  0.00  0.00     0.025 A 
ATOM     21  C   UNL d   1      52.995  29.948  53.679  0.00  0.00     0.100 A 
ATOM     22  C   UNL d   1      52.969  30.417  54.359  0.00  0.00     0.025 A 
ATOM     23  C   UNL d   1      52.969  31.247  54.281  0.00  0.00     0.013 A 
BRANCH  21  24
ATOM     24  O   UNL d   1      52.995  29.119  53.765  0.00  0.00    -0.305 OA
BRANCH  24  25
ATOM     25  C   UNL d   1      53.280  28.768  54.453  0.00  0.00     0.123 C 
ATOM     26  C   UNL d   1      53.567  27.997  54.431  0.00  0.00     0.029 C 
ENDBRANCH  24  25
ENDBRANCH  21  24
ENDBRANCH  15  18
ENDBRANCH   1  15
BRANCH   2  27
ATOM     27  C   UNL d   1      54.373  33.294  53.785  0.00  0.00     0.198 C 
ATOM     28  O   UNL d   1      54.668  32.660  53.347  0.00  0.00    -0.286 OA
BRANCH  27  29
ATOM     29  C   UNL d   1      54.777  33.550  54.457  0.00  0.00     0.039 A 
ATOM     30  C   UNL d   1      54.427  33.487  55.208  0.00  0.00     0.003 A 
ATOM     31  C   UNL d   1      54.830  33.743  55.881  0.00  0.00     0.000 A 
ATOM     32  C   UNL d   1      55.586  34.066  55.817  0.00  0.00     0.000 A 
ATOM     33  C   UNL d   1      55.939  34.130  55.062  0.00  0.00     0.000 A 
ATOM     34  C   UNL d   1      55.540  33.876  54.388  0.00  0.00     0.003 A 
ENDBRANCH  27  29
ENDBRANCH   2  27
TORSDOF 6
ENDMDL
MODEL 4
REMARK VINA RESULT:      -6.4      1.265      4.098
REMARK  6 active torsions:
REMARK  status: ('A' for Active; 'I' for Inactive)
REMARK    1  A    between atoms: C_2  and  S_1 
REMARK    2  A    between atoms: C_13  and  S_1 
REMARK    3  A    between atoms: C_5  and  C_3 
REMARK    4  A    between atoms: C_19  and  C_5 
REMARK    5  A    between atoms: O_25  and  C_22 
REMARK    6  A    between atoms: C_30  and  O_25 
ROOT
ATOM      1  C   UNL d   1      52.643  33.498  53.313  0.00  0.00     0.094 A 
ATOM      2  C   UNL d   1      52.119  33.966  52.870  0.00  0.00     0.069 A 
ATOM      3  C   UNL d   1      53.190  33.852  53.814  0.00  0.00     0.031 A 
ATOM      4  C   UNL d   1      53.221  34.675  53.879  0.00  0.00     0.084 A 
ATOM      5  C   UNL d   1      53.708  33.385  54.252  0.00  0.00     0.029 A 
ATOM      6  N   UNL d   1      52.703  35.142  53.442  0.00  0.00    -0.244 NA
ATOM      7  C   UNL d   1      52.149  34.789  52.935  0.00  0.00     0.103 A 
ATOM      8  C   UNL d   1      53.769  35.028  54.382  0.00  0.00     0.046 A 
ATOM      9  C   UNL d   1      54.256  33.738  54.754  0.00  0.00     0.123 A 
ATOM     10  C   UNL d   1      54.286  34.561  54.819  0.00  0.00     0.124 A 
ATOM     11  O   UNL d   1      54.774  33.271  55.191  0.00  0.00    -0.301 OA
ATOM     12  O   UNL d   1      54.834  34.915  55.321  0.00  0.00    -0.301 OA
ATOM     13  C   UNL d   1      55.355  34.447  55.761  0.00  0.00     0.149 A 
ATOM     14  C   UNL d   1      55.325  33.624  55.696  0.00  0.00     0.149 A 
ENDROOT
BRANCH   1  15
ATOM     15  S   UNL d   1      52.621  32.675  53.256  0.00  0.00     0.210 S 
ATOM     16  O   UNL d   1      53.124  32.695  52.602  0.00  0.00    -0.217 OA
ATOM     17  O   UNL d   1      52.118  32.655  53.909  0.00  0.00    -0.217 OA
BRANCH  15  18
ATOM     18  C   UNL d   1      52.592  31.852  53.208  0.00  0.00     0.088 A 
ATOM     19  C   UNL d   1      53.171  31.448  52.776  0.00  0.00     0.013 A 
ATOM     20  C   UNL d   1      53.142  30.620  52.729  0.00  0.00     0.025 A 
ATOM     21  C   UNL d   1      52.541  30.206  53.108  0.00  0.00     0.100 A 
ATOM     22  C   UNL d   1      51.962  30.606  53.540  0.00  0.00     0.025 A 
ATOM     23  C   UNL d   1      51.991  31.438  53.588  0.00  0.00     0.013 A 
BRANCH  21  24
ATOM     24  O   UNL d   1      52.506  29.375  53.065  0.00  0.00    -0.305 OA
BRANCH  24  25
ATOM     25  C   UNL d   1      52.556  28.916  53.748  0.00  0.00     0.123 C 
ATOM     26  C   UNL d   1      53.165  28.368  53.828  0.00  0.00     0.029 C 
ENDBRANCH  24  25
ENDBRANCH  21  24
ENDBRANCH  15  18
ENDBRANCH   1  15
BRANCH   2  27
ATOM     27  C   UNL d   1      51.567  33.613  52.365  0.00  0.00     0.198 C 
ATOM     28  O   UNL d   1      51.758  32.922  51.955  0.00  0.00    -0.286 OA
BRANCH  27  29
ATOM     29  C   UNL d   1      50.822  33.953  52.270  0.00  0.00     0.039 A 
ATOM     30  C   UNL d   1      50.338  34.098  52.928  0.00  0.00     0.003 A 
ATOM     31  C   UNL d   1      49.592  34.439  52.835  0.00  0.00     0.000 A 
ATOM     32  C   UNL d   1      49.318  34.640  52.083  0.00  0.00     0.000 A 
ATOM     33  C   UNL d   1      49.804  34.494  51.419  0.00  0.00     0.000 A 
ATOM     34  C   UNL d   1      50.548  34.155  51.509  0.00  0.00     0.003 A 
ENDBRANCH  27  29
ENDBRANCH   2  27
TORSDOF 6
ENDMDL
MODEL 5
REMARK VINA RESULT:      -6.1      1.211      1.592
REMARK  6 active torsions:
REMARK  status: ('A' for Active; 'I' for Inactive)
REMARK    1  A    between atoms: C_2  and  S_1 
REMARK    2  A    between atoms: C_13  and  S_1 
REMARK    3  A    between atoms: C_5  and  C_3 
REMARK    4  A    between atoms: C_19  and  C_5 
REMARK    5  A    between atoms: O_25  and  C_22 
REMARK    6  A    between atoms: C_30  and  O_25 
ROOT
ATOM      1  C   UNL d   1      53.258  32.168  53.515  0.00  0.00     0.094 A 
ATOM      2  C   UNL d   1      53.994  32.473  53.752  0.00  0.00     0.069 A 
ATOM      3  C   UNL d   1      53.127  31.356  53.514  0.00  0.00     0.031 A 
ATOM      4  C   UNL d   1      53.728  30.840  53.750  0.00  0.00     0.084 A 
ATOM      5  C   UNL d   1      52.397  31.058  53.278  0.00  0.00     0.029 A 
ATOM      6  N   UNL d   1      54.458  31.138  53.985  0.00  0.00    -0.244 NA
ATOM      7  C   UNL d   1      54.594  31.957  53.987  0.00  0.00     0.103 A 
ATOM      8  C   UNL d   1      53.597  30.027  53.749  0.00  0.00     0.046 A 
ATOM      9  C   UNL d   1      52.266  30.246  53.278  0.00  0.00     0.123 A 
ATOM     10  C   UNL d   1      52.867  29.730  53.513  0.00  0.00     0.124 A 
ATOM     11  O   UNL d   1      51.536  29.947  53.042  0.00  0.00    -0.301 OA
ATOM     12  O   UNL d   1      52.735  28.917  53.512  0.00  0.00    -0.301 OA
ATOM     13  C   UNL d   1      52.003  28.615  53.276  0.00  0.00     0.149 A 
ATOM     14  C   UNL d   1      51.402  29.131  53.041  0.00  0.00     0.149 A 
ENDROOT
BRANCH   1  15
ATOM     15  S   UNL d   1      52.651  32.674  53.278  0.00  0.00     0.210 S 
ATOM     16  O   UNL d   1      52.425  32.790  54.062  0.00  0.00    -0.217 OA
ATOM     17  O   UNL d   1      52.878  32.559  52.493  0.00  0.00    -0.217 OA
BRANCH  15  18
ATOM     18  C   UNL d   1      52.047  33.178  53.029  0.00  0.00     0.088 A 
ATOM     19  C   UNL d   1      51.364  33.255  53.490  0.00  0.00     0.013 A 
ATOM     20  C   UNL d   1      50.757  33.762  53.240  0.00  0.00     0.025 A 
ATOM     21  C   UNL d   1      50.836  34.185  52.538  0.00  0.00     0.100 A 
ATOM     22  C   UNL d   1      51.516  34.111  52.075  0.00  0.00     0.025 A 
ATOM     23  C   UNL d   1      52.127  33.601  52.327  0.00  0.00     0.013 A 
BRANCH  21  24
ATOM     24  O   UNL d   1      50.230  34.696  52.281  0.00  0.00    -0.305 OA
BRANCH  24  25
ATOM     25  C   UNL d   1      49.438  34.494  52.383  0.00  0.00     0.123 C 
ATOM     26  C   UNL d   1      48.849  35.031  52.179  0.00  0.00     0.029 C 
ENDBRANCH  24  25
ENDBRANCH  21  24
ENDBRANCH  15  18
ENDBRANCH   1  15
BRANCH   2  27
ATOM     27  C   UNL d   1      54.127  33.289  53.753  0.00  0.00     0.198 C 
ATOM     28  O   UNL d   1      53.825  33.763  53.149  0.00  0.00    -0.286 OA
BRANCH  27  29
ATOM     29  C   UNL d   1      54.566  33.631  54.363  0.00  0.00     0.039 A 
ATOM     30  C   UNL d   1      55.343  33.888  54.230  0.00  0.00     0.003 A 
ATOM     31  C   UNL d   1      55.783  34.230  54.839  0.00  0.00     0.000 A 
ATOM     32  C   UNL d   1      55.453  34.321  55.589  0.00  0.00     0.000 A 
ATOM     33  C   UNL d   1      54.670  34.063  55.725  0.00  0.00     0.000 A 
ATOM     34  C   UNL d   1      54.229  33.721  55.120  0.00  0.00     0.003 A 
ENDBRANCH  27  29
ENDBRANCH   2  27
TORSDOF 6
ENDMDL
