MODEL 1
REMARK VINA RESULT:      -2.5      0.000      0.000
REMARK  3 active torsions:
REMARK  status: ('A' for Active; 'I' for Inactive)
REMARK    1  A    between atoms: N_7  and  N_1 
REMARK    2  A    between atoms: N_2  and  N_8 
REMARK       I    between atoms: C_3  and  N_7 
REMARK    3  A    between atoms: C_4  and  C_3 
REMARK       I    between atoms: N_8  and  C_4 
ROOT
ATOM      1  C   UNL d   1      30.964  15.910 -24.704  0.00  0.00     0.355 C 
ATOM      2  N   UNL d   1      30.193  15.674 -24.659  0.00  0.00    -0.115 NA
ATOM      3  O   UNL d   1      31.510  15.453 -25.097  0.00  0.00    -0.258 OA
ENDROOT
BRANCH   1   4
ATOM      4  C   UNL d   1      31.195  16.618 -24.350  0.00  0.00     0.355 C 
ATOM      5  N   UNL d   1      32.001  16.779 -24.294  0.00  0.00    -0.115 NA
ATOM      6  O   UNL d   1      30.807  16.973 -24.156  0.00  0.00    -0.258 OA
BRANCH   5   7
ATOM      7  N   UNL d   1      32.273  17.492 -23.938  0.00  0.00    -0.175 N 
ATOM      8  C   UNL d   1      32.682  17.454 -23.264  0.00  0.00     0.170 A 
ATOM      9  S   UNL d   1      32.875  18.279 -23.051  0.00  0.00    -0.051 SA
ATOM     10  S   UNL d   1      32.874  16.732 -22.858  0.00  0.00    -0.050 SA
ATOM     11  C   UNL d   1      32.544  18.752 -23.653  0.00  0.00     0.100 A 
ATOM     12  C   UNL d   1      32.175  18.246 -24.194  0.00  0.00     0.288 A 
ATOM     13  O   UNL d   1      31.766  18.474 -24.893  0.00  0.00    -0.265 OA
ENDBRANCH   5   7
ENDBRANCH   1   4
BRANCH   2  14
ATOM     14  N   UNL d   1      29.574  16.106 -24.263  0.00  0.00    -0.175 N 
ATOM     15  C   UNL d   1      29.286  16.020 -23.506  0.00  0.00     0.170 A 
ATOM     16  S   UNL d   1      28.704  16.576 -23.433  0.00  0.00    -0.051 SA
ATOM     17  S   UNL d   1      29.550  15.460 -22.924  0.00  0.00    -0.050 SA
ATOM     18  C   UNL d   1      28.615  16.998 -24.093  0.00  0.00     0.100 A 
ATOM     19  C   UNL d   1      29.140  16.735 -24.636  0.00  0.00     0.288 A 
ATOM     20  O   UNL d   1      29.221  16.876 -25.084  0.00  0.00    -0.265 OA
ENDBRANCH   2  14
TORSDOF 3
ENDMDL
MODEL 2
REMARK VINA RESULT:      -0.4      1.660      2.231
REMARK  3 active torsions:
REMARK  status: ('A' for Active; 'I' for Inactive)
REMARK    1  A    between atoms: N_7  and  N_1 
REMARK    2  A    between atoms: N_2  and  N_8 
REMARK       I    between atoms: C_3  and  N_7 
REMARK    3  A    between atoms: C_4  and  C_3 
REMARK       I    between atoms: N_8  and  C_4 
ROOT
ATOM      1  C   UNL d   1      32.622  16.931 -23.045  0.00  0.00     0.355 C 
ATOM      2  N   UNL d   1      32.083  16.371 -23.267  0.00  0.00    -0.115 NA
ATOM      3  O   UNL d   1      33.219  16.741 -22.527  0.00  0.00    -0.258 OA
ENDROOT
BRANCH   1   4
ATOM      4  C   UNL d   1      32.562  17.696 -23.346  0.00  0.00     0.355 C 
ATOM      5  N   UNL d   1      33.241  18.162 -23.359  0.00  0.00    -0.115 NA
ATOM      6  O   UNL d   1      32.069  17.885 -23.535  0.00  0.00    -0.258 OA
BRANCH   5   7
ATOM      7  N   UNL d   1      33.217  18.948 -23.660  0.00  0.00    -0.175 N 
ATOM      8  C   UNL d   1      33.190  19.553 -23.153  0.00  0.00     0.170 A 
ATOM      9  S   UNL d   1      33.170  20.278 -23.641  0.00  0.00    -0.051 SA
ATOM     10  S   UNL d   1      33.184  19.472 -22.307  0.00  0.00    -0.050 SA
ATOM     11  C   UNL d   1      33.187  20.017 -24.433  0.00  0.00     0.100 A 
ATOM     12  C   UNL d   1      33.216  19.190 -24.424  0.00  0.00     0.288 A 
ATOM     13  O   UNL d   1      33.241  18.683 -25.096  0.00  0.00    -0.265 OA
ENDBRANCH   5   7
ENDBRANCH   1   4
BRANCH   2  14
ATOM     14  N   UNL d   1      31.435  16.505 -23.804  0.00  0.00    -0.175 N 
ATOM     15  C   UNL d   1      31.359  16.289 -24.586  0.00  0.00     0.170 A 
ATOM     16  S   UNL d   1      30.632  16.560 -24.814  0.00  0.00    -0.051 SA
ATOM     17  S   UNL d   1      31.929  15.867 -25.053  0.00  0.00    -0.050 SA
ATOM     18  C   UNL d   1      30.257  16.928 -24.225  0.00  0.00     0.100 A 
ATOM     19  C   UNL d   1      30.726  16.915 -23.577  0.00  0.00     0.288 A 
ATOM     20  O   UNL d   1      30.655  17.090 -23.139  0.00  0.00    -0.265 OA
ENDBRANCH   2  14
TORSDOF 3
ENDMDL
