MODEL 1
REMARK VINA RESULT:      30.0      0.000      0.000
REMARK  9 active torsions:
REMARK  status: ('A' for Active; 'I' for Inactive)
REMARK    1  A    between atoms: N_2  and  S_1 
REMARK    2  A    between atoms: C_9  and  S_1 
REMARK    3  A    between atoms: C_4  and  N_2 
REMARK    4  A    between atoms: O_22  and  C_6 
REMARK    5  A    between atoms: O_23  and  C_7 
REMARK       I    between atoms: C_12  and  N_13 
REMARK    6  A    between atoms: C_20  and  C_12 
REMARK    7  A    between atoms: N_13  and  C_21 
REMARK    8  A    between atoms: O_14  and  C_20 
REMARK    9  A    between atoms: C_15  and  O_14 
ROOT
ATOM      1  C   UNL d   1      45.246 -14.997  44.636  0.00  0.00     0.105 A 
ATOM      2  C   UNL d   1      44.746 -15.586  44.367  0.00  0.00     0.015 A 
ATOM      3  C   UNL d   1      45.983 -15.182  44.932  0.00  0.00     0.015 A 
ATOM      4  C   UNL d   1      45.734 -16.563  44.693  0.00  0.00     0.085 A 
ATOM      5  C   UNL d   1      44.966 -16.373  44.385  0.00  0.00     0.020 A 
ATOM      6  C   UNL d   1      46.214 -15.965  44.954  0.00  0.00     0.020 A 
ENDROOT
BRANCH   1   7
ATOM      7  S   UNL d   1      45.008 -14.197  44.612  0.00  0.00     0.287 S 
ATOM      8  O   UNL d   1      44.223 -14.434  44.439  0.00  0.00    -0.198 OA
ATOM      9  O   UNL d   1      45.788 -13.952  44.784  0.00  0.00    -0.198 OA
BRANCH   7  10
ATOM     10  N   UNL d   1      44.766 -13.394  44.587  0.00  0.00    -0.139 NA
BRANCH  10  11
ATOM     11  C   UNL d   1      44.805 -12.968  43.883  0.00  0.00     0.182 A 
ATOM     12  N   UNL d   1      45.530 -12.752  43.581  0.00  0.00    -0.185 NA
ATOM     13  C   UNL d   1      45.577 -12.312  42.856  0.00  0.00     0.274 A 
ATOM     14  N   UNL d   1      44.903 -12.107  42.463  0.00  0.00    -0.181 NA
ATOM     15  C   UNL d   1      44.169 -12.310  42.744  0.00  0.00     0.185 A 
ATOM     16  C   UNL d   1      44.108 -12.760  43.485  0.00  0.00     0.084 A 
BRANCH  13  17
ATOM     17  O   UNL d   1      46.323 -12.094  42.552  0.00  0.00    -0.297 OA
ATOM     18  C   UNL d   1      46.647 -12.460  41.872  0.00  0.00     0.185 C 
ENDBRANCH  13  17
BRANCH  15  19
ATOM     19  O   UNL d   1      43.487 -12.087  42.321  0.00  0.00    -0.312 OA
ATOM     20  C   UNL d   1      42.925 -12.685  42.140  0.00  0.00     0.183 C 
ENDBRANCH  15  19
ENDBRANCH  10  11
ENDBRANCH   7  10
ENDBRANCH   1   7
BRANCH   4  21
ATOM     21  N   UNL d   1      45.989 -17.352  44.725  0.00  0.00    -0.206 NA
ATOM     22  C   UNL d   1      46.376 -17.682  44.081  0.00  0.00     0.304 C 
ATOM     23  O   UNL d   1      46.511 -17.228  43.405  0.00  0.00    -0.263 OA
BRANCH  22  24
ATOM     24  C   UNL d   1      46.632 -18.474  44.113  0.00  0.00     0.185 C 
BRANCH  24  25
ATOM     25  O   UNL d   1      46.221 -19.052  43.701  0.00  0.00    -0.299 OA
BRANCH  25  26
ATOM     26  C   UNL d   1      46.168 -19.027  42.847  0.00  0.00     0.111 A 
ATOM     27  C   UNL d   1      45.661 -19.531  42.440  0.00  0.00     0.081 A 
ATOM     28 CL   UNL d   1      45.178 -20.089  42.864  0.00  0.00    -0.080 Cl
ATOM     29  C   UNL d   1      45.620 -19.497  41.621  0.00  0.00     0.013 A 
ATOM     30  C   UNL d   1      46.097 -18.946  41.204  0.00  0.00     0.001 A 
ATOM     31  C   UNL d   1      46.603 -18.443  41.616  0.00  0.00     0.002 A 
ATOM     32  C   UNL d   1      46.644 -18.478  42.436  0.00  0.00     0.026 A 
ENDBRANCH  25  26
ENDBRANCH  24  25
ENDBRANCH  22  24
ENDBRANCH   4  21
TORSDOF 9
ENDMDL
