MODEL 1
REMARK VINA RESULT:       5.8      0.000      0.000
REMARK  5 active torsions:
REMARK  status: ('A' for Active; 'I' for Inactive)
REMARK    1  A    between atoms: S_6  and  C_3 
REMARK    2  A    between atoms: C_10  and  C_4 
REMARK    3  A    between atoms: C_5  and  C_7 
REMARK    4  A    between atoms: C_9  and  C_5 
REMARK    5  A    between atoms: C_7  and  S_6 
ROOT
ATOM      1  N   UNL d   1     -41.959-121.831 -51.242  0.00  0.00    -0.148 NA
ATOM      2  N   UNL d   1     -41.931-121.443 -51.972  0.00  0.00    -0.141 NA
ATOM      3  C   UNL d   1     -41.712-121.854 -52.654  0.00  0.00     0.133 A 
ATOM      4  C   UNL d   1     -41.766-122.636 -51.198  0.00  0.00     0.103 A 
ATOM      5  C   UNL d   1     -41.548-123.050 -51.873  0.00  0.00     0.023 A 
ATOM      6  C   UNL d   1     -41.519-122.667 -52.601  0.00  0.00     0.029 A 
ENDROOT
BRANCH   3   7
ATOM      7  S   UNL d   1     -41.686-121.466 -53.375  0.00  0.00    -0.062 SA
BRANCH   7   8
ATOM      8  C   UNL d   1     -41.852-121.876 -54.070  0.00  0.00     0.079 C 
BRANCH   8   9
ATOM      9  C   UNL d   1     -41.935-121.461 -54.793  0.00  0.00     0.202 C 
ATOM     10  O   UNL d   1     -41.830-120.653 -54.811  0.00  0.00    -0.286 OA
BRANCH   9  11
ATOM     11  C   UNL d   1     -42.123-121.873 -55.477  0.00  0.00     0.040 A 
ATOM     12  C   UNL d   1     -42.652-121.550 -56.020  0.00  0.00     0.003 A 
ATOM     13  C   UNL d   1     -42.847-121.955 -56.709  0.00  0.00     0.000 A 
ATOM     14  C   UNL d   1     -42.499-122.701 -56.852  0.00  0.00     0.000 A 
ATOM     15  C   UNL d   1     -41.970-123.023 -56.308  0.00  0.00     0.000 A 
ATOM     16  C   UNL d   1     -41.786-122.604 -55.623  0.00  0.00     0.003 A 
ENDBRANCH   9  11
ENDBRANCH   8   9
ENDBRANCH   7   8
ENDBRANCH   3   7
BRANCH   4  17
ATOM     17  C   UNL d   1     -41.794-123.024 -50.469  0.00  0.00     0.019 A 
ATOM     18  C   UNL d   1     -41.123-123.036 -49.976  0.00  0.00     0.002 A 
ATOM     19  C   UNL d   1     -41.152-123.426 -49.243  0.00  0.00     0.000 A 
ATOM     20  C   UNL d   1     -41.851-123.806 -48.998  0.00  0.00     0.000 A 
ATOM     21  C   UNL d   1     -42.511-123.793 -49.483  0.00  0.00     0.000 A 
ATOM     22  C   UNL d   1     -42.494-123.406 -50.218  0.00  0.00     0.002 A 
ENDBRANCH   4  17
TORSDOF 5
ENDMDL
