MODEL 1
REMARK VINA RESULT:      -2.1      0.000      0.000
REMARK  3 active torsions:
REMARK  status: ('A' for Active; 'I' for Inactive)
REMARK    1  A    between atoms: C_10  and  C_2 
REMARK    2  A    between atoms: C_13  and  C_6 
REMARK    3  A    between atoms: O_17  and  C_10 
ROOT
ATOM      1  C   UNL d   1      30.603  16.665 -24.031  0.00  0.00     0.081 A 
ATOM      2  C   UNL d   1      31.525  17.671 -24.427  0.00  0.00     0.106 A 
ATOM      3  C   UNL d   1      30.901  18.118 -24.743  0.00  0.00     0.208 A 
ATOM      4  C   UNL d   1      29.985  17.104 -24.342  0.00  0.00     0.108 A 
ATOM      5  C   UNL d   1      30.450  15.928 -23.670  0.00  0.00     0.281 A 
ATOM      6  C   UNL d   1      31.371  16.945 -24.072  0.00  0.00     0.015 A 
ATOM      7  O   UNL d   1      30.134  17.829 -24.698  0.00  0.00    -0.288 OA
ATOM      8  N   UNL d   1      29.676  15.640 -23.626  0.00  0.00    -0.208 NA
ATOM      9  C   UNL d   1      29.211  16.816 -24.298  0.00  0.00     0.044 A 
ATOM     10  C   UNL d   1      29.053  16.091 -23.944  0.00  0.00     0.087 A 
ATOM     11  O   UNL d   1      31.076  15.488 -23.357  0.00  0.00    -0.265 OA
ATOM     12  N   UNL d   1      31.062  18.843 -25.097  0.00  0.00    -0.121 N 
ATOM     13  C   UNL d   1      28.287  15.803 -23.898  0.00  0.00     0.021 C 
ENDROOT
BRANCH   6  14
ATOM     14  C   UNL d   1      31.996  16.502 -23.758  0.00  0.00     0.004 A 
ATOM     15  C   UNL d   1      32.224  16.624 -22.969  0.00  0.00     0.021 A 
ATOM     16  C   UNL d   1      32.847  16.184 -22.654  0.00  0.00     0.099 A 
ATOM     17  N   UNL d   1      33.241  15.625 -23.124  0.00  0.00    -0.242 NA
ATOM     18  C   UNL d   1      33.006  15.509 -23.916  0.00  0.00     0.099 A 
ATOM     19  C   UNL d   1      32.382  15.952 -24.227  0.00  0.00     0.021 A 
ENDBRANCH   6  14
BRANCH   2  20
ATOM     20  C   UNL d   1      32.298  17.955 -24.470  0.00  0.00     0.299 C 
ATOM     21  O   UNL d   1      32.810  17.689 -25.060  0.00  0.00    -0.259 OA
BRANCH  20  22
ATOM     22  O   UNL d   1      32.566  18.515 -23.911  0.00  0.00    -0.296 OA
ATOM     23  C   UNL d   1      33.103  19.089 -24.145  0.00  0.00     0.185 C 
ENDBRANCH  20  22
ENDBRANCH   2  20
TORSDOF 3
ENDMDL
