MODEL 1
REMARK VINA RESULT:      -3.6      0.000      0.000
REMARK  3 active torsions:
REMARK  status: ('A' for Active; 'I' for Inactive)
REMARK    1  A    between atoms: C_6  and  C_16 
REMARK    2  A    between atoms: S_14  and  C_8 
REMARK    3  A    between atoms: C_16  and  S_14 
ROOT
ATOM      1  C   UNL d   1      31.833  17.351 -23.815  0.00  0.00     0.141 A 
ATOM      2  O   UNL d   1      31.111  17.700 -24.011  0.00  0.00    -0.303 OA
ATOM      3  C   UNL d   1      31.798  16.555 -24.026  0.00  0.00     0.110 A 
ATOM      4  C   UNL d   1      31.054  16.410 -24.352  0.00  0.00     0.043 A 
ATOM      5  C   UNL d   1      32.520  17.657 -23.470  0.00  0.00     0.137 A 
ATOM      6  C   UNL d   1      30.631  17.117 -24.343  0.00  0.00     0.102 A 
ATOM      7  N   UNL d   1      33.169  17.164 -23.338  0.00  0.00    -0.215 NA
ATOM      8  N   UNL d   1      32.447  16.062 -23.894  0.00  0.00    -0.222 NA
ATOM      9  C   UNL d   1      33.133  16.368 -23.549  0.00  0.00     0.200 A 
ATOM     10  C   UNL d   1      30.709  15.725 -24.657  0.00  0.00     0.004 A 
ATOM     11  C   UNL d   1      29.860  17.141 -24.639  0.00  0.00     0.025 A 
ATOM     12  C   UNL d   1      29.938  15.749 -24.953  0.00  0.00     0.000 A 
ATOM     13  C   UNL d   1      29.513  16.457 -24.944  0.00  0.00     0.002 A 
ENDROOT
BRANCH   5  14
ATOM     14  S   UNL d   1      32.555  18.454 -23.259  0.00  0.00    -0.062 SA
BRANCH  14  15
ATOM     15  C   UNL d   1      33.145  18.718 -22.747  0.00  0.00     0.076 C 
BRANCH  15  16
ATOM     16  C   UNL d   1      33.114  19.485 -22.445  0.00  0.00     0.169 A 
ATOM     17  N   UNL d   1      32.950  19.694 -21.664  0.00  0.00    -0.225 NA
ATOM     18  C   UNL d   1      32.975  20.516 -21.608  0.00  0.00     0.101 A 
ATOM     19  C   UNL d   1      32.859  21.031 -20.974  0.00  0.00     0.021 A 
ATOM     20  C   UNL d   1      33.156  20.818 -22.355  0.00  0.00     0.101 A 
ATOM     21  C   UNL d   1      32.921  21.846 -21.087  0.00  0.00     0.002 A 
ATOM     22  C   UNL d   1      33.101  22.146 -21.832  0.00  0.00     0.002 A 
ATOM     23  C   UNL d   1      33.218  21.632 -22.467  0.00  0.00     0.021 A 
ATOM     24  N   UNL d   1      33.241  20.180 -22.872  0.00  0.00    -0.225 NA
ENDBRANCH  15  16
ENDBRANCH  14  15
ENDBRANCH   5  14
TORSDOF 3
ENDMDL
MODEL 2
REMARK VINA RESULT:      -2.5      1.458      5.346
REMARK  3 active torsions:
REMARK  status: ('A' for Active; 'I' for Inactive)
REMARK    1  A    between atoms: C_6  and  C_16 
REMARK    2  A    between atoms: S_14  and  C_8 
REMARK    3  A    between atoms: C_16  and  S_14 
ROOT
ATOM      1  C   UNL d   1      33.176  20.683 -22.288  0.00  0.00     0.141 A 
ATOM      2  O   UNL d   1      33.150  20.434 -21.501  0.00  0.00    -0.303 OA
ATOM      3  C   UNL d   1      33.210  21.507 -22.294  0.00  0.00     0.110 A 
ATOM      4  C   UNL d   1      33.205  21.768 -21.511  0.00  0.00     0.043 A 
ATOM      5  C   UNL d   1      33.173  20.264 -23.000  0.00  0.00     0.137 A 
ATOM      6  C   UNL d   1      33.168  21.106 -21.022  0.00  0.00     0.102 A 
ATOM      7  N   UNL d   1      33.204  20.672 -23.717  0.00  0.00    -0.215 NA
ATOM      8  N   UNL d   1      33.241  21.914 -23.011  0.00  0.00    -0.222 NA
ATOM      9  C   UNL d   1      33.238  21.495 -23.723  0.00  0.00     0.200 A 
ATOM     10  C   UNL d   1      33.229  22.525 -21.182  0.00  0.00     0.004 A 
ATOM     11  C   UNL d   1      33.155  21.199 -20.202  0.00  0.00     0.025 A 
ATOM     12  C   UNL d   1      33.217  22.618 -20.361  0.00  0.00     0.000 A 
ATOM     13  C   UNL d   1      33.180  21.954 -19.871  0.00  0.00     0.002 A 
ENDROOT
BRANCH   5  14
ATOM     14  S   UNL d   1      33.139  19.440 -22.994  0.00  0.00    -0.062 SA
BRANCH  14  15
ATOM     15  C   UNL d   1      33.049  19.026 -23.702  0.00  0.00     0.076 C 
BRANCH  15  16
ATOM     16  C   UNL d   1      32.779  18.247 -23.690  0.00  0.00     0.169 A 
ATOM     17  N   UNL d   1      32.001  18.003 -23.561  0.00  0.00    -0.225 NA
ATOM     18  C   UNL d   1      31.980  17.180 -23.598  0.00  0.00     0.101 A 
ATOM     19  C   UNL d   1      31.364  16.638 -23.512  0.00  0.00     0.021 A 
ATOM     20  C   UNL d   1      32.746  16.912 -23.750  0.00  0.00     0.101 A 
ATOM     21  C   UNL d   1      31.514  15.829 -23.579  0.00  0.00     0.002 A 
ATOM     22  C   UNL d   1      32.278  15.562 -23.731  0.00  0.00     0.002 A 
ATOM     23  C   UNL d   1      32.895  16.104 -23.816  0.00  0.00     0.021 A 
ATOM     24  N   UNL d   1      33.239  17.571 -23.807  0.00  0.00    -0.225 NA
ENDBRANCH  15  16
ENDBRANCH  14  15
ENDBRANCH   5  14
TORSDOF 3
ENDMDL
MODEL 3
REMARK VINA RESULT:      -2.5      0.961      1.507
REMARK  3 active torsions:
REMARK  status: ('A' for Active; 'I' for Inactive)
REMARK    1  A    between atoms: C_6  and  C_16 
REMARK    2  A    between atoms: S_14  and  C_8 
REMARK    3  A    between atoms: C_16  and  S_14 
ROOT
ATOM      1  C   UNL d   1      30.910  16.851 -24.225  0.00  0.00     0.141 A 
ATOM      2  O   UNL d   1      30.247  17.333 -24.124  0.00  0.00    -0.303 OA
ATOM      3  C   UNL d   1      30.652  16.069 -24.272  0.00  0.00     0.110 A 
ATOM      4  C   UNL d   1      29.830  16.067 -24.201  0.00  0.00     0.043 A 
ATOM      5  C   UNL d   1      31.716  17.024 -24.280  0.00  0.00     0.137 A 
ATOM      6  C   UNL d   1      29.580  16.847 -24.109  0.00  0.00     0.102 A 
ATOM      7  N   UNL d   1      32.262  16.414 -24.382  0.00  0.00    -0.215 NA
ATOM      8  N   UNL d   1      31.198  15.459 -24.374  0.00  0.00    -0.222 NA
ATOM      9  C   UNL d   1      32.004  15.632 -24.429  0.00  0.00     0.200 A 
ATOM     10  C   UNL d   1      29.277  15.454 -24.207  0.00  0.00     0.004 A 
ATOM     11  C   UNL d   1      28.776  17.016 -24.024  0.00  0.00     0.025 A 
ATOM     12  C   UNL d   1      28.473  15.623 -24.122  0.00  0.00     0.000 A 
ATOM     13  C   UNL d   1      28.223  16.405 -24.031  0.00  0.00     0.002 A 
ENDROOT
BRANCH   5  14
ATOM     14  S   UNL d   1      31.974  17.807 -24.232  0.00  0.00    -0.062 SA
BRANCH  14  15
ATOM     15  C   UNL d   1      32.707  17.979 -23.897  0.00  0.00     0.076 C 
BRANCH  15  16
ATOM     16  C   UNL d   1      32.814  18.683 -23.482  0.00  0.00     0.169 A 
ATOM     17  N   UNL d   1      33.005  19.417 -23.808  0.00  0.00    -0.225 NA
ATOM     18  C   UNL d   1      33.057  19.965 -23.195  0.00  0.00     0.101 A 
ATOM     19  C   UNL d   1      33.228  20.771 -23.187  0.00  0.00     0.021 A 
ATOM     20  C   UNL d   1      32.898  19.571 -22.486  0.00  0.00     0.101 A 
ATOM     21  C   UNL d   1      33.241  21.185 -22.472  0.00  0.00     0.002 A 
ATOM     22  C   UNL d   1      33.082  20.791 -21.766  0.00  0.00     0.002 A 
ATOM     23  C   UNL d   1      32.911  19.984 -21.773  0.00  0.00     0.021 A 
ATOM     24  N   UNL d   1      32.748  18.780 -22.664  0.00  0.00    -0.225 NA
ENDBRANCH  15  16
ENDBRANCH  14  15
ENDBRANCH   5  14
TORSDOF 3
ENDMDL
MODEL 4
REMARK VINA RESULT:      -2.3      2.337      5.982
REMARK  3 active torsions:
REMARK  status: ('A' for Active; 'I' for Inactive)
REMARK    1  A    between atoms: C_6  and  C_16 
REMARK    2  A    between atoms: S_14  and  C_8 
REMARK    3  A    between atoms: C_16  and  S_14 
ROOT
ATOM      1  C   UNL d   1      33.026  22.067 -21.216  0.00  0.00     0.141 A 
ATOM      2  O   UNL d   1      33.197  21.655 -20.522  0.00  0.00    -0.303 OA
ATOM      3  C   UNL d   1      32.859  22.849 -21.015  0.00  0.00     0.110 A 
ATOM      4  C   UNL d   1      32.925  22.921 -20.195  0.00  0.00     0.043 A 
ATOM      5  C   UNL d   1      33.002  21.831 -22.008  0.00  0.00     0.137 A 
ATOM      6  C   UNL d   1      33.134  22.183 -19.892  0.00  0.00     0.102 A 
ATOM      7  N   UNL d   1      32.810  22.378 -22.595  0.00  0.00    -0.215 NA
ATOM      8  N   UNL d   1      32.667  23.396 -21.602  0.00  0.00    -0.222 NA
ATOM      9  C   UNL d   1      32.643  23.159 -22.394  0.00  0.00     0.200 A 
ATOM     10  C   UNL d   1      32.823  23.563 -19.688  0.00  0.00     0.004 A 
ATOM     11  C   UNL d   1      33.241  22.087 -19.078  0.00  0.00     0.025 A 
ATOM     12  C   UNL d   1      32.929  23.467 -18.874  0.00  0.00     0.000 A 
ATOM     13  C   UNL d   1      33.139  22.728 -18.570  0.00  0.00     0.002 A 
ENDROOT
BRANCH   5  14
ATOM     14  S   UNL d   1      33.170  21.048 -22.210  0.00  0.00    -0.062 SA
BRANCH  14  15
ATOM     15  C   UNL d   1      33.115  20.805 -22.996  0.00  0.00     0.076 C 
BRANCH  15  16
ATOM     16  C   UNL d   1      33.101  20.001 -23.177  0.00  0.00     0.169 A 
ATOM     17  N   UNL d   1      33.233  19.666 -23.921  0.00  0.00    -0.225 NA
ATOM     18  C   UNL d   1      33.166  18.848 -23.849  0.00  0.00     0.101 A 
ATOM     19  C   UNL d   1      33.240  18.237 -24.398  0.00  0.00     0.021 A 
ATOM     20  C   UNL d   1      32.994  18.674 -23.061  0.00  0.00     0.101 A 
ATOM     21  C   UNL d   1      33.142  17.453 -24.160  0.00  0.00     0.002 A 
ATOM     22  C   UNL d   1      32.970  17.280 -23.374  0.00  0.00     0.002 A 
ATOM     23  C   UNL d   1      32.896  17.891 -22.824  0.00  0.00     0.021 A 
ATOM     24  N   UNL d   1      32.954  19.386 -22.646  0.00  0.00    -0.225 NA
ENDBRANCH  15  16
ENDBRANCH  14  15
ENDBRANCH   5  14
TORSDOF 3
ENDMDL
MODEL 5
REMARK VINA RESULT:      -1.7      1.258      1.691
REMARK  3 active torsions:
REMARK  status: ('A' for Active; 'I' for Inactive)
REMARK    1  A    between atoms: C_6  and  C_16 
REMARK    2  A    between atoms: S_14  and  C_8 
REMARK    3  A    between atoms: C_16  and  S_14 
ROOT
ATOM      1  C   UNL d   1      31.623  17.723 -24.554  0.00  0.00     0.141 A 
ATOM      2  O   UNL d   1      30.934  18.131 -24.755  0.00  0.00    -0.303 OA
ATOM      3  C   UNL d   1      31.416  16.946 -24.374  0.00  0.00     0.110 A 
ATOM      4  C   UNL d   1      30.599  16.872 -24.463  0.00  0.00     0.043 A 
ATOM      5  C   UNL d   1      32.414  17.961 -24.512  0.00  0.00     0.137 A 
ATOM      6  C   UNL d   1      30.302  17.604 -24.698  0.00  0.00     0.102 A 
ATOM      7  N   UNL d   1      32.995  17.419 -24.290  0.00  0.00    -0.215 NA
ATOM      8  N   UNL d   1      31.998  16.404 -24.152  0.00  0.00    -0.222 NA
ATOM      9  C   UNL d   1      32.788  16.641 -24.110  0.00  0.00     0.200 A 
ATOM     10  C   UNL d   1      30.088  16.232 -24.360  0.00  0.00     0.004 A 
ATOM     11  C   UNL d   1      29.492  17.697 -24.831  0.00  0.00     0.025 A 
ATOM     12  C   UNL d   1      29.279  16.326 -24.493  0.00  0.00     0.000 A 
ATOM     13  C   UNL d   1      28.981  17.059 -24.729  0.00  0.00     0.002 A 
ENDROOT
BRANCH   5  14
ATOM     14  S   UNL d   1      32.621  18.739 -24.693  0.00  0.00    -0.062 SA
BRANCH  14  15
ATOM     15  C   UNL d   1      33.235  19.107 -24.283  0.00  0.00     0.076 C 
BRANCH  15  16
ATOM     16  C   UNL d   1      33.236  19.927 -24.196  0.00  0.00     0.169 A 
ATOM     17  N   UNL d   1      33.238  20.482 -24.806  0.00  0.00    -0.225 NA
ATOM     18  C   UNL d   1      33.239  21.234 -24.469  0.00  0.00     0.101 A 
ATOM     19  C   UNL d   1      33.241  21.989 -24.802  0.00  0.00     0.021 A 
ATOM     20  C   UNL d   1      33.237  21.146 -23.648  0.00  0.00     0.101 A 
ATOM     21  C   UNL d   1      33.241  22.656 -24.314  0.00  0.00     0.002 A 
ATOM     22  C   UNL d   1      33.240  22.567 -23.496  0.00  0.00     0.002 A 
ATOM     23  C   UNL d   1      33.238  21.812 -23.162  0.00  0.00     0.021 A 
ATOM     24  N   UNL d   1      33.236  20.339 -23.480  0.00  0.00    -0.225 NA
ENDBRANCH  15  16
ENDBRANCH  14  15
ENDBRANCH   5  14
TORSDOF 3
ENDMDL
MODEL 6
REMARK VINA RESULT:      -1.3      1.835      2.422
REMARK  3 active torsions:
REMARK  status: ('A' for Active; 'I' for Inactive)
REMARK    1  A    between atoms: C_6  and  C_16 
REMARK    2  A    between atoms: S_14  and  C_8 
REMARK    3  A    between atoms: C_16  and  S_14 
ROOT
ATOM      1  C   UNL d   1      33.007  18.448 -23.087  0.00  0.00     0.141 A 
ATOM      2  O   UNL d   1      32.904  17.888 -22.488  0.00  0.00    -0.303 OA
ATOM      3  C   UNL d   1      33.098  18.044 -23.800  0.00  0.00     0.110 A 
ATOM      4  C   UNL d   1      33.051  17.235 -23.643  0.00  0.00     0.043 A 
ATOM      5  C   UNL d   1      33.030  19.274 -23.073  0.00  0.00     0.137 A 
ATOM      6  C   UNL d   1      32.931  17.140 -22.833  0.00  0.00     0.102 A 
ATOM      7  N   UNL d   1      33.144  19.693 -23.775  0.00  0.00    -0.215 NA
ATOM      8  N   UNL d   1      33.211  18.464 -24.501  0.00  0.00    -0.222 NA
ATOM      9  C   UNL d   1      33.234  19.290 -24.488  0.00  0.00     0.200 A 
ATOM     10  C   UNL d   1      33.102  16.574 -24.135  0.00  0.00     0.004 A 
ATOM     11  C   UNL d   1      32.862  16.382 -22.513  0.00  0.00     0.025 A 
ATOM     12  C   UNL d   1      33.033  15.816 -23.814  0.00  0.00     0.000 A 
ATOM     13  C   UNL d   1      32.913  15.720 -23.003  0.00  0.00     0.002 A 
ENDROOT
BRANCH   5  14
ATOM     14  S   UNL d   1      32.939  19.677 -22.359  0.00  0.00    -0.062 SA
BRANCH  14  15
ATOM     15  C   UNL d   1      32.506  20.379 -22.335  0.00  0.00     0.076 C 
BRANCH  15  16
ATOM     16  C   UNL d   1      32.669  20.943 -21.756  0.00  0.00     0.169 A 
ATOM     17  N   UNL d   1      32.760  21.754 -21.877  0.00  0.00    -0.225 NA
ATOM     18  C   UNL d   1      32.917  22.106 -21.149  0.00  0.00     0.101 A 
ATOM     19  C   UNL d   1      33.055  22.890 -20.932  0.00  0.00     0.021 A 
ATOM     20  C   UNL d   1      32.925  21.513 -20.575  0.00  0.00     0.101 A 
ATOM     21  C   UNL d   1      33.200  23.081 -20.142  0.00  0.00     0.002 A 
ATOM     22  C   UNL d   1      33.207  22.489 -19.570  0.00  0.00     0.002 A 
ATOM     23  C   UNL d   1      33.070  21.704 -19.786  0.00  0.00     0.021 A 
ATOM     24  N   UNL d   1      32.772  20.794 -20.950  0.00  0.00    -0.225 NA
ENDBRANCH  15  16
ENDBRANCH  14  15
ENDBRANCH   5  14
TORSDOF 3
ENDMDL
