MODEL 1
REMARK VINA RESULT:      61.2      0.000      0.000
REMARK  2 active torsions:
REMARK  status: ('A' for Active; 'I' for Inactive)
REMARK    1  A    between atoms: C_8  and  C_2 
REMARK    2  A    between atoms: C_9  and  C_4 
ROOT
ATOM      1  N   UNL d   1     -50.958  26.603  33.484  0.00  0.00    -0.246 NA
ATOM      2  C   UNL d   1     -51.928  25.269  33.471  0.00  0.00     0.003 A 
ATOM      3  C   UNL d   1     -52.262  26.021  33.433  0.00  0.00     0.018 A 
ATOM      4  C   UNL d   1     -50.623  25.850  33.523  0.00  0.00     0.081 A 
ATOM      5  C   UNL d   1     -51.109  25.182  33.516  0.00  0.00     0.019 A 
ATOM      6  C   UNL d   1     -51.777  26.689  33.439  0.00  0.00     0.081 A 
ATOM      7  C   UNL d   1     -53.081  26.108  33.388  0.00  0.00     0.002 A 
ATOM      8  C   UNL d   1     -52.111  27.442  33.400  0.00  0.00     0.019 A 
ATOM      9  C   UNL d   1     -53.416  26.861  33.349  0.00  0.00     0.000 A 
ATOM     10  C   UNL d   1     -52.930  27.529  33.355  0.00  0.00     0.002 A 
ATOM     11  C   UNL d   1     -54.189  26.914  33.307  0.00  0.00     0.000 C 
ENDROOT
BRANCH   2  12
ATOM     12  C   UNL d   1     -52.411  24.606  33.465  0.00  0.00     0.000 A 
ATOM     13  C   UNL d   1     -52.088  23.860  33.611  0.00  0.00     0.000 A 
ATOM     14  C   UNL d   1     -52.574  23.192  33.604  0.00  0.00     0.000 A 
ATOM     15  C   UNL d   1     -53.381  23.271  33.452  0.00  0.00     0.000 A 
ATOM     16  C   UNL d   1     -53.703  24.016  33.307  0.00  0.00     0.000 A 
ATOM     17  C   UNL d   1     -53.217  24.684  33.313  0.00  0.00     0.000 A 
ENDBRANCH   2  12
BRANCH   4  18
ATOM     18  C   UNL d   1     -49.805  25.764  33.568  0.00  0.00     0.021 A 
ATOM     19  C   UNL d   1     -49.460  25.024  33.447  0.00  0.00     0.022 A 
ATOM     20  C   UNL d   1     -48.641  24.938  33.492  0.00  0.00     0.099 A 
ATOM     21  N   UNL d   1     -48.166  25.591  33.658  0.00  0.00    -0.242 NA
ATOM     22  C   UNL d   1     -48.541  26.288  33.769  0.00  0.00     0.099 A 
ATOM     23  C   UNL d   1     -49.330  26.417  33.734  0.00  0.00     0.022 A 
ENDBRANCH   4  18
TORSDOF 2
ENDMDL
