MODEL 1
REMARK VINA RESULT:      33.1      0.000      0.000
REMARK  4 active torsions:
REMARK  status: ('A' for Active; 'I' for Inactive)
REMARK    1  A    between atoms: N_8  and  C_2 
REMARK    2  A    between atoms: C_9  and  C_3 
REMARK    3  A    between atoms: C_7  and  N_10 
REMARK    4  A    between atoms: N_10  and  N_8 
ROOT
ATOM      1  N   UNL d   1      13.517  13.038  -3.416  0.00  0.00    -0.219 NA
ATOM      2  C   UNL d   1      13.141  12.943  -4.133  0.00  0.00     0.215 A 
ATOM      3  C   UNL d   1      13.465  12.298  -3.026  0.00  0.00     0.090 A 
ATOM      4  S   UNL d   1      12.861  12.168  -4.191  0.00  0.00    -0.045 SA
ATOM      5  C   UNL d   1      13.062  11.779  -3.512  0.00  0.00     0.058 A 
ENDROOT
BRANCH   2   6
ATOM      6  N   UNL d   1      13.049  13.520  -4.714  0.00  0.00    -0.120 NA
BRANCH   6   7
ATOM      7  N   UNL d   1      12.838  14.279  -4.505  0.00  0.00    -0.127 NA
BRANCH   7   8
ATOM      8  C   UNL d   1      13.351  14.911  -4.673  0.00  0.00     0.184 A 
ATOM      9  N   UNL d   1      13.775  15.154  -4.017  0.00  0.00    -0.224 NA
ATOM     10  C   UNL d   1      14.329  15.745  -3.938  0.00  0.00     0.101 A 
ATOM     11  C   UNL d   1      14.608  16.256  -4.504  0.00  0.00     0.021 A 
ATOM     12  C   UNL d   1      14.396  16.302  -5.307  0.00  0.00     0.002 A 
ATOM     13  C   UNL d   1      13.864  15.852  -5.719  0.00  0.00     0.003 A 
ATOM     14  C   UNL d   1      13.383  15.217  -5.442  0.00  0.00     0.041 A 
ENDBRANCH   7   8
ENDBRANCH   6   7
ENDBRANCH   2   6
BRANCH   3  15
ATOM     15  C   UNL d   1      13.788  12.165  -2.266  0.00  0.00     0.018 A 
ATOM     16  C   UNL d   1      13.317  11.980  -1.627  0.00  0.00     0.002 A 
ATOM     17  C   UNL d   1      13.650  11.853  -0.885  0.00  0.00     0.011 A 
ATOM     18  C   UNL d   1      14.467  11.912  -0.786  0.00  0.00     0.058 A 
ATOM     19  C   UNL d   1      14.956  12.097  -1.418  0.00  0.00     0.011 A 
ATOM     20 CL   UNL d   1      14.790  11.780  -0.026  0.00  0.00    -0.082 Cl
ATOM     21  C   UNL d   1      14.621  12.227  -2.168  0.00  0.00     0.002 A 
ENDBRANCH   3  15
TORSDOF 4
ENDMDL
