MODEL 1
REMARK VINA RESULT:      -2.3      0.000      0.000
REMARK  6 active torsions:
REMARK  status: ('A' for Active; 'I' for Inactive)
REMARK    1  A    between atoms: C_6  and  C_1 
REMARK    2  A    between atoms: C_8  and  C_6 
REMARK    3  A    between atoms: O_14  and  C_10 
REMARK    4  A    between atoms: C_12  and  C_20 
REMARK    5  A    between atoms: O_21  and  C_12 
REMARK    6  A    between atoms: C_20  and  O_14 
ROOT
ATOM      1  C   UNL d   1      33.237  21.412 -22.610  0.00  0.00     0.141 A 
ATOM      2  C   UNL d   1      33.234  20.079 -22.753  0.00  0.00     0.105 A 
ATOM      3  O   UNL d   1      33.240  20.698 -22.191  0.00  0.00    -0.304 OA
ATOM      4  C   UNL d   1      33.227  20.409 -23.504  0.00  0.00     0.064 A 
ATOM      5  C   UNL d   1      33.229  21.242 -23.429  0.00  0.00     0.220 A 
ATOM      6  C   UNL d   1      33.233  19.255 -22.662  0.00  0.00     0.046 A 
ATOM      7  C   UNL d   1      33.220  19.918 -24.172  0.00  0.00     0.007 A 
ATOM      8  C   UNL d   1      33.227  18.773 -23.326  0.00  0.00     0.102 A 
ATOM      9  O   UNL d   1      33.224  21.791 -24.043  0.00  0.00    -0.284 OA
ATOM     10  C   UNL d   1      33.220  19.103 -24.077  0.00  0.00     0.025 A 
ATOM     11  C   UNL d   1      33.240  18.923 -21.906  0.00  0.00     0.004 C 
ENDROOT
BRANCH   1  12
ATOM     12  C   UNL d   1      33.241  22.172 -22.277  0.00  0.00     0.053 C 
BRANCH  12  13
ATOM     13  C   UNL d   1      32.872  22.307 -21.559  0.00  0.00     0.102 A 
ATOM     14  O   UNL d   1      32.080  22.170 -21.392  0.00  0.00    -0.305 OA
ATOM     15  C   UNL d   1      31.943  22.381 -20.605  0.00  0.00     0.123 A 
ATOM     16  C   UNL d   1      32.660  22.650 -20.287  0.00  0.00     0.029 A 
ATOM     17  C   UNL d   1      33.226  22.603 -20.875  0.00  0.00     0.027 A 
ENDBRANCH  12  13
ENDBRANCH   1  12
BRANCH   8  18
ATOM     18  O   UNL d   1      33.227  17.955 -23.239  0.00  0.00    -0.300 OA
BRANCH  18  19
ATOM     19  C   UNL d   1      32.740  17.483 -23.711  0.00  0.00     0.191 C 
BRANCH  19  20
ATOM     20  C   UNL d   1      32.681  16.667 -23.567  0.00  0.00     0.321 C 
ATOM     21  O   UNL d   1      33.233  16.293 -23.082  0.00  0.00    -0.257 OA
BRANCH  20  22
ATOM     22  O   UNL d   1      32.078  16.234 -23.905  0.00  0.00    -0.294 OA
ATOM     23  C   UNL d   1      31.743  15.602 -23.504  0.00  0.00     0.185 C 
ENDBRANCH  20  22
ENDBRANCH  19  20
ENDBRANCH  18  19
ENDBRANCH   8  18
TORSDOF 6
ENDMDL
MODEL 2
REMARK VINA RESULT:      -2.2      1.031      1.727
REMARK  6 active torsions:
REMARK  status: ('A' for Active; 'I' for Inactive)
REMARK    1  A    between atoms: C_6  and  C_1 
REMARK    2  A    between atoms: C_8  and  C_6 
REMARK    3  A    between atoms: O_14  and  C_10 
REMARK    4  A    between atoms: C_12  and  C_20 
REMARK    5  A    between atoms: O_21  and  C_12 
REMARK    6  A    between atoms: C_20  and  O_14 
ROOT
ATOM      1  C   UNL d   1      33.131  21.249 -21.386  0.00  0.00     0.141 A 
ATOM      2  C   UNL d   1      33.140  20.279 -22.312  0.00  0.00     0.105 A 
ATOM      3  O   UNL d   1      33.101  21.107 -22.202  0.00  0.00    -0.304 OA
ATOM      4  C   UNL d   1      33.194  19.920 -21.577  0.00  0.00     0.064 A 
ATOM      5  C   UNL d   1      33.189  20.515 -20.989  0.00  0.00     0.220 A 
ATOM      6  C   UNL d   1      33.133  19.816 -23.000  0.00  0.00     0.046 A 
ATOM      7  C   UNL d   1      33.241  19.094 -21.521  0.00  0.00     0.007 A 
ATOM      8  C   UNL d   1      33.180  18.999 -22.940  0.00  0.00     0.102 A 
ATOM      9  O   UNL d   1      33.233  20.402 -20.174  0.00  0.00    -0.284 OA
ATOM     10  C   UNL d   1      33.233  18.640 -22.204  0.00  0.00     0.025 A 
ATOM     11  C   UNL d   1      33.079  20.178 -23.740  0.00  0.00     0.004 C 
ENDROOT
BRANCH   1  12
ATOM     12  C   UNL d   1      33.108  21.994 -21.021  0.00  0.00     0.053 C 
BRANCH  12  13
ATOM     13  C   UNL d   1      32.784  22.634 -21.415  0.00  0.00     0.102 A 
ATOM     14  O   UNL d   1      32.004  22.887 -21.362  0.00  0.00    -0.305 OA
ATOM     15  C   UNL d   1      31.916  23.548 -21.848  0.00  0.00     0.123 A 
ATOM     16  C   UNL d   1      32.650  23.702 -22.203  0.00  0.00     0.029 A 
ATOM     17  C   UNL d   1      33.178  23.139 -21.934  0.00  0.00     0.027 A 
ENDBRANCH  12  13
ENDBRANCH   1  12
BRANCH   8  18
ATOM     18  O   UNL d   1      33.173  18.538 -23.621  0.00  0.00    -0.300 OA
BRANCH  18  19
ATOM     19  C   UNL d   1      33.001  17.730 -23.579  0.00  0.00     0.191 C 
BRANCH  19  20
ATOM     20  C   UNL d   1      32.788  17.311 -24.263  0.00  0.00     0.321 C 
ATOM     21  O   UNL d   1      32.163  17.576 -24.731  0.00  0.00    -0.257 OA
BRANCH  20  22
ATOM     22  O   UNL d   1      33.194  16.636 -24.475  0.00  0.00    -0.294 OA
ATOM     23  C   UNL d   1      32.839  15.899 -24.418  0.00  0.00     0.185 C 
ENDBRANCH  20  22
ENDBRANCH  19  20
ENDBRANCH  18  19
ENDBRANCH   8  18
TORSDOF 6
ENDMDL
MODEL 3
REMARK VINA RESULT:      -1.6      1.636      5.332
REMARK  6 active torsions:
REMARK  status: ('A' for Active; 'I' for Inactive)
REMARK    1  A    between atoms: C_6  and  C_1 
REMARK    2  A    between atoms: C_8  and  C_6 
REMARK    3  A    between atoms: O_14  and  C_10 
REMARK    4  A    between atoms: C_12  and  C_20 
REMARK    5  A    between atoms: O_21  and  C_12 
REMARK    6  A    between atoms: C_20  and  O_14 
ROOT
ATOM      1  C   UNL d   1      31.086  16.305 -24.119  0.00  0.00     0.141 A 
ATOM      2  C   UNL d   1      31.657  17.505 -23.944  0.00  0.00     0.105 A 
ATOM      3  O   UNL d   1      30.942  17.120 -24.144  0.00  0.00    -0.304 OA
ATOM      4  C   UNL d   1      32.229  16.936 -23.799  0.00  0.00     0.064 A 
ATOM      5  C   UNL d   1      31.884  16.181 -23.905  0.00  0.00     0.220 A 
ATOM      6  C   UNL d   1      31.847  18.310 -23.878  0.00  0.00     0.046 A 
ATOM      7  C   UNL d   1      32.997  17.163 -23.587  0.00  0.00     0.007 A 
ATOM      8  C   UNL d   1      32.609  18.531 -23.668  0.00  0.00     0.102 A 
ATOM      9  O   UNL d   1      32.259  15.453 -23.817  0.00  0.00    -0.284 OA
ATOM     10  C   UNL d   1      33.181  17.961 -23.524  0.00  0.00     0.025 A 
ATOM     11  C   UNL d   1      31.272  18.883 -24.024  0.00  0.00     0.004 C 
ENDROOT
BRANCH   1  12
ATOM     12  C   UNL d   1      30.532  15.708 -24.279  0.00  0.00     0.053 C 
BRANCH  12  13
ATOM     13  C   UNL d   1      29.738  15.833 -24.124  0.00  0.00     0.102 A 
ATOM     14  O   UNL d   1      29.359  15.687 -23.410  0.00  0.00    -0.305 OA
ATOM     15  C   UNL d   1      28.564  15.890 -23.496  0.00  0.00     0.123 A 
ATOM     16  C   UNL d   1      28.454  16.164 -24.271  0.00  0.00     0.029 A 
ATOM     17  C   UNL d   1      29.176  16.127 -24.651  0.00  0.00     0.027 A 
ENDBRANCH  12  13
ENDBRANCH   1  12
BRANCH   8  18
ATOM     18  O   UNL d   1      32.801  19.328 -23.602  0.00  0.00    -0.300 OA
BRANCH  18  19
ATOM     19  C   UNL d   1      33.197  19.611 -22.935  0.00  0.00     0.191 C 
BRANCH  19  20
ATOM     20  C   UNL d   1      33.213  20.424 -22.770  0.00  0.00     0.321 C 
ATOM     21  O   UNL d   1      33.241  20.970 -23.388  0.00  0.00    -0.257 OA
BRANCH  20  22
ATOM     22  O   UNL d   1      33.202  20.688 -21.998  0.00  0.00    -0.294 OA
ATOM     23  C   UNL d   1      33.162  21.489 -21.831  0.00  0.00     0.185 C 
ENDBRANCH  20  22
ENDBRANCH  19  20
ENDBRANCH  18  19
ENDBRANCH   8  18
TORSDOF 6
ENDMDL
MODEL 4
REMARK VINA RESULT:      -0.3      1.017      4.976
REMARK  6 active torsions:
REMARK  status: ('A' for Active; 'I' for Inactive)
REMARK    1  A    between atoms: C_6  and  C_1 
REMARK    2  A    between atoms: C_8  and  C_6 
REMARK    3  A    between atoms: O_14  and  C_10 
REMARK    4  A    between atoms: C_12  and  C_20 
REMARK    5  A    between atoms: O_21  and  C_12 
REMARK    6  A    between atoms: C_20  and  O_14 
ROOT
ATOM      1  C   UNL d   1      33.114  18.196 -23.635  0.00  0.00     0.141 A 
ATOM      2  C   UNL d   1      33.157  19.459 -23.188  0.00  0.00     0.105 A 
ATOM      3  O   UNL d   1      33.126  18.987 -23.878  0.00  0.00    -0.304 OA
ATOM      4  C   UNL d   1      33.163  18.965 -22.534  0.00  0.00     0.064 A 
ATOM      5  C   UNL d   1      33.136  18.172 -22.799  0.00  0.00     0.220 A 
ATOM      6  C   UNL d   1      33.180  20.282 -23.087  0.00  0.00     0.046 A 
ATOM      7  C   UNL d   1      33.192  19.288 -21.771  0.00  0.00     0.007 A 
ATOM      8  C   UNL d   1      33.208  20.597 -22.330  0.00  0.00     0.102 A 
ATOM      9  O   UNL d   1      33.132  17.496 -22.328  0.00  0.00    -0.284 OA
ATOM     10  C   UNL d   1      33.214  20.103 -21.676  0.00  0.00     0.025 A 
ATOM     11  C   UNL d   1      33.174  20.779 -23.746  0.00  0.00     0.004 C 
ENDROOT
BRANCH   1  12
ATOM     12  C   UNL d   1      33.084  17.534 -24.134  0.00  0.00     0.053 C 
BRANCH  12  13
ATOM     13  C   UNL d   1      32.367  17.282 -24.439  0.00  0.00     0.102 A 
ATOM     14  O   UNL d   1      31.641  17.650 -24.327  0.00  0.00    -0.305 OA
ATOM     15  C   UNL d   1      31.068  17.213 -24.730  0.00  0.00     0.123 A 
ATOM     16  C   UNL d   1      31.447  16.571 -25.093  0.00  0.00     0.029 A 
ATOM     17  C   UNL d   1      32.242  16.618 -24.912  0.00  0.00     0.027 A 
ENDBRANCH  12  13
ENDBRANCH   1  12
BRANCH   8  18
ATOM     18  O   UNL d   1      33.231  21.413 -22.227  0.00  0.00    -0.300 OA
BRANCH  18  19
ATOM     19  C   UNL d   1      32.583  21.814 -21.908  0.00  0.00     0.191 C 
BRANCH  19  20
ATOM     20  C   UNL d   1      32.657  22.603 -21.662  0.00  0.00     0.321 C 
ATOM     21  O   UNL d   1      32.481  23.217 -22.184  0.00  0.00    -0.257 OA
BRANCH  20  22
ATOM     22  O   UNL d   1      32.905  22.775 -20.904  0.00  0.00    -0.294 OA
ATOM     23  C   UNL d   1      32.485  23.302 -20.437  0.00  0.00     0.185 C 
ENDBRANCH  20  22
ENDBRANCH  19  20
ENDBRANCH  18  19
ENDBRANCH   8  18
TORSDOF 6
ENDMDL
MODEL 5
REMARK VINA RESULT:      -0.2      2.243      3.976
REMARK  6 active torsions:
REMARK  status: ('A' for Active; 'I' for Inactive)
REMARK    1  A    between atoms: C_6  and  C_1 
REMARK    2  A    between atoms: C_8  and  C_6 
REMARK    3  A    between atoms: O_14  and  C_10 
REMARK    4  A    between atoms: C_12  and  C_20 
REMARK    5  A    between atoms: O_21  and  C_12 
REMARK    6  A    between atoms: C_20  and  O_14 
ROOT
ATOM      1  C   UNL d   1      32.558  18.264 -24.490  0.00  0.00     0.141 A 
ATOM      2  C   UNL d   1      31.368  17.698 -24.245  0.00  0.00     0.105 A 
ATOM      3  O   UNL d   1      31.804  18.408 -24.178  0.00  0.00    -0.304 OA
ATOM      4  C   UNL d   1      31.846  17.129 -24.592  0.00  0.00     0.064 A 
ATOM      5  C   UNL d   1      32.593  17.471 -24.750  0.00  0.00     0.220 A 
ATOM      6  C   UNL d   1      30.590  17.510 -24.029  0.00  0.00     0.046 A 
ATOM      7  C   UNL d   1      31.552  16.366 -24.726  0.00  0.00     0.007 A 
ATOM      8  C   UNL d   1      30.303  16.753 -24.163  0.00  0.00     0.102 A 
ATOM      9  O   UNL d   1      33.241  17.097 -25.096  0.00  0.00    -0.284 OA
ATOM     10  C   UNL d   1      30.782  16.184 -24.510  0.00  0.00     0.025 A 
ATOM     11  C   UNL d   1      30.108  18.082 -23.680  0.00  0.00     0.004 C 
ENDROOT
BRANCH   1  12
ATOM     12  C   UNL d   1      33.177  18.815 -24.538  0.00  0.00     0.053 C 
BRANCH  12  13
ATOM     13  C   UNL d   1      33.099  19.551 -24.191  0.00  0.00     0.102 A 
ATOM     14  O   UNL d   1      33.207  19.722 -23.395  0.00  0.00    -0.305 OA
ATOM     15  C   UNL d   1      33.074  20.529 -23.285  0.00  0.00     0.123 A 
ATOM     16  C   UNL d   1      32.881  20.857 -24.022  0.00  0.00     0.029 A 
ATOM     17  C   UNL d   1      32.898  20.254 -24.573  0.00  0.00     0.027 A 
ENDBRANCH  12  13
ENDBRANCH   1  12
BRANCH   8  18
ATOM     18  O   UNL d   1      29.532  16.563 -23.949  0.00  0.00    -0.300 OA
BRANCH  18  19
ATOM     19  C   UNL d   1      29.250  15.791 -24.036  0.00  0.00     0.191 C 
BRANCH  19  20
ATOM     20  C   UNL d   1      28.508  15.579 -23.729  0.00  0.00     0.321 C 
ATOM     21  O   UNL d   1      28.413  15.472 -22.917  0.00  0.00    -0.257 OA
BRANCH  20  22
ATOM     22  O   UNL d   1      27.872  15.475 -24.229  0.00  0.00    -0.294 OA
ATOM     23  C   UNL d   1      27.105  15.511 -23.941  0.00  0.00     0.185 C 
ENDBRANCH  20  22
ENDBRANCH  19  20
ENDBRANCH  18  19
ENDBRANCH   8  18
TORSDOF 6
ENDMDL
