MODEL 1
REMARK VINA RESULT:      28.2      0.000      0.000
REMARK  3 active torsions:
REMARK  status: ('A' for Active; 'I' for Inactive)
REMARK    1  A    between atoms: S_3  and  N_1 
REMARK    2  A    between atoms: C_7  and  C_4 
REMARK    3  A    between atoms: C_12  and  C_5 
ROOT
ATOM      1  N   UNL d   1      45.932 -18.052  44.234  0.00  0.00    -0.155 N 
ATOM      2  N   UNL d   1      45.807 -17.343  44.618  0.00  0.00    -0.156 NA
ATOM      3  C   UNL d   1      46.052 -17.900  43.446  0.00  0.00     0.096 A 
ATOM      4  C   UNL d   1      45.851 -16.750  44.058  0.00  0.00     0.103 A 
ATOM      5  C   UNL d   1      46.002 -17.084  43.333  0.00  0.00     0.041 A 
ENDROOT
BRANCH   3   6
ATOM      6  C   UNL d   1      46.200 -18.460  42.855  0.00  0.00     0.020 A 
ATOM      7  C   UNL d   1      46.178 -18.239  42.059  0.00  0.00     0.022 A 
ATOM      8  C   UNL d   1      46.325 -18.798  41.470  0.00  0.00     0.099 A 
ATOM      9  N   UNL d   1      46.303 -18.577  40.675  0.00  0.00    -0.241 NA
ATOM     10  C   UNL d   1      46.493 -19.575  41.676  0.00  0.00     0.099 A 
ATOM     11  C   UNL d   1      46.447 -19.130  40.115  0.00  0.00     0.120 A 
ATOM     12  C   UNL d   1      46.616 -19.907  40.320  0.00  0.00     0.120 A 
ATOM     13  N   UNL d   1      46.641 -20.135  41.087  0.00  0.00    -0.241 NA
ATOM     14  C   UNL d   1      46.516 -19.797  42.471  0.00  0.00     0.021 A 
ATOM     15  C   UNL d   1      46.368 -19.237  43.060  0.00  0.00     0.003 A 
ENDBRANCH   3   6
BRANCH   1  16
ATOM     16  S   UNL d   1      45.937 -18.818  44.584  0.00  0.00     0.266 S 
ATOM     17  O   UNL d   1      45.201 -18.973  44.192  0.00  0.00    -0.203 OA
ATOM     18  O   UNL d   1      45.915 -19.574  44.911  0.00  0.00    -0.203 OA
ATOM     19  C   UNL d   1      46.645 -18.653  44.953  0.00  0.00     0.165 C 
ENDBRANCH   1  16
BRANCH   4  20
ATOM     20  C   UNL d   1      45.759 -15.952  44.202  0.00  0.00     0.019 A 
ATOM     21  C   UNL d   1      46.226 -15.404  43.827  0.00  0.00     0.002 A 
ATOM     22  C   UNL d   1      46.143 -14.582  43.965  0.00  0.00     0.000 A 
ATOM     23  C   UNL d   1      45.564 -14.326  44.503  0.00  0.00     0.000 A 
ATOM     24  C   UNL d   1      45.094 -14.901  44.879  0.00  0.00     0.000 A 
ATOM     25  C   UNL d   1      45.472 -13.534  44.647  0.00  0.00     0.000 C 
ATOM     26  C   UNL d   1      45.182 -15.692  44.739  0.00  0.00     0.002 A 
ENDBRANCH   4  20
TORSDOF 3
ENDMDL
