MODEL 1
REMARK VINA RESULT:      -7.3      0.000      0.000
REMARK  8 active torsions:
REMARK  status: ('A' for Active; 'I' for Inactive)
REMARK    1  A    between atoms: C_3  and  N_1 
REMARK    2  A    between atoms: C_8  and  N_2 
REMARK    3  A    between atoms: C_6  and  C_3 
REMARK    4  A    between atoms: C_9  and  C_3 
REMARK       I    between atoms: C_4  and  N_7 
REMARK    5  A    between atoms: C_5  and  C_4 
REMARK       I    between atoms: N_10  and  C_5 
REMARK    6  A    between atoms: N_7  and  C_9 
REMARK    7  A    between atoms: C_22  and  N_10 
REMARK    8  A    between atoms: C_24  and  C_22 
ROOT
ATOM      1  C   UNL d   1      52.236  34.002  53.022  0.00  0.00     0.106 C 
ENDROOT
BRANCH   1   2
ATOM      2  N   UNL d   1      52.427  33.198  53.126  0.00  0.00    -0.298 N 
ATOM      3  C   UNL d   1      51.885  32.699  53.497  0.00  0.00     0.100 A 
ATOM      4  C   UNL d   1      52.064  31.901  53.605  0.00  0.00     0.100 A 
ATOM      5  N   UNL d   1      52.786  31.601  53.341  0.00  0.00    -0.299 N 
ATOM      6  C   UNL d   1      53.324  32.102  52.970  0.00  0.00     0.100 A 
ATOM      7  C   UNL d   1      53.149  32.899  52.861  0.00  0.00     0.100 A 
BRANCH   5   8
ATOM      8  C   UNL d   1      52.963  30.809  53.448  0.00  0.00     0.092 A 
ATOM      9  C   UNL d   1      53.408  30.566  54.096  0.00  0.00     0.156 A 
ATOM     10  F   UNL d   1      53.677  31.124  54.641  0.00  0.00    -0.203 F 
ATOM     11  C   UNL d   1      53.587  29.770  54.207  0.00  0.00     0.031 A 
ATOM     12  C   UNL d   1      53.318  29.211  53.663  0.00  0.00     0.002 A 
ATOM     13  C   UNL d   1      52.869  29.454  53.009  0.00  0.00     0.002 A 
ATOM     14  C   UNL d   1      52.693  30.250  52.904  0.00  0.00     0.020 A 
ENDBRANCH   5   8
ENDBRANCH   1   2
BRANCH   1  15
ATOM     15  C   UNL d   1      52.469  34.563  53.580  0.00  0.00     0.118 A 
ATOM     16  O   UNL d   1      52.183  34.757  54.336  0.00  0.00    -0.304 OA
ATOM     17  C   UNL d   1      52.637  35.367  54.635  0.00  0.00     0.123 A 
ATOM     18  C   UNL d   1      53.209  35.560  54.074  0.00  0.00     0.029 A 
ATOM     19  C   UNL d   1      53.100  35.059  53.423  0.00  0.00     0.028 A 
ENDBRANCH   1  15
BRANCH   1  20
ATOM     20  C   UNL d   1      51.806  34.239  52.350  0.00  0.00     0.122 C 
BRANCH  20  21
ATOM     21  N   UNL d   1      50.981  34.262  52.374  0.00  0.00    -0.201 NA
ATOM     22  C   UNL d   1      50.543  34.441  51.695  0.00  0.00     0.337 C 
ATOM     23  O   UNL d   1      50.940  34.597  50.990  0.00  0.00    -0.260 OA
BRANCH  22  24
ATOM     24  C   UNL d   1      49.729  34.462  51.724  0.00  0.00     0.337 C 
ATOM     25  N   UNL d   1      49.347  35.003  52.218  0.00  0.00    -0.202 NA
ATOM     26  O   UNL d   1      49.285  33.943  51.260  0.00  0.00    -0.260 OA
BRANCH  25  27
ATOM     27  C   UNL d   1      48.523  35.024  52.248  0.00  0.00     0.102 C 
BRANCH  27  28
ATOM     28  C   UNL d   1      48.142  35.582  52.715  0.00  0.00     0.019 A 
ATOM     29  C   UNL d   1      47.499  36.003  52.415  0.00  0.00     0.002 A 
ATOM     30  C   UNL d   1      47.118  36.560  52.878  0.00  0.00     0.000 A 
ATOM     31  C   UNL d   1      47.379  36.703  53.656  0.00  0.00     0.000 A 
ATOM     32  C   UNL d   1      48.022  36.282  53.956  0.00  0.00     0.000 A 
ATOM     33  C   UNL d   1      48.403  35.722  53.485  0.00  0.00     0.002 A 
ENDBRANCH  27  28
ENDBRANCH  25  27
ENDBRANCH  22  24
ENDBRANCH  20  21
ENDBRANCH   1  20
TORSDOF 8
ENDMDL
MODEL 2
REMARK VINA RESULT:      -7.0      1.863      5.679
REMARK  8 active torsions:
REMARK  status: ('A' for Active; 'I' for Inactive)
REMARK    1  A    between atoms: C_3  and  N_1 
REMARK    2  A    between atoms: C_8  and  N_2 
REMARK    3  A    between atoms: C_6  and  C_3 
REMARK    4  A    between atoms: C_9  and  C_3 
REMARK       I    between atoms: C_4  and  N_7 
REMARK    5  A    between atoms: C_5  and  C_4 
REMARK       I    between atoms: N_10  and  C_5 
REMARK    6  A    between atoms: N_7  and  C_9 
REMARK    7  A    between atoms: C_22  and  N_10 
REMARK    8  A    between atoms: C_24  and  C_22 
ROOT
ATOM      1  C   UNL d   1      52.525  33.915  53.355  0.00  0.00     0.106 C 
ENDROOT
BRANCH   1   2
ATOM      2  N   UNL d   1      51.789  34.072  53.000  0.00  0.00    -0.298 N 
ATOM      3  C   UNL d   1      51.765  34.484  52.285  0.00  0.00     0.100 A 
ATOM      4  C   UNL d   1      51.041  34.645  51.924  0.00  0.00     0.100 A 
ATOM      5  N   UNL d   1      50.340  34.393  52.278  0.00  0.00    -0.299 N 
ATOM      6  C   UNL d   1      50.367  33.982  52.990  0.00  0.00     0.100 A 
ATOM      7  C   UNL d   1      51.088  33.820  53.353  0.00  0.00     0.100 A 
BRANCH   5   8
ATOM      8  C   UNL d   1      49.621  34.553  51.918  0.00  0.00     0.092 A 
ATOM      9  C   UNL d   1      49.061  35.021  52.298  0.00  0.00     0.156 A 
ATOM     10  F   UNL d   1      49.224  35.330  53.045  0.00  0.00    -0.203 F 
ATOM     11  C   UNL d   1      48.338  35.183  51.939  0.00  0.00     0.031 A 
ATOM     12  C   UNL d   1      48.174  34.874  51.192  0.00  0.00     0.002 A 
ATOM     13  C   UNL d   1      48.737  34.402  50.808  0.00  0.00     0.002 A 
ATOM     14  C   UNL d   1      49.457  34.244  51.171  0.00  0.00     0.020 A 
ENDBRANCH   5   8
ENDBRANCH   1   2
BRANCH   1  15
ATOM     15  C   UNL d   1      52.767  34.338  54.021  0.00  0.00     0.118 A 
ATOM     16  O   UNL d   1      52.682  34.199  54.836  0.00  0.00    -0.304 OA
ATOM     17  C   UNL d   1      53.037  34.813  55.241  0.00  0.00     0.123 A 
ATOM     18  C   UNL d   1      53.347  35.340  54.687  0.00  0.00     0.029 A 
ATOM     19  C   UNL d   1      53.176  35.039  53.934  0.00  0.00     0.028 A 
ENDBRANCH   1  15
BRANCH   1  20
ATOM     20  C   UNL d   1      53.020  33.327  53.034  0.00  0.00     0.122 C 
BRANCH  20  21
ATOM     21  N   UNL d   1      52.779  32.538  53.038  0.00  0.00    -0.201 NA
ATOM     22  C   UNL d   1      53.328  31.928  52.924  0.00  0.00     0.337 C 
ATOM     23  O   UNL d   1      54.121  32.118  52.806  0.00  0.00    -0.260 OA
BRANCH  22  24
ATOM     24  C   UNL d   1      53.085  31.150  52.929  0.00  0.00     0.337 C 
ATOM     25  N   UNL d   1      53.250  30.670  53.581  0.00  0.00    -0.202 NA
ATOM     26  O   UNL d   1      52.674  30.841  52.283  0.00  0.00    -0.260 OA
BRANCH  25  27
ATOM     27  C   UNL d   1      53.005  29.883  53.586  0.00  0.00     0.102 C 
BRANCH  27  28
ATOM     28  C   UNL d   1      53.174  29.403  54.230  0.00  0.00     0.019 A 
ATOM     29  C   UNL d   1      53.540  28.672  54.117  0.00  0.00     0.002 A 
ATOM     30  C   UNL d   1      53.710  28.192  54.756  0.00  0.00     0.000 A 
ATOM     31  C   UNL d   1      53.513  28.440  55.527  0.00  0.00     0.000 A 
ATOM     32  C   UNL d   1      53.146  29.170  55.640  0.00  0.00     0.000 A 
ATOM     33  C   UNL d   1      52.977  29.651  54.992  0.00  0.00     0.002 A 
ENDBRANCH  27  28
ENDBRANCH  25  27
ENDBRANCH  22  24
ENDBRANCH  20  21
ENDBRANCH   1  20
TORSDOF 8
ENDMDL
MODEL 3
REMARK VINA RESULT:      -6.4      1.484      2.232
REMARK  8 active torsions:
REMARK  status: ('A' for Active; 'I' for Inactive)
REMARK    1  A    between atoms: C_3  and  N_1 
REMARK    2  A    between atoms: C_8  and  N_2 
REMARK    3  A    between atoms: C_6  and  C_3 
REMARK    4  A    between atoms: C_9  and  C_3 
REMARK       I    between atoms: C_4  and  N_7 
REMARK    5  A    between atoms: C_5  and  C_4 
REMARK       I    between atoms: N_10  and  C_5 
REMARK    6  A    between atoms: N_7  and  C_9 
REMARK    7  A    between atoms: C_22  and  N_10 
REMARK    8  A    between atoms: C_24  and  C_22 
ROOT
ATOM      1  C   UNL d   1      53.907  33.271  53.968  0.00  0.00     0.106 C 
ENDROOT
BRANCH   1   2
ATOM      2  N   UNL d   1      53.757  32.452  53.953  0.00  0.00    -0.298 N 
ATOM      3  C   UNL d   1      53.314  32.112  54.561  0.00  0.00     0.100 A 
ATOM      4  C   UNL d   1      53.159  31.302  54.557  0.00  0.00     0.100 A 
ATOM      5  N   UNL d   1      53.447  30.831  53.944  0.00  0.00    -0.299 N 
ATOM      6  C   UNL d   1      53.888  31.173  53.339  0.00  0.00     0.100 A 
ATOM      7  C   UNL d   1      54.044  31.981  53.340  0.00  0.00     0.100 A 
BRANCH   5   8
ATOM      8  C   UNL d   1      53.293  30.026  53.940  0.00  0.00     0.092 A 
ATOM      9  C   UNL d   1      52.768  29.705  53.393  0.00  0.00     0.156 A 
ATOM     10  F   UNL d   1      52.397  30.197  52.845  0.00  0.00    -0.203 F 
ATOM     11  C   UNL d   1      52.612  28.897  53.387  0.00  0.00     0.031 A 
ATOM     12  C   UNL d   1      52.983  28.405  53.935  0.00  0.00     0.002 A 
ATOM     13  C   UNL d   1      53.512  28.726  54.488  0.00  0.00     0.002 A 
ATOM     14  C   UNL d   1      53.664  29.534  54.488  0.00  0.00     0.020 A 
ENDBRANCH   5   8
ENDBRANCH   1   2
BRANCH   1  15
ATOM     15  C   UNL d   1      54.451  33.587  54.501  0.00  0.00     0.118 A 
ATOM     16  O   UNL d   1      54.385  33.833  55.292  0.00  0.00    -0.304 OA
ATOM     17  C   UNL d   1      55.115  34.102  55.541  0.00  0.00     0.123 A 
ATOM     18  C   UNL d   1      55.644  34.028  54.912  0.00  0.00     0.029 A 
ATOM     19  C   UNL d   1      55.226  33.708  54.272  0.00  0.00     0.028 A 
ENDBRANCH   1  15
BRANCH   1  20
ATOM     20  C   UNL d   1      53.503  33.772  53.440  0.00  0.00     0.122 C 
BRANCH  20  21
ATOM     21  N   UNL d   1      52.715  33.970  53.580  0.00  0.00    -0.201 NA
ATOM     22  C   UNL d   1      52.311  34.484  53.071  0.00  0.00     0.337 C 
ATOM     23  O   UNL d   1      52.706  34.796  52.419  0.00  0.00    -0.260 OA
BRANCH  22  24
ATOM     24  C   UNL d   1      51.532  34.676  53.214  0.00  0.00     0.337 C 
ATOM     25  N   UNL d   1      50.950  34.478  52.663  0.00  0.00    -0.202 NA
ATOM     26  O   UNL d   1      51.325  35.071  53.909  0.00  0.00    -0.260 OA
BRANCH  25  27
ATOM     27  C   UNL d   1      50.161  34.673  52.808  0.00  0.00     0.102 C 
BRANCH  27  28
ATOM     28  C   UNL d   1      49.617  34.672  52.193  0.00  0.00     0.019 A 
ATOM     29  C   UNL d   1      49.784  34.267  51.493  0.00  0.00     0.002 A 
ATOM     30  C   UNL d   1      49.243  34.265  50.879  0.00  0.00     0.000 A 
ATOM     31  C   UNL d   1      48.520  34.671  50.959  0.00  0.00     0.000 A 
ATOM     32  C   UNL d   1      48.354  35.076  51.659  0.00  0.00     0.000 A 
ATOM     33  C   UNL d   1      48.902  35.075  52.275  0.00  0.00     0.002 A 
ENDBRANCH  27  28
ENDBRANCH  25  27
ENDBRANCH  22  24
ENDBRANCH  20  21
ENDBRANCH   1  20
TORSDOF 8
ENDMDL
MODEL 4
REMARK VINA RESULT:      -6.1      1.806      3.301
REMARK  8 active torsions:
REMARK  status: ('A' for Active; 'I' for Inactive)
REMARK    1  A    between atoms: C_3  and  N_1 
REMARK    2  A    between atoms: C_8  and  N_2 
REMARK    3  A    between atoms: C_6  and  C_3 
REMARK    4  A    between atoms: C_9  and  C_3 
REMARK       I    between atoms: C_4  and  N_7 
REMARK    5  A    between atoms: C_5  and  C_4 
REMARK       I    between atoms: N_10  and  C_5 
REMARK    6  A    between atoms: N_7  and  C_9 
REMARK    7  A    between atoms: C_22  and  N_10 
REMARK    8  A    between atoms: C_24  and  C_22 
ROOT
ATOM      1  C   UNL d   1      49.778  34.741  52.627  0.00  0.00     0.106 C 
ENDROOT
BRANCH   1   2
ATOM      2  N   UNL d   1      50.481  34.360  52.857  0.00  0.00    -0.298 N 
ATOM      3  C   UNL d   1      50.435  33.656  53.287  0.00  0.00     0.100 A 
ATOM      4  C   UNL d   1      51.126  33.269  53.521  0.00  0.00     0.100 A 
ATOM      5  N   UNL d   1      51.862  33.585  53.325  0.00  0.00    -0.299 N 
ATOM      6  C   UNL d   1      51.904  34.287  52.897  0.00  0.00     0.100 A 
ATOM      7  C   UNL d   1      51.217  34.676  52.662  0.00  0.00     0.100 A 
BRANCH   5   8
ATOM      8  C   UNL d   1      52.546  33.200  53.558  0.00  0.00     0.092 A 
ATOM      9  C   UNL d   1      52.837  32.567  53.120  0.00  0.00     0.156 A 
ATOM     10  F   UNL d   1      52.436  32.318  52.444  0.00  0.00    -0.203 F 
ATOM     11  C   UNL d   1      53.525  32.178  53.352  0.00  0.00     0.031 A 
ATOM     12  C   UNL d   1      53.926  32.426  54.029  0.00  0.00     0.002 A 
ATOM     13  C   UNL d   1      53.635  33.064  54.471  0.00  0.00     0.002 A 
ATOM     14  C   UNL d   1      52.948  33.449  54.234  0.00  0.00     0.020 A 
ENDBRANCH   5   8
ENDBRANCH   1   2
BRANCH   1  15
ATOM     15  C   UNL d   1      49.372  34.498  51.951  0.00  0.00     0.118 A 
ATOM     16  O   UNL d   1      48.857  33.862  51.804  0.00  0.00    -0.304 OA
ATOM     17  C   UNL d   1      48.619  33.898  51.024  0.00  0.00     0.123 A 
ATOM     18  C   UNL d   1      48.980  34.553  50.675  0.00  0.00     0.029 A 
ATOM     19  C   UNL d   1      49.444  34.920  51.255  0.00  0.00     0.028 A 
ENDBRANCH   1  15
BRANCH   1  20
ATOM     20  C   UNL d   1      49.485  35.374  53.083  0.00  0.00     0.122 C 
BRANCH  20  21
ATOM     21  N   UNL d   1      48.696  35.378  53.323  0.00  0.00    -0.201 NA
ATOM     22  C   UNL d   1      48.390  36.016  53.754  0.00  0.00     0.337 C 
ATOM     23  O   UNL d   1      48.883  36.649  53.941  0.00  0.00    -0.260 OA
BRANCH  22  24
ATOM     24  C   UNL d   1      47.609  36.015  53.990  0.00  0.00     0.337 C 
ATOM     25  N   UNL d   1      47.008  36.060  53.426  0.00  0.00    -0.202 NA
ATOM     26  O   UNL d   1      47.420  35.970  54.792  0.00  0.00    -0.260 OA
BRANCH  25  27
ATOM     27  C   UNL d   1      46.218  36.060  53.665  0.00  0.00     0.102 C 
BRANCH  27  28
ATOM     28  C   UNL d   1      45.618  36.064  53.104  0.00  0.00     0.019 A 
ATOM     29  C   UNL d   1      45.080  35.441  53.069  0.00  0.00     0.002 A 
ATOM     30  C   UNL d   1      44.481  35.442  52.512  0.00  0.00     0.000 A 
ATOM     31  C   UNL d   1      44.414  36.077  51.975  0.00  0.00     0.000 A 
ATOM     32  C   UNL d   1      44.952  36.701  52.010  0.00  0.00     0.000 A 
ATOM     33  C   UNL d   1      45.554  36.694  52.575  0.00  0.00     0.002 A 
ENDBRANCH  27  28
ENDBRANCH  25  27
ENDBRANCH  22  24
ENDBRANCH  20  21
ENDBRANCH   1  20
TORSDOF 8
ENDMDL
