MODEL 1
REMARK VINA RESULT:      -3.9      0.000      0.000
REMARK  5 active torsions:
REMARK  status: ('A' for Active; 'I' for Inactive)
REMARK    1  A    between atoms: C_2  and  S_1 
REMARK    2  A    between atoms: N_5  and  S_1 
REMARK    3  A    between atoms: C_12  and  N_5 
REMARK    4  A    between atoms: O_16  and  C_8 
REMARK    5  A    between atoms: C_13  and  C_12 
ROOT
ATOM      1  S   UNL d   1      57.957  -0.172  30.472  0.00  0.00     0.286 S 
ATOM      2  O   UNL d   1      57.755   0.611  30.308  0.00  0.00    -0.198 OA
ATOM      3  O   UNL d   1      58.158  -0.955  30.636  0.00  0.00    -0.198 OA
ENDROOT
BRANCH   1   4
ATOM      4  C   UNL d   1      58.625  -0.100  29.994  0.00  0.00     0.117 A 
ATOM      5  C   UNL d   1      59.311   0.249  30.295  0.00  0.00     0.027 A 
ATOM      6  C   UNL d   1      59.979   0.320  29.817  0.00  0.00     0.081 A 
ATOM      7 CL   UNL d   1      60.666   0.671  30.120  0.00  0.00    -0.080 Cl
ATOM      8  C   UNL d   1      59.962   0.044  29.040  0.00  0.00     0.105 A 
ATOM      9  C   UNL d   1      59.277  -0.304  28.740  0.00  0.00     0.037 A 
ATOM     10  C   UNL d   1      58.609  -0.376  29.218  0.00  0.00     0.072 A 
ATOM     11 CL   UNL d   1      57.928  -0.720  28.925  0.00  0.00    -0.082 Cl
BRANCH   8  12
ATOM     12  O   UNL d   1      60.632   0.116  28.561  0.00  0.00    -0.327 OA
ATOM     13  C   UNL d   1      61.133  -0.530  28.455  0.00  0.00     0.181 C 
ENDBRANCH   8  12
ENDBRANCH   1   4
BRANCH   1  14
ATOM     14  N   UNL d   1      57.288  -0.244  30.950  0.00  0.00    -0.155 NA
BRANCH  14  15
ATOM     15  C   UNL d   1      57.324  -0.029  31.746  0.00  0.00     0.131 C 
BRANCH  15  16
ATOM     16  C   UNL d   1      56.680  -0.171  32.242  0.00  0.00     0.101 A 
ATOM     17  N   UNL d   1      56.423  -0.944  32.372  0.00  0.00    -0.242 NA
ATOM     18  C   UNL d   1      55.779  -1.086  32.868  0.00  0.00     0.099 A 
ATOM     19  C   UNL d   1      55.392  -0.455  33.233  0.00  0.00     0.021 A 
ATOM     20  C   UNL d   1      55.649   0.322  33.103  0.00  0.00     0.003 A 
ATOM     21  C   UNL d   1      56.293   0.464  32.607  0.00  0.00     0.021 A 
ENDBRANCH  15  16
ENDBRANCH  14  15
ENDBRANCH   1  14
TORSDOF 5
ENDMDL
MODEL 2
REMARK VINA RESULT:      -2.8      2.282      4.835
REMARK  5 active torsions:
REMARK  status: ('A' for Active; 'I' for Inactive)
REMARK    1  A    between atoms: C_2  and  S_1 
REMARK    2  A    between atoms: N_5  and  S_1 
REMARK    3  A    between atoms: C_12  and  N_5 
REMARK    4  A    between atoms: O_16  and  C_8 
REMARK    5  A    between atoms: C_13  and  C_12 
ROOT
ATOM      1  S   UNL d   1      56.833  -0.030  32.109  0.00  0.00     0.286 S 
ATOM      2  O   UNL d   1      57.147  -0.738  32.393  0.00  0.00    -0.198 OA
ATOM      3  O   UNL d   1      56.519   0.678  31.826  0.00  0.00    -0.198 OA
ENDROOT
BRANCH   1   4
ATOM      4  C   UNL d   1      56.553   0.148  32.865  0.00  0.00     0.117 A 
ATOM      5  C   UNL d   1      57.086   0.316  33.472  0.00  0.00     0.027 A 
ATOM      6  C   UNL d   1      56.806   0.494  34.228  0.00  0.00     0.081 A 
ATOM      7 CL   UNL d   1      57.342   0.663  34.837  0.00  0.00    -0.080 Cl
ATOM      8  C   UNL d   1      55.994   0.503  34.375  0.00  0.00     0.105 A 
ATOM      9  C   UNL d   1      55.463   0.335  33.767  0.00  0.00     0.037 A 
ATOM     10  C   UNL d   1      55.742   0.157  33.012  0.00  0.00     0.072 A 
ATOM     11 CL   UNL d   1      55.219  -0.010  32.408  0.00  0.00    -0.082 Cl
BRANCH   8  12
ATOM     12  O   UNL d   1      55.714   0.681  35.131  0.00  0.00    -0.327 OA
ATOM     13  C   UNL d   1      54.928   0.526  35.326  0.00  0.00     0.181 C 
ENDBRANCH   8  12
ENDBRANCH   1   4
BRANCH   1  14
ATOM     14  N   UNL d   1      57.113  -0.208  31.354  0.00  0.00    -0.155 NA
BRANCH  14  15
ATOM     15  C   UNL d   1      57.906  -0.076  31.166  0.00  0.00     0.131 C 
BRANCH  15  16
ATOM     16  C   UNL d   1      58.197  -0.296  30.426  0.00  0.00     0.101 A 
ATOM     17  N   UNL d   1      57.977  -1.019  30.095  0.00  0.00    -0.242 NA
ATOM     18  C   UNL d   1      58.268  -1.240  29.355  0.00  0.00     0.099 A 
ATOM     19  C   UNL d   1      58.778  -0.737  28.946  0.00  0.00     0.021 A 
ATOM     20  C   UNL d   1      59.000  -0.009  29.277  0.00  0.00     0.003 A 
ATOM     21  C   UNL d   1      58.709   0.211  30.017  0.00  0.00     0.021 A 
ENDBRANCH  15  16
ENDBRANCH  14  15
ENDBRANCH   1  14
TORSDOF 5
ENDMDL
MODEL 3
REMARK VINA RESULT:      -2.7      1.351      1.773
REMARK  5 active torsions:
REMARK  status: ('A' for Active; 'I' for Inactive)
REMARK    1  A    between atoms: C_2  and  S_1 
REMARK    2  A    between atoms: N_5  and  S_1 
REMARK    3  A    between atoms: C_12  and  N_5 
REMARK    4  A    between atoms: O_16  and  C_8 
REMARK    5  A    between atoms: C_13  and  C_12 
ROOT
ATOM      1  S   UNL d   1      58.045  -0.885  30.293  0.00  0.00     0.286 S 
ATOM      2  O   UNL d   1      57.672  -0.613  29.609  0.00  0.00    -0.198 OA
ATOM      3  O   UNL d   1      58.418  -1.158  30.976  0.00  0.00    -0.198 OA
ENDROOT
BRANCH   1   4
ATOM      4  C   UNL d   1      58.646  -1.215  29.833  0.00  0.00     0.117 A 
ATOM      5  C   UNL d   1      58.581  -1.994  29.568  0.00  0.00     0.027 A 
ATOM      6  C   UNL d   1      59.182  -2.324  29.109  0.00  0.00     0.081 A 
ATOM      7 CL   UNL d   1      59.115  -3.106  28.844  0.00  0.00    -0.080 Cl
ATOM      8  C   UNL d   1      59.846  -1.874  28.915  0.00  0.00     0.105 A 
ATOM      9  C   UNL d   1      59.910  -1.096  29.180  0.00  0.00     0.037 A 
ATOM     10  C   UNL d   1      59.310  -0.767  29.640  0.00  0.00     0.072 A 
ATOM     11 CL   UNL d   1      59.369   0.004  29.904  0.00  0.00    -0.082 Cl
BRANCH   8  12
ATOM     12  O   UNL d   1      60.448  -2.204  28.455  0.00  0.00    -0.327 OA
ATOM     13  C   UNL d   1      61.010  -2.696  28.804  0.00  0.00     0.181 C 
ENDBRANCH   8  12
ENDBRANCH   1   4
BRANCH   1  14
ATOM     14  N   UNL d   1      57.444  -0.555  30.752  0.00  0.00    -0.155 NA
BRANCH  14  15
ATOM     15  C   UNL d   1      57.166  -0.957  31.418  0.00  0.00     0.131 C 
BRANCH  15  16
ATOM     16  C   UNL d   1      56.636  -0.587  31.931  0.00  0.00     0.101 A 
ATOM     17  N   UNL d   1      56.533   0.231  31.897  0.00  0.00    -0.242 NA
ATOM     18  C   UNL d   1      56.003   0.601  32.410  0.00  0.00     0.099 A 
ATOM     19  C   UNL d   1      55.577   0.153  32.958  0.00  0.00     0.021 A 
ATOM     20  C   UNL d   1      55.680  -0.669  32.993  0.00  0.00     0.003 A 
ATOM     21  C   UNL d   1      56.210  -1.039  32.480  0.00  0.00     0.021 A 
ENDBRANCH  15  16
ENDBRANCH  14  15
ENDBRANCH   1  14
TORSDOF 5
ENDMDL
MODEL 4
REMARK VINA RESULT:      -2.4      1.339      1.679
REMARK  5 active torsions:
REMARK  status: ('A' for Active; 'I' for Inactive)
REMARK    1  A    between atoms: C_2  and  S_1 
REMARK    2  A    between atoms: N_5  and  S_1 
REMARK    3  A    between atoms: C_12  and  N_5 
REMARK    4  A    between atoms: O_16  and  C_8 
REMARK    5  A    between atoms: C_13  and  C_12 
ROOT
ATOM      1  S   UNL d   1      57.395   0.202  31.591  0.00  0.00     0.286 S 
ATOM      2  O   UNL d   1      58.066   0.292  32.062  0.00  0.00    -0.198 OA
ATOM      3  O   UNL d   1      56.724   0.111  31.119  0.00  0.00    -0.198 OA
ENDROOT
BRANCH   1   4
ATOM      4  C   UNL d   1      57.867  -0.071  30.971  0.00  0.00     0.117 A 
ATOM      5  C   UNL d   1      58.408   0.438  30.611  0.00  0.00     0.027 A 
ATOM      6  C   UNL d   1      58.880   0.165  29.992  0.00  0.00     0.081 A 
ATOM      7 CL   UNL d   1      59.423   0.677  29.632  0.00  0.00    -0.080 Cl
ATOM      8  C   UNL d   1      58.810  -0.615  29.733  0.00  0.00     0.105 A 
ATOM      9  C   UNL d   1      58.269  -1.123  30.093  0.00  0.00     0.037 A 
ATOM     10  C   UNL d   1      57.797  -0.850  30.712  0.00  0.00     0.072 A 
ATOM     11 CL   UNL d   1      57.261  -1.350  31.072  0.00  0.00    -0.082 Cl
BRANCH   8  12
ATOM     12  O   UNL d   1      59.283  -0.888  29.113  0.00  0.00    -0.327 OA
ATOM     13  C   UNL d   1      59.028  -1.519  28.647  0.00  0.00     0.181 C 
ENDBRANCH   8  12
ENDBRANCH   1   4
BRANCH   1  14
ATOM     14  N   UNL d   1      56.923   0.474  32.210  0.00  0.00    -0.155 NA
BRANCH  14  15
ATOM     15  C   UNL d   1      56.358  -0.024  32.548  0.00  0.00     0.131 C 
BRANCH  15  16
ATOM     16  C   UNL d   1      55.960   0.209  33.232  0.00  0.00     0.101 A 
ATOM     17  N   UNL d   1      56.387   0.444  33.898  0.00  0.00    -0.242 NA
ATOM     18  C   UNL d   1      55.989   0.676  34.582  0.00  0.00     0.099 A 
ATOM     19  C   UNL d   1      55.164   0.674  34.601  0.00  0.00     0.021 A 
ATOM     20  C   UNL d   1      54.733   0.438  33.933  0.00  0.00     0.003 A 
ATOM     21  C   UNL d   1      55.131   0.205  33.248  0.00  0.00     0.021 A 
ENDBRANCH  15  16
ENDBRANCH  14  15
ENDBRANCH   1  14
TORSDOF 5
ENDMDL
