MODEL 1
REMARK VINA RESULT:      -3.4      0.000      0.000
REMARK  4 active torsions:
REMARK  status: ('A' for Active; 'I' for Inactive)
REMARK    1  A    between atoms: S_7  and  C_1 
REMARK       I    between atoms: N_5  and  C_9 
REMARK    2  A    between atoms: C_10  and  S_7 
REMARK    3  A    between atoms: C_15  and  N_8 
REMARK    4  A    between atoms: C_9  and  C_10 
ROOT
ATOM      1  N   UNL d   1      32.903  19.970 -22.906  0.00  0.00    -0.269 N 
ATOM      2  N   UNL d   1      32.884  21.154 -21.751  0.00  0.00    -0.301 N 
ATOM      3  C   UNL d   1      32.914  19.377 -23.491  0.00  0.00     0.271 C 
ATOM      4  C   UNL d   1      32.577  19.818 -22.160  0.00  0.00     0.102 A 
ATOM      5  C   UNL d   1      33.220  20.712 -23.077  0.00  0.00     0.102 A 
ATOM      6  C   UNL d   1      33.209  21.302 -22.499  0.00  0.00     0.100 A 
ATOM      7  C   UNL d   1      32.568  20.405 -21.587  0.00  0.00     0.100 A 
ATOM      8  O   UNL d   1      33.241  19.534 -24.235  0.00  0.00    -0.266 OA
ENDROOT
BRANCH   3   9
ATOM      9  C   UNL d   1      32.595  18.634 -23.314  0.00  0.00     0.097 C 
BRANCH   9  10
ATOM     10  S   UNL d   1      32.523  18.074 -23.918  0.00  0.00    -0.080 SA
BRANCH  10  11
ATOM     11  C   UNL d   1      32.148  17.348 -23.759  0.00  0.00     0.049 A 
ATOM     12  C   UNL d   1      32.478  16.710 -23.360  0.00  0.00     0.087 A 
ATOM     13  N   UNL d   1      31.916  16.107 -23.326  0.00  0.00    -0.245 NA
ATOM     14  C   UNL d   1      33.241  16.685 -23.049  0.00  0.00     0.021 C 
ATOM     15  C   UNL d   1      31.234  16.386 -23.713  0.00  0.00     0.082 A 
ATOM     16  C   UNL d   1      31.383  17.152 -23.977  0.00  0.00     0.025 A 
ATOM     17  C   UNL d   1      30.500  16.032 -23.852  0.00  0.00     0.019 A 
ATOM     18  C   UNL d   1      30.798  17.563 -24.381  0.00  0.00     0.002 A 
ATOM     19  C   UNL d   1      30.063  17.221 -24.526  0.00  0.00     0.000 A 
ATOM     20  C   UNL d   1      29.920  16.445 -24.255  0.00  0.00     0.002 A 
ENDBRANCH  10  11
ENDBRANCH   9  10
ENDBRANCH   3   9
BRANCH   2  21
ATOM     21  C   UNL d   1      32.877  21.746 -21.180  0.00  0.00     0.064 A 
ATOM     22  C   UNL d   1      32.612  22.504 -21.374  0.00  0.00     0.018 A 
ATOM     23  C   UNL d   1      32.607  23.101 -20.791  0.00  0.00     0.002 A 
ATOM     24  C   UNL d   1      32.867  22.931 -20.024  0.00  0.00     0.000 A 
ATOM     25  C   UNL d   1      33.130  22.175 -19.835  0.00  0.00     0.002 A 
ATOM     26  C   UNL d   1      33.135  21.588 -20.408  0.00  0.00     0.018 A 
ENDBRANCH   2  21
TORSDOF 4
ENDMDL
MODEL 2
REMARK VINA RESULT:      -2.3      1.362      5.594
REMARK  4 active torsions:
REMARK  status: ('A' for Active; 'I' for Inactive)
REMARK    1  A    between atoms: S_7  and  C_1 
REMARK       I    between atoms: N_5  and  C_9 
REMARK    2  A    between atoms: C_10  and  S_7 
REMARK    3  A    between atoms: C_15  and  N_8 
REMARK    4  A    between atoms: C_9  and  C_10 
ROOT
ATOM      1  N   UNL d   1      31.489  16.999 -23.676  0.00  0.00    -0.269 N 
ATOM      2  N   UNL d   1      29.966  16.384 -23.874  0.00  0.00    -0.301 N 
ATOM      3  C   UNL d   1      32.258  17.303 -23.574  0.00  0.00     0.271 C 
ATOM      4  C   UNL d   1      30.890  17.470 -23.998  0.00  0.00     0.102 A 
ATOM      5  C   UNL d   1      31.331  16.220 -23.452  0.00  0.00     0.102 A 
ATOM      6  C   UNL d   1      30.569  15.916 -23.552  0.00  0.00     0.100 A 
ATOM      7  C   UNL d   1      30.134  17.166 -24.097  0.00  0.00     0.100 A 
ATOM      8  O   UNL d   1      32.854  16.828 -23.252  0.00  0.00    -0.266 OA
ENDROOT
BRANCH   3   9
ATOM      9  C   UNL d   1      32.413  18.084 -23.800  0.00  0.00     0.097 C 
BRANCH   9  10
ATOM     10  S   UNL d   1      33.009  18.504 -23.413  0.00  0.00    -0.080 SA
BRANCH  10  11
ATOM     11  C   UNL d   1      33.094  19.319 -23.555  0.00  0.00     0.049 A 
ATOM     12  C   UNL d   1      33.172  19.677 -24.290  0.00  0.00     0.087 A 
ATOM     13  N   UNL d   1      33.240  20.492 -24.176  0.00  0.00    -0.245 NA
ATOM     14  C   UNL d   1      33.179  19.283 -25.014  0.00  0.00     0.021 C 
ATOM     15  C   UNL d   1      33.203  20.628 -23.356  0.00  0.00     0.082 A 
ATOM     16  C   UNL d   1      33.113  19.902 -22.978  0.00  0.00     0.025 A 
ATOM     17  C   UNL d   1      33.241  21.325 -22.914  0.00  0.00     0.019 A 
ATOM     18  C   UNL d   1      33.060  19.874 -22.159  0.00  0.00     0.002 A 
ATOM     19  C   UNL d   1      33.097  20.562 -21.708  0.00  0.00     0.000 A 
ATOM     20  C   UNL d   1      33.188  21.294 -22.099  0.00  0.00     0.002 A 
ENDBRANCH  10  11
ENDBRANCH   9  10
ENDBRANCH   3   9
BRANCH   2  21
ATOM     21  C   UNL d   1      29.210  16.074 -23.971  0.00  0.00     0.064 A 
ATOM     22  C   UNL d   1      28.967  15.801 -24.711  0.00  0.00     0.018 A 
ATOM     23  C   UNL d   1      28.200  15.488 -24.805  0.00  0.00     0.002 A 
ATOM     24  C   UNL d   1      27.687  15.453 -24.155  0.00  0.00     0.000 A 
ATOM     25  C   UNL d   1      27.933  15.726 -23.419  0.00  0.00     0.002 A 
ATOM     26  C   UNL d   1      28.688  16.034 -23.328  0.00  0.00     0.018 A 
ENDBRANCH   2  21
TORSDOF 4
ENDMDL
MODEL 3
REMARK VINA RESULT:      -1.8      1.381      5.649
REMARK  4 active torsions:
REMARK  status: ('A' for Active; 'I' for Inactive)
REMARK    1  A    between atoms: S_7  and  C_1 
REMARK       I    between atoms: N_5  and  C_9 
REMARK    2  A    between atoms: C_10  and  S_7 
REMARK    3  A    between atoms: C_15  and  N_8 
REMARK    4  A    between atoms: C_9  and  C_10 
ROOT
ATOM      1  N   UNL d   1      32.839  19.050 -22.639  0.00  0.00    -0.269 N 
ATOM      2  N   UNL d   1      32.536  17.749 -23.616  0.00  0.00    -0.301 N 
ATOM      3  C   UNL d   1      32.993  19.701 -22.143  0.00  0.00     0.271 C 
ATOM      4  C   UNL d   1      32.591  19.166 -23.421  0.00  0.00     0.102 A 
ATOM      5  C   UNL d   1      32.936  18.285 -22.343  0.00  0.00     0.102 A 
ATOM      6  C   UNL d   1      32.784  17.638 -22.833  0.00  0.00     0.100 A 
ATOM      7  C   UNL d   1      32.441  18.522 -23.905  0.00  0.00     0.100 A 
ATOM      8  O   UNL d   1      33.241  19.580 -21.362  0.00  0.00    -0.266 OA
ENDROOT
BRANCH   3   9
ATOM      9  C   UNL d   1      32.895  20.466 -22.444  0.00  0.00     0.097 C 
BRANCH   9  10
ATOM     10  S   UNL d   1      33.219  21.105 -22.032  0.00  0.00    -0.080 SA
BRANCH  10  11
ATOM     11  C   UNL d   1      32.938  21.873 -22.184  0.00  0.00     0.049 A 
ATOM     12  C   UNL d   1      32.948  22.258 -22.909  0.00  0.00     0.087 A 
ATOM     13  N   UNL d   1      32.618  23.008 -22.811  0.00  0.00    -0.245 NA
ATOM     14  C   UNL d   1      33.241  21.942 -23.612  0.00  0.00     0.021 C 
ATOM     15  C   UNL d   1      32.404  23.076 -22.009  0.00  0.00     0.082 A 
ATOM     16  C   UNL d   1      32.604  22.374 -21.628  0.00  0.00     0.025 A 
ATOM     17  C   UNL d   1      32.052  23.694 -21.587  0.00  0.00     0.019 A 
ATOM     18  C   UNL d   1      32.452  22.291 -20.825  0.00  0.00     0.002 A 
ATOM     19  C   UNL d   1      32.102  22.899 -20.394  0.00  0.00     0.000 A 
ATOM     20  C   UNL d   1      31.903  23.607 -20.788  0.00  0.00     0.002 A 
ENDBRANCH  10  11
ENDBRANCH   9  10
ENDBRANCH   3   9
BRANCH   2  21
ATOM     21  C   UNL d   1      32.386  17.100 -24.098  0.00  0.00     0.064 A 
ATOM     22  C   UNL d   1      31.641  17.003 -24.440  0.00  0.00     0.018 A 
ATOM     23  C   UNL d   1      31.493  16.343 -24.929  0.00  0.00     0.002 A 
ATOM     24  C   UNL d   1      32.094  15.790 -25.066  0.00  0.00     0.000 A 
ATOM     25  C   UNL d   1      32.835  15.890 -24.723  0.00  0.00     0.002 A 
ATOM     26  C   UNL d   1      32.980  16.539 -24.243  0.00  0.00     0.018 A 
ENDBRANCH   2  21
TORSDOF 4
ENDMDL
MODEL 4
REMARK VINA RESULT:      -0.9      1.269      5.548
REMARK  4 active torsions:
REMARK  status: ('A' for Active; 'I' for Inactive)
REMARK    1  A    between atoms: S_7  and  C_1 
REMARK       I    between atoms: N_5  and  C_9 
REMARK    2  A    between atoms: C_10  and  S_7 
REMARK    3  A    between atoms: C_15  and  N_8 
REMARK    4  A    between atoms: C_9  and  C_10 
ROOT
ATOM      1  N   UNL d   1      33.002  19.439 -23.193  0.00  0.00    -0.269 N 
ATOM      2  N   UNL d   1      32.745  17.848 -23.568  0.00  0.00    -0.301 N 
ATOM      3  C   UNL d   1      33.132  20.241 -23.010  0.00  0.00     0.271 C 
ATOM      4  C   UNL d   1      32.896  18.882 -22.589  0.00  0.00     0.102 A 
ATOM      5  C   UNL d   1      32.980  19.205 -23.984  0.00  0.00     0.102 A 
ATOM      6  C   UNL d   1      32.852  18.409 -24.168  0.00  0.00     0.100 A 
ATOM      7  C   UNL d   1      32.768  18.093 -22.775  0.00  0.00     0.100 A 
ATOM      8  O   UNL d   1      33.238  20.795 -23.616  0.00  0.00    -0.266 OA
ENDROOT
BRANCH   3   9
ATOM      9  C   UNL d   1      33.153  20.473 -22.215  0.00  0.00     0.097 C 
BRANCH   9  10
ATOM     10  S   UNL d   1      33.237  21.274 -22.032  0.00  0.00    -0.080 SA
BRANCH  10  11
ATOM     11  C   UNL d   1      33.012  21.546 -21.279  0.00  0.00     0.049 A 
ATOM     12  C   UNL d   1      33.013  21.108 -20.584  0.00  0.00     0.087 A 
ATOM     13  N   UNL d   1      32.749  21.593 -19.971  0.00  0.00    -0.245 NA
ATOM     14  C   UNL d   1      33.241  20.319 -20.519  0.00  0.00     0.021 C 
ATOM     15  C   UNL d   1      32.585  22.339 -20.302  0.00  0.00     0.082 A 
ATOM     16  C   UNL d   1      32.749  22.304 -21.108  0.00  0.00     0.025 A 
ATOM     17  C   UNL d   1      32.307  23.039 -19.963  0.00  0.00     0.019 A 
ATOM     18  C   UNL d   1      32.634  22.970 -21.575  0.00  0.00     0.002 A 
ATOM     19  C   UNL d   1      32.358  23.674 -21.248  0.00  0.00     0.000 A 
ATOM     20  C   UNL d   1      32.195  23.701 -20.430  0.00  0.00     0.002 A 
ENDBRANCH  10  11
ENDBRANCH   9  10
ENDBRANCH   3   9
BRANCH   2  21
ATOM     21  C   UNL d   1      32.617  17.059 -23.759  0.00  0.00     0.064 A 
ATOM     22  C   UNL d   1      33.241  16.519 -23.719  0.00  0.00     0.018 A 
ATOM     23  C   UNL d   1      33.107  15.718 -23.914  0.00  0.00     0.002 A 
ATOM     24  C   UNL d   1      32.351  15.472 -24.145  0.00  0.00     0.000 A 
ATOM     25  C   UNL d   1      31.733  16.013 -24.183  0.00  0.00     0.002 A 
ATOM     26  C   UNL d   1      31.865  16.800 -23.992  0.00  0.00     0.018 A 
ENDBRANCH   2  21
TORSDOF 4
ENDMDL
