MODEL 1
REMARK VINA RESULT:      -3.3      0.000      0.000
REMARK  1 active torsions:
REMARK  status: ('A' for Active; 'I' for Inactive)
REMARK       I    between atoms: C_3  and  N_1 
REMARK    1  A    between atoms: C_6  and  C_3 
ROOT
ATOM      1  N   UNL d   1      31.691  17.568 -24.141  0.00  0.00    -0.175 N 
ATOM      2  N   UNL d   1      31.141  18.011 -24.592  0.00  0.00    -0.057 NA
ATOM      3  C   UNL d   1      32.446  17.840 -23.892  0.00  0.00     0.282 C 
ATOM      4  N   UNL d   1      30.504  17.567 -24.712  0.00  0.00    -0.129 NA
ATOM      5  C   UNL d   1      31.353  16.829 -23.992  0.00  0.00     0.107 A 
ATOM      6  C   UNL d   1      30.604  16.828 -24.353  0.00  0.00     0.122 A 
ATOM      7  O   UNL d   1      32.935  17.331 -23.443  0.00  0.00    -0.265 OA
ATOM      8  C   UNL d   1      31.624  16.152 -23.577  0.00  0.00     0.021 A 
ATOM      9  C   UNL d   1      30.107  16.151 -24.307  0.00  0.00     0.022 A 
ATOM     10  C   UNL d   1      31.133  15.480 -23.531  0.00  0.00     0.002 A 
ATOM     11  C   UNL d   1      30.383  15.479 -23.891  0.00  0.00     0.002 A 
ENDROOT
BRANCH   3  12
ATOM     12  C   UNL d   1      32.711  18.597 -24.084  0.00  0.00     0.058 A 
ATOM     13  C   UNL d   1      32.850  19.153 -23.503  0.00  0.00     0.005 A 
ATOM     14  C   UNL d   1      33.108  19.891 -23.692  0.00  0.00     0.000 A 
ATOM     15  C   UNL d   1      32.715  18.927 -22.727  0.00  0.00     0.000 A 
ATOM     16  C   UNL d   1      33.240  20.430 -23.098  0.00  0.00     0.000 A 
ATOM     17  C   UNL d   1      33.238  20.099 -24.486  0.00  0.00     0.000 A 
ATOM     18  C   UNL d   1      33.119  20.239 -22.337  0.00  0.00     0.000 A 
ATOM     19  C   UNL d   1      32.856  19.487 -22.147  0.00  0.00     0.000 A 
ATOM     20  C   UNL d   1      33.101  19.546 -25.081  0.00  0.00     0.000 A 
ATOM     21  C   UNL d   1      32.834  18.787 -24.876  0.00  0.00     0.005 A 
ENDBRANCH   3  12
TORSDOF 1
ENDMDL
MODEL 2
REMARK VINA RESULT:      -2.7      1.115      3.925
REMARK  1 active torsions:
REMARK  status: ('A' for Active; 'I' for Inactive)
REMARK       I    between atoms: C_3  and  N_1 
REMARK    1  A    between atoms: C_6  and  C_3 
ROOT
ATOM      1  N   UNL d   1      32.847  18.427 -23.318  0.00  0.00    -0.175 N 
ATOM      2  N   UNL d   1      32.853  18.266 -22.495  0.00  0.00    -0.057 NA
ATOM      3  C   UNL d   1      32.733  17.854 -23.923  0.00  0.00     0.282 C 
ATOM      4  N   UNL d   1      32.975  18.941 -22.112  0.00  0.00    -0.129 NA
ATOM      5  C   UNL d   1      32.973  19.237 -23.415  0.00  0.00     0.107 A 
ATOM      6  C   UNL d   1      33.054  19.562 -22.653  0.00  0.00     0.122 A 
ATOM      7  O   UNL d   1      32.742  18.101 -24.723  0.00  0.00    -0.265 OA
ATOM      8  C   UNL d   1      33.026  19.728 -24.092  0.00  0.00     0.021 A 
ATOM      9  C   UNL d   1      33.189  20.386 -22.551  0.00  0.00     0.022 A 
ATOM     10  C   UNL d   1      33.160  20.546 -23.993  0.00  0.00     0.002 A 
ATOM     11  C   UNL d   1      33.241  20.871 -23.231  0.00  0.00     0.002 A 
ENDROOT
BRANCH   3  12
ATOM     12  C   UNL d   1      32.613  17.060 -23.742  0.00  0.00     0.058 A 
ATOM     13  C   UNL d   1      31.909  16.689 -23.922  0.00  0.00     0.005 A 
ATOM     14  C   UNL d   1      31.794  15.913 -23.744  0.00  0.00     0.000 A 
ATOM     15  C   UNL d   1      31.331  17.139 -24.288  0.00  0.00     0.000 A 
ATOM     16  C   UNL d   1      31.085  15.563 -23.932  0.00  0.00     0.000 A 
ATOM     17  C   UNL d   1      32.395  15.475 -23.372  0.00  0.00     0.000 A 
ATOM     18  C   UNL d   1      30.507  15.974 -24.287  0.00  0.00     0.000 A 
ATOM     19  C   UNL d   1      30.626  16.764 -24.467  0.00  0.00     0.000 A 
ATOM     20  C   UNL d   1      33.110  15.838 -23.185  0.00  0.00     0.000 A 
ATOM     21  C   UNL d   1      33.219  16.640 -23.373  0.00  0.00     0.005 A 
ENDBRANCH   3  12
TORSDOF 1
ENDMDL
MODEL 3
REMARK VINA RESULT:      -2.4      1.521      4.102
REMARK  1 active torsions:
REMARK  status: ('A' for Active; 'I' for Inactive)
REMARK       I    between atoms: C_3  and  N_1 
REMARK    1  A    between atoms: C_6  and  C_3 
ROOT
ATOM      1  N   UNL d   1      31.170  17.349 -24.148  0.00  0.00    -0.175 N 
ATOM      2  N   UNL d   1      31.393  16.766 -23.588  0.00  0.00    -0.057 NA
ATOM      3  C   UNL d   1      30.432  17.379 -24.550  0.00  0.00     0.282 C 
ATOM      4  N   UNL d   1      32.121  16.929 -23.339  0.00  0.00    -0.129 NA
ATOM      5  C   UNL d   1      31.802  17.875 -24.226  0.00  0.00     0.107 A 
ATOM      6  C   UNL d   1      32.403  17.609 -23.715  0.00  0.00     0.122 A 
ATOM      7  O   UNL d   1      30.291  17.998 -25.095  0.00  0.00    -0.265 OA
ATOM      8  C   UNL d   1      31.917  18.562 -24.692  0.00  0.00     0.021 A 
ATOM      9  C   UNL d   1      33.132  18.025 -23.658  0.00  0.00     0.022 A 
ATOM     10  C   UNL d   1      32.640  18.976 -24.637  0.00  0.00     0.002 A 
ATOM     11  C   UNL d   1      33.240  18.710 -24.126  0.00  0.00     0.002 A 
ENDROOT
BRANCH   3  12
ATOM     12  C   UNL d   1      29.850  16.812 -24.415  0.00  0.00     0.058 A 
ATOM     13  C   UNL d   1      29.144  17.011 -24.057  0.00  0.00     0.005 A 
ATOM     14  C   UNL d   1      28.577  16.455 -23.926  0.00  0.00     0.000 A 
ATOM     15  C   UNL d   1      29.041  17.795 -23.840  0.00  0.00     0.000 A 
ATOM     16  C   UNL d   1      27.881  16.675 -23.569  0.00  0.00     0.000 A 
ATOM     17  C   UNL d   1      28.703  15.666 -24.155  0.00  0.00     0.000 A 
ATOM     18  C   UNL d   1      27.753  17.427 -23.348  0.00  0.00     0.000 A 
ATOM     19  C   UNL d   1      28.332  17.990 -23.482  0.00  0.00     0.000 A 
ATOM     20  C   UNL d   1      29.412  15.454 -24.517  0.00  0.00     0.000 A 
ATOM     21  C   UNL d   1      29.991  16.034 -24.647  0.00  0.00     0.005 A 
ENDBRANCH   3  12
TORSDOF 1
ENDMDL
MODEL 4
REMARK VINA RESULT:      -1.9      1.919      4.219
REMARK  1 active torsions:
REMARK  status: ('A' for Active; 'I' for Inactive)
REMARK       I    between atoms: C_3  and  N_1 
REMARK    1  A    between atoms: C_6  and  C_3 
ROOT
ATOM      1  N   UNL d   1      32.837  20.016 -22.381  0.00  0.00    -0.175 N 
ATOM      2  N   UNL d   1      32.591  19.655 -21.665  0.00  0.00    -0.057 NA
ATOM      3  C   UNL d   1      33.000  19.609 -23.099  0.00  0.00     0.282 C 
ATOM      4  N   UNL d   1      32.497  20.218 -21.125  0.00  0.00    -0.129 NA
ATOM      5  C   UNL d   1      32.887  20.829 -22.246  0.00  0.00     0.107 A 
ATOM      6  C   UNL d   1      32.672  20.956 -21.453  0.00  0.00     0.122 A 
ATOM      7  O   UNL d   1      33.241  20.047 -23.770  0.00  0.00    -0.265 OA
ATOM      8  C   UNL d   1      33.099  21.475 -22.736  0.00  0.00     0.021 A 
ATOM      9  C   UNL d   1      32.665  21.733 -21.131  0.00  0.00     0.022 A 
ATOM     10  C   UNL d   1      33.092  22.247 -22.419  0.00  0.00     0.002 A 
ATOM     11  C   UNL d   1      32.877  22.374 -21.625  0.00  0.00     0.002 A 
ENDROOT
BRANCH   3  12
ATOM     12  C   UNL d   1      32.925  18.790 -23.151  0.00  0.00     0.058 A 
ATOM     13  C   UNL d   1      32.546  18.442 -23.784  0.00  0.00     0.005 A 
ATOM     14  C   UNL d   1      32.475  17.642 -23.833  0.00  0.00     0.000 A 
ATOM     15  C   UNL d   1      32.245  18.940 -24.361  0.00  0.00     0.000 A 
ATOM     16  C   UNL d   1      32.093  17.316 -24.472  0.00  0.00     0.000 A 
ATOM     17  C   UNL d   1      32.787  17.156 -23.235  0.00  0.00     0.000 A 
ATOM     18  C   UNL d   1      31.792  17.773 -25.047  0.00  0.00     0.000 A 
ATOM     19  C   UNL d   1      31.866  18.587 -24.995  0.00  0.00     0.000 A 
ATOM     20  C   UNL d   1      33.172  17.496 -22.591  0.00  0.00     0.000 A 
ATOM     21  C   UNL d   1      33.241  18.323 -22.550  0.00  0.00     0.005 A 
ENDBRANCH   3  12
TORSDOF 1
ENDMDL
MODEL 5
REMARK VINA RESULT:      -1.8      2.409      3.989
REMARK  1 active torsions:
REMARK  status: ('A' for Active; 'I' for Inactive)
REMARK       I    between atoms: C_3  and  N_1 
REMARK    1  A    between atoms: C_6  and  C_3 
ROOT
ATOM      1  N   UNL d   1      33.046  20.193 -22.438  0.00  0.00    -0.175 N 
ATOM      2  N   UNL d   1      32.934  19.638 -21.819  0.00  0.00    -0.057 NA
ATOM      3  C   UNL d   1      33.094  21.027 -22.340  0.00  0.00     0.282 C 
ATOM      4  N   UNL d   1      32.921  18.918 -22.133  0.00  0.00    -0.129 NA
ATOM      5  C   UNL d   1      33.100  19.770 -23.145  0.00  0.00     0.107 A 
ATOM      6  C   UNL d   1      33.020  18.965 -22.953  0.00  0.00     0.122 A 
ATOM      7  O   UNL d   1      33.207  21.510 -23.013  0.00  0.00    -0.265 OA
ATOM      8  C   UNL d   1      33.210  20.006 -23.943  0.00  0.00     0.021 A 
ATOM      9  C   UNL d   1      33.049  18.376 -23.553  0.00  0.00     0.022 A 
ATOM     10  C   UNL d   1      33.239  19.423 -24.539  0.00  0.00     0.002 A 
ATOM     11  C   UNL d   1      33.160  18.618 -24.347  0.00  0.00     0.002 A 
ENDROOT
BRANCH   3  12
ATOM     12  C   UNL d   1      33.030  21.372 -21.594  0.00  0.00     0.058 A 
ATOM     13  C   UNL d   1      32.766  22.139 -21.508  0.00  0.00     0.005 A 
ATOM     14  C   UNL d   1      32.705  22.474 -20.778  0.00  0.00     0.000 A 
ATOM     15  C   UNL d   1      32.568  22.547 -22.190  0.00  0.00     0.000 A 
ATOM     16  C   UNL d   1      32.440  23.240 -20.715  0.00  0.00     0.000 A 
ATOM     17  C   UNL d   1      32.912  22.042 -20.100  0.00  0.00     0.000 A 
ATOM     18  C   UNL d   1      32.241  23.660 -21.358  0.00  0.00     0.000 A 
ATOM     19  C   UNL d   1      32.304  23.316 -22.099  0.00  0.00     0.000 A 
ATOM     20  C   UNL d   1      33.180  21.266 -20.175  0.00  0.00     0.000 A 
ATOM     21  C   UNL d   1      33.239  20.929 -20.931  0.00  0.00     0.005 A 
ENDBRANCH   3  12
TORSDOF 1
ENDMDL
MODEL 6
REMARK VINA RESULT:      -0.4      1.859      2.702
REMARK  1 active torsions:
REMARK  status: ('A' for Active; 'I' for Inactive)
REMARK       I    between atoms: C_3  and  N_1 
REMARK    1  A    between atoms: C_6  and  C_3 
ROOT
ATOM      1  N   UNL d   1      33.104  19.468 -23.541  0.00  0.00    -0.175 N 
ATOM      2  N   UNL d   1      33.207  19.938 -24.228  0.00  0.00    -0.057 NA
ATOM      3  C   UNL d   1      33.062  19.762 -22.754  0.00  0.00     0.282 C 
ATOM      4  N   UNL d   1      33.218  19.461 -24.853  0.00  0.00    -0.129 NA
ATOM      5  C   UNL d   1      33.054  18.680 -23.782  0.00  0.00     0.107 A 
ATOM      6  C   UNL d   1      33.126  18.676 -24.611  0.00  0.00     0.122 A 
ATOM      7  O   UNL d   1      32.958  19.222 -22.123  0.00  0.00    -0.265 OA
ATOM      8  C   UNL d   1      32.952  17.961 -23.363  0.00  0.00     0.021 A 
ATOM      9  C   UNL d   1      33.097  17.953 -25.039  0.00  0.00     0.022 A 
ATOM     10  C   UNL d   1      32.923  17.243 -23.786  0.00  0.00     0.002 A 
ATOM     11  C   UNL d   1      32.995  17.239 -24.615  0.00  0.00     0.002 A 
ENDROOT
BRANCH   3  12
ATOM     12  C   UNL d   1      33.122  20.568 -22.596  0.00  0.00     0.058 A 
ATOM     13  C   UNL d   1      33.146  20.846 -21.829  0.00  0.00     0.005 A 
ATOM     14  C   UNL d   1      33.205  21.634 -21.678  0.00  0.00     0.000 A 
ATOM     15  C   UNL d   1      33.109  20.291 -21.228  0.00  0.00     0.000 A 
ATOM     16  C   UNL d   1      33.228  21.889 -20.906  0.00  0.00     0.000 A 
ATOM     17  C   UNL d   1      33.241  22.180 -22.304  0.00  0.00     0.000 A 
ATOM     18  C   UNL d   1      33.193  21.375 -20.303  0.00  0.00     0.000 A 
ATOM     19  C   UNL d   1      33.134  20.573 -20.460  0.00  0.00     0.000 A 
ATOM     20  C   UNL d   1      33.217  21.911 -23.082  0.00  0.00     0.000 A 
ATOM     21  C   UNL d   1      33.157  21.096 -23.228  0.00  0.00     0.005 A 
ENDBRANCH   3  12
TORSDOF 1
ENDMDL
