MODEL 1
REMARK VINA RESULT:      44.3      0.000      0.000
REMARK  5 active torsions:
REMARK  status: ('A' for Active; 'I' for Inactive)
REMARK    1  A    between atoms: N_2  and  S_1 
REMARK    2  A    between atoms: C_4  and  S_1 
REMARK    3  A    between atoms: C_3  and  N_2 
REMARK    4  A    between atoms: N_7  and  C_3 
REMARK    5  A    between atoms: C_12  and  N_7 
ROOT
ATOM      1  S   UNL d   1     -55.085-101.294 -43.363  0.00  0.00     0.287 S 
ATOM      2  O   UNL d   1     -55.209-101.985 -43.803  0.00  0.00    -0.198 OA
ATOM      3  O   UNL d   1     -54.961-100.591 -42.936  0.00  0.00    -0.198 OA
ENDROOT
BRANCH   1   4
ATOM      4  N   UNL d   1     -55.038-101.736 -42.666  0.00  0.00    -0.128 NA
BRANCH   4   5
ATOM      5  C   UNL d   1     -54.863-101.764 -41.858  0.00  0.00     0.232 C 
ATOM      6  S   UNL d   1     -54.756-101.068 -41.433  0.00  0.00    -0.036 SA
BRANCH   5   7
ATOM      7  N   UNL d   1     -54.797-102.494 -41.485  0.00  0.00    -0.217 NA
BRANCH   7   8
ATOM      8  C   UNL d   1     -55.185-102.622 -40.770  0.00  0.00     0.084 A 
ATOM      9  C   UNL d   1     -54.748-102.700 -40.082  0.00  0.00     0.019 A 
ATOM     10  C   UNL d   1     -55.129-102.828 -39.368  0.00  0.00     0.002 A 
ATOM     11  C   UNL d   1     -55.950-102.876 -39.344  0.00  0.00     0.000 A 
ATOM     12  C   UNL d   1     -56.380-102.796 -40.044  0.00  0.00     0.002 A 
ATOM     13  C   UNL d   1     -56.003-102.670 -40.747  0.00  0.00     0.019 A 
ENDBRANCH   7   8
ENDBRANCH   5   7
ENDBRANCH   4   5
ENDBRANCH   1   4
BRANCH   1  14
ATOM     14  C   UNL d   1     -55.131-100.847 -44.068  0.00  0.00     0.105 A 
ATOM     15  C   UNL d   1     -54.793-101.141 -44.763  0.00  0.00     0.015 A 
ATOM     16  C   UNL d   1     -54.837-100.703 -45.459  0.00  0.00     0.030 A 
ATOM     17  C   UNL d   1     -55.222 -99.959 -45.477  0.00  0.00     0.140 A 
ATOM     18  C   UNL d   1     -55.559 -99.670 -44.772  0.00  0.00     0.030 A 
ATOM     19  F   UNL d   1     -55.261 -99.531 -46.171  0.00  0.00    -0.204 F 
ATOM     20  C   UNL d   1     -55.515-100.111 -44.072  0.00  0.00     0.015 A 
ENDBRANCH   1  14
TORSDOF 5
ENDMDL
MODEL 2
REMARK VINA RESULT:      46.1      3.771      4.473
REMARK  5 active torsions:
REMARK  status: ('A' for Active; 'I' for Inactive)
REMARK    1  A    between atoms: N_2  and  S_1 
REMARK    2  A    between atoms: C_4  and  S_1 
REMARK    3  A    between atoms: C_3  and  N_2 
REMARK    4  A    between atoms: N_7  and  C_3 
REMARK    5  A    between atoms: C_12  and  N_7 
ROOT
ATOM      1  S   UNL d   1     -57.825 -99.193 -44.156  0.00  0.00     0.287 S 
ATOM      2  O   UNL d   1     -58.112 -99.459 -44.886  0.00  0.00    -0.198 OA
ATOM      3  O   UNL d   1     -57.520 -98.930 -43.428  0.00  0.00    -0.198 OA
ENDROOT
BRANCH   1   4
ATOM      4  N   UNL d   1     -58.591 -98.995 -43.917  0.00  0.00    -0.128 NA
BRANCH   4   5
ATOM      5  C   UNL d   1     -59.405 -99.026 -44.058  0.00  0.00     0.232 C 
ATOM      6  S   UNL d   1     -59.690 -99.287 -44.784  0.00  0.00    -0.036 SA
BRANCH   5   7
ATOM      7  N   UNL d   1     -59.926 -98.794 -43.466  0.00  0.00    -0.217 NA
BRANCH   7   8
ATOM      8  C   UNL d   1     -59.936 -99.203 -42.751  0.00  0.00     0.084 A 
ATOM      9  C   UNL d   1     -59.935 -98.783 -42.047  0.00  0.00     0.019 A 
ATOM     10  C   UNL d   1     -59.946 -99.184 -41.332  0.00  0.00     0.002 A 
ATOM     11  C   UNL d   1     -59.958-100.007 -41.323  0.00  0.00     0.000 A 
ATOM     12  C   UNL d   1     -59.958-100.418 -42.039  0.00  0.00     0.002 A 
ATOM     13  C   UNL d   1     -59.948-100.022 -42.742  0.00  0.00     0.019 A 
ENDBRANCH   7   8
ENDBRANCH   5   7
ENDBRANCH   4   5
ENDBRANCH   1   4
BRANCH   1  14
ATOM     14  C   UNL d   1     -57.050 -99.393 -44.398  0.00  0.00     0.105 A 
ATOM     15  C   UNL d   1     -56.557 -98.811 -44.718  0.00  0.00     0.015 A 
ATOM     16  C   UNL d   1     -55.793 -99.004 -44.957  0.00  0.00     0.030 A 
ATOM     17  C   UNL d   1     -55.502 -99.787 -44.882  0.00  0.00     0.140 A 
ATOM     18  C   UNL d   1     -56.005-100.367 -44.558  0.00  0.00     0.030 A 
ATOM     19  F   UNL d   1     -54.744 -99.970 -45.121  0.00  0.00    -0.204 F 
ATOM     20  C   UNL d   1     -56.774-100.172 -44.318  0.00  0.00     0.015 A 
ENDBRANCH   1  14
TORSDOF 5
ENDMDL
MODEL 3
REMARK VINA RESULT:      46.9      2.004      4.554
REMARK  5 active torsions:
REMARK  status: ('A' for Active; 'I' for Inactive)
REMARK    1  A    between atoms: N_2  and  S_1 
REMARK    2  A    between atoms: C_4  and  S_1 
REMARK    3  A    between atoms: C_3  and  N_2 
REMARK    4  A    between atoms: N_7  and  C_3 
REMARK    5  A    between atoms: C_12  and  N_7 
ROOT
ATOM      1  S   UNL d   1     -54.989-101.868 -42.185  0.00  0.00     0.287 S 
ATOM      2  O   UNL d   1     -55.231-102.648 -42.321  0.00  0.00    -0.198 OA
ATOM      3  O   UNL d   1     -54.747-101.087 -42.031  0.00  0.00    -0.198 OA
ENDROOT
BRANCH   1   4
ATOM      4  N   UNL d   1     -54.966-101.724 -42.999  0.00  0.00    -0.128 NA
BRANCH   4   5
ATOM      5  C   UNL d   1     -54.899-101.180 -43.617  0.00  0.00     0.232 C 
ATOM      6  S   UNL d   1     -54.729-101.438 -44.380  0.00  0.00    -0.036 SA
BRANCH   5   7
ATOM      7  N   UNL d   1     -55.003-100.379 -43.464  0.00  0.00    -0.217 NA
BRANCH   7   8
ATOM      8  C   UNL d   1     -55.438 -99.918 -43.989  0.00  0.00     0.084 A 
ATOM      9  C   UNL d   1     -55.841 -99.261 -43.711  0.00  0.00     0.019 A 
ATOM     10  C   UNL d   1     -56.275 -98.797 -44.228  0.00  0.00     0.002 A 
ATOM     11  C   UNL d   1     -56.306 -98.994 -45.027  0.00  0.00     0.000 A 
ATOM     12  C   UNL d   1     -55.897 -99.658 -45.296  0.00  0.00     0.002 A 
ATOM     13  C   UNL d   1     -55.469-100.113 -44.784  0.00  0.00     0.019 A 
ENDBRANCH   7   8
ENDBRANCH   5   7
ENDBRANCH   4   5
ENDBRANCH   1   4
BRANCH   1  14
ATOM     14  C   UNL d   1     -55.013-102.013 -41.361  0.00  0.00     0.105 A 
ATOM     15  C   UNL d   1     -54.722-102.727 -41.063  0.00  0.00     0.015 A 
ATOM     16  C   UNL d   1     -54.743-102.873 -40.253  0.00  0.00     0.030 A 
ATOM     17  C   UNL d   1     -55.057-102.307 -39.720  0.00  0.00     0.140 A 
ATOM     18  C   UNL d   1     -55.347-101.591 -40.030  0.00  0.00     0.030 A 
ATOM     19  F   UNL d   1     -55.074-102.460 -38.919  0.00  0.00    -0.204 F 
ATOM     20  C   UNL d   1     -55.326-101.444 -40.844  0.00  0.00     0.015 A 
ENDBRANCH   1  14
TORSDOF 5
ENDMDL
