MODEL 1
REMARK VINA RESULT:      72.5      0.000      0.000
REMARK  4 active torsions:
REMARK  status: ('A' for Active; 'I' for Inactive)
REMARK    1  A    between atoms: C_8  and  C_6 
REMARK    2  A    between atoms: C_9  and  C_8 
REMARK       I    between atoms: N_11  and  C_9 
REMARK       I    between atoms: C_10  and  N_12 
REMARK    3  A    between atoms: C_17  and  N_11 
REMARK    4  A    between atoms: N_12  and  C_18 
ROOT
ATOM      1  N   UNL d   1     -55.077-100.401 -42.258  0.00  0.00    -0.207 NA
ATOM      2  N   UNL d   1     -55.282-102.042 -42.538  0.00  0.00    -0.240 NA
ATOM      3  C   UNL d   1     -55.229-101.025 -41.760  0.00  0.00     0.297 A 
ATOM      4  C   UNL d   1     -54.975-100.390 -43.077  0.00  0.00     0.086 A 
ATOM      5  C   UNL d   1     -55.152-101.799 -43.311  0.00  0.00     0.083 A 
ATOM      6  C   UNL d   1     -55.298-101.581 -41.857  0.00  0.00     0.144 A 
ATOM      7  C   UNL d   1     -55.006-101.037 -43.603  0.00  0.00     0.035 A 
ATOM      8  O   UNL d   1     -55.298-100.833 -40.963  0.00  0.00    -0.264 OA
ATOM      9  C   UNL d   1     -54.888-100.909 -44.410  0.00  0.00     0.003 A 
ATOM     10  C   UNL d   1     -55.183-102.440 -43.831  0.00  0.00     0.019 A 
ATOM     11  C   UNL d   1     -54.829 -99.629 -43.365  0.00  0.00     0.019 A 
ATOM     12  C   UNL d   1     -55.064-102.316 -44.652  0.00  0.00     0.002 A 
ATOM     13  C   UNL d   1     -54.713 -99.509 -44.174  0.00  0.00     0.002 A 
ATOM     14  C   UNL d   1     -54.742-100.148 -44.695  0.00  0.00     0.000 A 
ATOM     15  C   UNL d   1     -54.919-101.557 -44.937  0.00  0.00     0.000 A 
ENDROOT
BRANCH   6  16
ATOM     16  C   UNL d   1     -55.445-102.015 -41.173  0.00  0.00     0.086 C 
BRANCH  16  17
ATOM     17  C   UNL d   1     -56.082-102.551 -41.159  0.00  0.00     0.281 C 
ATOM     18  N   UNL d   1     -56.327-102.880 -40.440  0.00  0.00    -0.208 NA
ATOM     19  O   UNL d   1     -56.470-102.756 -41.858  0.00  0.00    -0.265 OA
BRANCH  18  20
ATOM     20  C   UNL d   1     -55.942-102.678 -39.737  0.00  0.00     0.085 A 
ATOM     21  C   UNL d   1     -55.121-102.698 -39.705  0.00  0.00     0.021 A 
ATOM     22  C   UNL d   1     -54.731-102.499 -39.008  0.00  0.00     0.021 A 
ATOM     23  C   UNL d   1     -55.169-102.277 -38.339  0.00  0.00     0.085 A 
ATOM     24  C   UNL d   1     -55.993-102.259 -38.375  0.00  0.00     0.021 A 
ATOM     25  C   UNL d   1     -56.379-102.459 -39.074  0.00  0.00     0.021 A 
BRANCH  23  26
ATOM     26  N   UNL d   1     -54.789-102.080 -37.652  0.00  0.00    -0.208 NA
ATOM     27  C   UNL d   1     -55.109-102.296 -36.934  0.00  0.00     0.279 C 
ATOM     28  O   UNL d   1     -55.806-102.707 -36.903  0.00  0.00    -0.265 OA
ATOM     29  C   UNL d   1     -54.726-102.098 -36.240  0.00  0.00     0.068 C 
ENDBRANCH  23  26
ENDBRANCH  18  20
ENDBRANCH  16  17
ENDBRANCH   6  16
TORSDOF 4
ENDMDL
