MODEL 1
REMARK VINA RESULT:      -9.4      0.000      0.000
REMARK  4 active torsions:
REMARK  status: ('A' for Active; 'I' for Inactive)
REMARK    1  A    between atoms: N_2  and  S_1 
REMARK    2  A    between atoms: C_5  and  S_1 
REMARK    3  A    between atoms: C_4  and  N_2 
REMARK    4  A    between atoms: C_7  and  C_3 
ROOT
ATOM      1  S   UNL d   1      53.886  32.023  53.698  0.00  0.00     0.285 S 
ATOM      2  O   UNL d   1      53.619  32.023  54.499  0.00  0.00    -0.198 OA
ATOM      3  O   UNL d   1      54.159  32.027  52.892  0.00  0.00    -0.198 OA
ENDROOT
BRANCH   1   4
ATOM      4  N   UNL d   1      54.308  32.740  53.839  0.00  0.00    -0.158 NA
BRANCH   4   5
ATOM      5  C   UNL d   1      53.911  33.442  54.087  0.00  0.00     0.094 A 
ATOM      6  C   UNL d   1      53.954  33.665  54.840  0.00  0.00     0.018 A 
ATOM      7  C   UNL d   1      53.583  34.344  55.132  0.00  0.00     0.002 A 
ATOM      8  C   UNL d   1      54.382  33.190  55.313  0.00  0.00     0.002 C 
ATOM      9  C   UNL d   1      53.136  34.820  54.586  0.00  0.00     0.000 A 
ATOM     10  C   UNL d   1      53.119  34.558  53.832  0.00  0.00     0.002 A 
ATOM     11  C   UNL d   1      52.734  35.508  54.774  0.00  0.00     0.000 C 
ATOM     12  C   UNL d   1      53.490  33.876  53.533  0.00  0.00     0.018 A 
ATOM     13  C   UNL d   1      53.433  33.668  52.761  0.00  0.00     0.002 C 
ENDBRANCH   4   5
ENDBRANCH   1   4
BRANCH   1  14
ATOM     14  C   UNL d   1      53.458  31.297  53.558  0.00  0.00     0.106 A 
ATOM     15  C   UNL d   1      53.659  30.641  54.031  0.00  0.00     0.020 A 
ATOM     16  C   UNL d   1      53.255  29.932  53.908  0.00  0.00     0.076 A 
ATOM     17  C   UNL d   1      52.667  29.872  53.332  0.00  0.00     0.064 A 
ATOM     18  C   UNL d   1      52.472  30.520  52.868  0.00  0.00     0.012 A 
ATOM     19 CL   UNL d   1      52.267  29.149  53.219  0.00  0.00    -0.082 Cl
ATOM     20  C   UNL d   1      52.843  31.234  52.955  0.00  0.00     0.014 A 
BRANCH  16  21
ATOM     21  C   UNL d   1      53.454  29.270  54.382  0.00  0.00     0.212 C 
ATOM     22  O   UNL d   1      54.099  28.856  54.116  0.00  0.00    -0.644 OA
ATOM     23  O   UNL d   1      52.993  29.081  55.079  0.00  0.00    -0.644 OA
ENDBRANCH  16  21
ENDBRANCH   1  14
TORSDOF 4
ENDMDL
MODEL 2
REMARK VINA RESULT:      -9.2      2.028      4.121
REMARK  4 active torsions:
REMARK  status: ('A' for Active; 'I' for Inactive)
REMARK    1  A    between atoms: N_2  and  S_1 
REMARK    2  A    between atoms: C_5  and  S_1 
REMARK    3  A    between atoms: C_4  and  N_2 
REMARK    4  A    between atoms: C_7  and  C_3 
ROOT
ATOM      1  S   UNL d   1      52.783  32.568  52.952  0.00  0.00     0.285 S 
ATOM      2  O   UNL d   1      52.019  32.435  53.283  0.00  0.00    -0.198 OA
ATOM      3  O   UNL d   1      53.554  32.697  52.615  0.00  0.00    -0.198 OA
ENDROOT
BRANCH   1   4
ATOM      4  N   UNL d   1      52.769  31.795  52.612  0.00  0.00    -0.158 NA
BRANCH   4   5
ATOM      5  C   UNL d   1      52.905  31.107  53.080  0.00  0.00     0.094 A 
ATOM      6  C   UNL d   1      52.289  30.699  53.355  0.00  0.00     0.018 A 
ATOM      7  C   UNL d   1      52.369  30.019  53.818  0.00  0.00     0.002 A 
ATOM      8  C   UNL d   1      51.574  30.986  53.157  0.00  0.00     0.002 C 
ATOM      9  C   UNL d   1      53.155  29.751  54.002  0.00  0.00     0.000 A 
ATOM     10  C   UNL d   1      53.750  30.193  53.704  0.00  0.00     0.002 A 
ATOM     11  C   UNL d   1      53.341  29.092  54.451  0.00  0.00     0.000 C 
ATOM     12  C   UNL d   1      53.676  30.878  53.238  0.00  0.00     0.018 A 
ATOM     13  C   UNL d   1      54.318  31.278  52.969  0.00  0.00     0.002 C 
ENDBRANCH   4   5
ENDBRANCH   1   4
BRANCH   1  14
ATOM     14  C   UNL d   1      52.795  33.349  53.297  0.00  0.00     0.106 A 
ATOM     15  C   UNL d   1      53.263  33.456  53.977  0.00  0.00     0.020 A 
ATOM     16  C   UNL d   1      53.285  34.205  54.323  0.00  0.00     0.076 A 
ATOM     17  C   UNL d   1      52.855  34.833  54.004  0.00  0.00     0.064 A 
ATOM     18  C   UNL d   1      52.395  34.725  53.334  0.00  0.00     0.012 A 
ATOM     19 CL   UNL d   1      52.887  35.585  54.365  0.00  0.00    -0.082 Cl
ATOM     20  C   UNL d   1      52.345  34.007  52.963  0.00  0.00     0.014 A 
BRANCH  16  21
ATOM     21  C   UNL d   1      53.755  34.316  55.008  0.00  0.00     0.212 C 
ATOM     22  O   UNL d   1      53.327  34.400  55.692  0.00  0.00    -0.644 OA
ATOM     23  O   UNL d   1      54.610  34.334  54.950  0.00  0.00    -0.644 OA
ENDBRANCH  16  21
ENDBRANCH   1  14
TORSDOF 4
ENDMDL
MODEL 3
REMARK VINA RESULT:      -9.0      2.099      4.345
REMARK  4 active torsions:
REMARK  status: ('A' for Active; 'I' for Inactive)
REMARK    1  A    between atoms: N_2  and  S_1 
REMARK    2  A    between atoms: C_5  and  S_1 
REMARK    3  A    between atoms: C_4  and  N_2 
REMARK    4  A    between atoms: C_7  and  C_3 
ROOT
ATOM      1  S   UNL d   1      52.658  31.809  52.901  0.00  0.00     0.285 S 
ATOM      2  O   UNL d   1      51.924  31.613  53.269  0.00  0.00    -0.198 OA
ATOM      3  O   UNL d   1      53.399  32.002  52.529  0.00  0.00    -0.198 OA
ENDROOT
BRANCH   1   4
ATOM      4  N   UNL d   1      52.757  31.003  52.670  0.00  0.00    -0.158 NA
BRANCH   4   5
ATOM      5  C   UNL d   1      52.943  30.404  53.234  0.00  0.00     0.094 A 
ATOM      6  C   UNL d   1      52.362  29.978  53.550  0.00  0.00     0.018 A 
ATOM      7  C   UNL d   1      52.492  29.380  54.107  0.00  0.00     0.002 A 
ATOM      8  C   UNL d   1      51.630  30.159  53.299  0.00  0.00     0.002 C 
ATOM      9  C   UNL d   1      53.294  29.222  54.344  0.00  0.00     0.000 A 
ATOM     10  C   UNL d   1      53.852  29.678  53.999  0.00  0.00     0.002 A 
ATOM     11  C   UNL d   1      53.527  28.655  54.885  0.00  0.00     0.000 C 
ATOM     12  C   UNL d   1      53.727  30.280  53.440  0.00  0.00     0.018 A 
ATOM     13  C   UNL d   1      54.335  30.702  53.130  0.00  0.00     0.002 C 
ENDBRANCH   4   5
ENDBRANCH   1   4
BRANCH   1  14
ATOM     14  C   UNL d   1      52.556  32.624  53.137  0.00  0.00     0.106 A 
ATOM     15  C   UNL d   1      51.959  33.058  52.750  0.00  0.00     0.020 A 
ATOM     16  C   UNL d   1      51.847  33.846  52.965  0.00  0.00     0.076 A 
ATOM     17  C   UNL d   1      52.313  34.198  53.548  0.00  0.00     0.064 A 
ATOM     18  C   UNL d   1      52.899  33.768  53.928  0.00  0.00     0.012 A 
ATOM     19 CL   UNL d   1      52.187  34.996  53.755  0.00  0.00    -0.082 Cl
ATOM     20  C   UNL d   1      53.043  32.993  53.748  0.00  0.00     0.014 A 
BRANCH  16  21
ATOM     21  C   UNL d   1      51.248  34.286  52.577  0.00  0.00     0.212 C 
ATOM     22  O   UNL d   1      51.439  34.510  51.822  0.00  0.00    -0.644 OA
ATOM     23  O   UNL d   1      50.511  34.463  52.978  0.00  0.00    -0.644 OA
ENDBRANCH  16  21
ENDBRANCH   1  14
TORSDOF 4
ENDMDL
MODEL 4
REMARK VINA RESULT:      -8.5      2.118      2.802
REMARK  4 active torsions:
REMARK  status: ('A' for Active; 'I' for Inactive)
REMARK    1  A    between atoms: N_2  and  S_1 
REMARK    2  A    between atoms: C_5  and  S_1 
REMARK    3  A    between atoms: C_4  and  N_2 
REMARK    4  A    between atoms: C_7  and  C_3 
ROOT
ATOM      1  S   UNL d   1      52.688  33.252  53.349  0.00  0.00     0.285 S 
ATOM      2  O   UNL d   1      52.864  33.227  52.525  0.00  0.00    -0.198 OA
ATOM      3  O   UNL d   1      52.508  33.282  54.181  0.00  0.00    -0.198 OA
ENDROOT
BRANCH   1   4
ATOM      4  N   UNL d   1      52.326  34.007  53.249  0.00  0.00    -0.158 NA
BRANCH   4   5
ATOM      5  C   UNL d   1      51.605  34.096  52.818  0.00  0.00     0.094 A 
ATOM      6  C   UNL d   1      51.631  34.314  52.063  0.00  0.00     0.018 A 
ATOM      7  C   UNL d   1      50.954  34.415  51.598  0.00  0.00     0.002 A 
ATOM      8  C   UNL d   1      52.359  34.436  51.767  0.00  0.00     0.002 C 
ATOM      9  C   UNL d   1      50.197  34.273  51.960  0.00  0.00     0.000 A 
ATOM     10  C   UNL d   1      50.217  34.053  52.727  0.00  0.00     0.002 A 
ATOM     11  C   UNL d   1      49.472  34.344  51.589  0.00  0.00     0.000 C 
ATOM     12  C   UNL d   1      50.894  33.951  53.199  0.00  0.00     0.018 A 
ATOM     13  C   UNL d   1      50.843  33.727  53.968  0.00  0.00     0.002 C 
ENDBRANCH   4   5
ENDBRANCH   1   4
BRANCH   1  14
ATOM     14  C   UNL d   1      53.055  32.487  53.449  0.00  0.00     0.106 A 
ATOM     15  C   UNL d   1      52.658  31.830  53.125  0.00  0.00     0.020 A 
ATOM     16  C   UNL d   1      52.999  31.084  53.213  0.00  0.00     0.076 A 
ATOM     17  C   UNL d   1      53.715  30.989  53.610  0.00  0.00     0.064 A 
ATOM     18  C   UNL d   1      54.105  31.637  53.928  0.00  0.00     0.012 A 
ATOM     19 CL   UNL d   1      54.048  30.228  53.690  0.00  0.00    -0.082 Cl
ATOM     20  C   UNL d   1      53.805  32.386  53.865  0.00  0.00     0.014 A 
BRANCH  16  21
ATOM     21  C   UNL d   1      52.601  30.422  52.888  0.00  0.00     0.212 C 
ATOM     22  O   UNL d   1      52.827  30.240  52.130  0.00  0.00    -0.644 OA
ATOM     23  O   UNL d   1      52.014  29.999  53.347  0.00  0.00    -0.644 OA
ENDBRANCH  16  21
ENDBRANCH   1  14
TORSDOF 4
ENDMDL
