MODEL 1
REMARK VINA RESULT:      11.6      0.000      0.000
REMARK  2 active torsions:
REMARK  status: ('A' for Active; 'I' for Inactive)
REMARK    1  A    between atoms: C_6  and  C_1 
REMARK    2  A    between atoms: C_8  and  C_6 
ROOT
ATOM      1  C   UNL d   1      46.271 -17.792  44.220  0.00  0.00     0.141 A 
ATOM      2  C   UNL d   1      46.386 -18.913  43.492  0.00  0.00     0.064 A 
ATOM      3  C   UNL d   1      46.297 -18.617  44.259  0.00  0.00     0.220 A 
ATOM      4  C   UNL d   1      46.415 -18.269  42.978  0.00  0.00     0.106 A 
ATOM      5  O   UNL d   1      46.344 -17.574  43.421  0.00  0.00    -0.304 OA
ATOM      6  C   UNL d   1      46.444 -19.687  43.199  0.00  0.00     0.008 A 
ATOM      7  C   UNL d   1      46.502 -18.392  42.165  0.00  0.00     0.067 A 
ATOM      8  C   UNL d   1      46.531 -19.810  42.389  0.00  0.00     0.042 A 
ATOM      9  C   UNL d   1      46.560 -19.166  41.875  0.00  0.00     0.198 A 
ATOM     10  O   UNL d   1      46.243 -19.068  44.953  0.00  0.00    -0.284 OA
ATOM     11  O   UNL d   1      46.647 -19.287  41.065  0.00  0.00    -0.286 OA
ATOM     12  C   UNL d   1      46.415 -20.330  43.717  0.00  0.00     0.000 C 
ENDROOT
BRANCH   1  13
ATOM     13  C   UNL d   1      46.187 -17.272  44.855  0.00  0.00     0.053 C 
BRANCH  13  14
ATOM     14  C   UNL d   1      45.912 -16.507  44.732  0.00  0.00     0.102 A 
ATOM     15  O   UNL d   1      46.334 -15.901  44.361  0.00  0.00    -0.305 OA
ATOM     16  C   UNL d   1      45.851 -15.231  44.357  0.00  0.00     0.123 A 
ATOM     17  C   UNL d   1      45.142 -15.423  44.720  0.00  0.00     0.029 A 
ATOM     18  C   UNL d   1      45.177 -16.218  44.955  0.00  0.00     0.027 A 
ENDBRANCH  13  14
ENDBRANCH   1  13
TORSDOF 2
ENDMDL
