MODEL 1
REMARK VINA RESULT:      -6.6      0.000      0.000
REMARK  3 active torsions:
REMARK  status: ('A' for Active; 'I' for Inactive)
REMARK    1  A    between atoms: C_8  and  N_2 
REMARK    2  A    between atoms: C_14  and  C_8 
REMARK    3  A    between atoms: N_13  and  C_14 
ROOT
ATOM      1  C   UNL d   1     -47.972  12.639  23.237  0.00  0.00     0.166 A 
ATOM      2  N   UNL d   1     -47.186  12.850  23.166  0.00  0.00    -0.288 N 
ATOM      3  C   UNL d   1     -48.479  13.271  23.062  0.00  0.00     0.117 A 
ATOM      4  C   UNL d   1     -47.994  13.877  22.881  0.00  0.00     0.037 A 
ATOM      5  C   UNL d   1     -47.179  13.615  22.946  0.00  0.00     0.067 A 
ATOM      6  N   UNL d   1     -48.310  11.952  23.438  0.00  0.00    -0.225 NA
ATOM      7  N   UNL d   1     -49.306  13.217  23.087  0.00  0.00    -0.241 NA
ATOM      8  C   UNL d   1     -49.141  11.901  23.463  0.00  0.00     0.101 A 
ATOM      9  C   UNL d   1     -49.636  12.537  23.287  0.00  0.00     0.099 A 
ATOM     10  C   UNL d   1     -46.561  14.111  22.796  0.00  0.00     0.018 A 
ATOM     11  C   UNL d   1     -48.171  14.629  22.668  0.00  0.00     0.010 A 
ATOM     12  C   UNL d   1     -47.563  15.128  22.517  0.00  0.00     0.035 A 
ATOM     13  C   UNL d   1     -46.748  14.866  22.582  0.00  0.00     0.008 A 
ATOM     14 BR   UNL d   1     -47.708  15.889  22.300  0.00  0.00    -0.049 Br
ATOM     15  C   UNL d   1     -50.466  12.476  23.315  0.00  0.00     0.021 A 
ATOM     16  C   UNL d   1     -49.472  11.216  23.664  0.00  0.00     0.021 A 
ATOM     17  C   UNL d   1     -50.300  11.164  23.690  0.00  0.00     0.002 A 
ATOM     18  C   UNL d   1     -50.796  11.795  23.515  0.00  0.00     0.002 A 
ENDROOT
BRANCH   2  19
ATOM     19  C   UNL d   1     -46.497  12.373  23.295  0.00  0.00     0.101 C 
BRANCH  19  20
ATOM     20  C   UNL d   1     -46.295  11.818  22.693  0.00  0.00     0.100 C 
BRANCH  20  21
ATOM     21  N   UNL d   1     -45.588  11.453  22.967  0.00  0.00    -0.298 N 
ATOM     22  C   UNL d   1     -44.839  11.794  22.775  0.00  0.00     0.107 A 
ATOM     23  C   UNL d   1     -44.137  11.434  23.046  0.00  0.00     0.142 A 
ATOM     24  O   UNL d   1     -44.175  10.735  23.509  0.00  0.00    -0.300 OA
ATOM     25  C   UNL d   1     -44.924  10.402  23.697  0.00  0.00     0.142 A 
ATOM     26  C   UNL d   1     -45.630  10.762  23.425  0.00  0.00     0.107 A 
ENDBRANCH  20  21
ENDBRANCH  19  20
ENDBRANCH   2  19
TORSDOF 3
ENDMDL
MODEL 2
REMARK VINA RESULT:      -4.6      7.689      9.340
REMARK  3 active torsions:
REMARK  status: ('A' for Active; 'I' for Inactive)
REMARK    1  A    between atoms: C_8  and  N_2 
REMARK    2  A    between atoms: C_14  and  C_8 
REMARK    3  A    between atoms: N_13  and  C_14 
ROOT
ATOM      1  C   UNL d   1     -39.370  14.388  20.423  0.00  0.00     0.166 A 
ATOM      2  N   UNL d   1     -39.589  14.756  19.727  0.00  0.00    -0.288 N 
ATOM      3  C   UNL d   1     -39.937  14.492  21.018  0.00  0.00     0.117 A 
ATOM      4  C   UNL d   1     -40.511  14.930  20.680  0.00  0.00     0.037 A 
ATOM      5  C   UNL d   1     -40.294  15.097  19.866  0.00  0.00     0.067 A 
ATOM      6  N   UNL d   1     -38.727  13.966  20.608  0.00  0.00    -0.225 NA
ATOM      7  N   UNL d   1     -39.863  14.180  21.783  0.00  0.00    -0.241 NA
ATOM      8  C   UNL d   1     -38.655  13.654  21.378  0.00  0.00     0.101 A 
ATOM      9  C   UNL d   1     -39.225  13.764  21.963  0.00  0.00     0.099 A 
ATOM     10  C   UNL d   1     -40.770  15.533  19.382  0.00  0.00     0.018 A 
ATOM     11  C   UNL d   1     -41.198  15.201  20.989  0.00  0.00     0.010 A 
ATOM     12  C   UNL d   1     -41.676  15.635  20.515  0.00  0.00     0.035 A 
ATOM     13  C   UNL d   1     -41.460  15.802  19.701  0.00  0.00     0.008 A 
ATOM     14 BR   UNL d   1     -42.373  15.922  20.796  0.00  0.00    -0.049 Br
ATOM     15  C   UNL d   1     -39.144  13.447  22.729  0.00  0.00     0.021 A 
ATOM     16  C   UNL d   1     -38.013  13.235  21.557  0.00  0.00     0.021 A 
ATOM     17  C   UNL d   1     -37.940  12.924  22.323  0.00  0.00     0.002 A 
ATOM     18  C   UNL d   1     -38.506  13.031  22.908  0.00  0.00     0.002 A 
ENDROOT
BRANCH   2  19
ATOM     19  C   UNL d   1     -39.170  14.784  18.990  0.00  0.00     0.101 C 
BRANCH  19  20
ATOM     20  C   UNL d   1     -39.240  14.115  18.482  0.00  0.00     0.100 C 
BRANCH  20  21
ATOM     21  N   UNL d   1     -38.986  14.393  17.728  0.00  0.00    -0.298 N 
ATOM     22  C   UNL d   1     -39.535  14.421  17.086  0.00  0.00     0.107 A 
ATOM     23  C   UNL d   1     -39.285  14.696  16.339  0.00  0.00     0.142 A 
ATOM     24  O   UNL d   1     -38.491  14.943  16.226  0.00  0.00    -0.300 OA
ATOM     25  C   UNL d   1     -37.951  14.912  16.869  0.00  0.00     0.142 A 
ATOM     26  C   UNL d   1     -38.200  14.636  17.621  0.00  0.00     0.107 A 
ENDBRANCH  20  21
ENDBRANCH  19  20
ENDBRANCH   2  19
TORSDOF 3
ENDMDL
MODEL 3
REMARK VINA RESULT:      -4.4      0.930      1.127
REMARK  3 active torsions:
REMARK  status: ('A' for Active; 'I' for Inactive)
REMARK    1  A    between atoms: C_8  and  N_2 
REMARK    2  A    between atoms: C_14  and  C_8 
REMARK    3  A    between atoms: N_13  and  C_14 
ROOT
ATOM      1  C   UNL d   1     -47.667  12.778  22.911  0.00  0.00     0.166 A 
ATOM      2  N   UNL d   1     -47.035  13.252  22.702  0.00  0.00    -0.288 N 
ATOM      3  C   UNL d   1     -48.383  13.194  22.894  0.00  0.00     0.117 A 
ATOM      4  C   UNL d   1     -48.185  13.933  22.671  0.00  0.00     0.037 A 
ATOM      5  C   UNL d   1     -47.337  13.973  22.549  0.00  0.00     0.067 A 
ATOM      6  N   UNL d   1     -47.698  12.015  23.119  0.00  0.00    -0.225 NA
ATOM      7  N   UNL d   1     -49.116  12.854  23.080  0.00  0.00    -0.241 NA
ATOM      8  C   UNL d   1     -48.436  11.676  23.305  0.00  0.00     0.101 A 
ATOM      9  C   UNL d   1     -49.143  12.099  23.285  0.00  0.00     0.099 A 
ATOM     10  C   UNL d   1     -46.973  14.655  22.320  0.00  0.00     0.018 A 
ATOM     11  C   UNL d   1     -48.650  14.576  22.560  0.00  0.00     0.010 A 
ATOM     12  C   UNL d   1     -48.296  15.258  22.332  0.00  0.00     0.035 A 
ATOM     13  C   UNL d   1     -47.447  15.298  22.211  0.00  0.00     0.008 A 
ATOM     14 BR   UNL d   1     -48.734  15.922  22.212  0.00  0.00    -0.049 Br
ATOM     15  C   UNL d   1     -49.876  11.751  23.474  0.00  0.00     0.021 A 
ATOM     16  C   UNL d   1     -48.462  10.917  23.511  0.00  0.00     0.021 A 
ATOM     17  C   UNL d   1     -49.196  10.578  23.698  0.00  0.00     0.002 A 
ATOM     18  C   UNL d   1     -49.902  10.996  23.678  0.00  0.00     0.002 A 
ENDROOT
BRANCH   2  19
ATOM     19  C   UNL d   1     -46.214  13.045  22.650  0.00  0.00     0.101 C 
BRANCH  19  20
ATOM     20  C   UNL d   1     -45.909  12.870  21.884  0.00  0.00     0.100 C 
BRANCH  20  21
ATOM     21  N   UNL d   1     -45.117  12.620  22.021  0.00  0.00    -0.298 N 
ATOM     22  C   UNL d   1     -44.479  13.016  21.633  0.00  0.00     0.107 A 
ATOM     23  C   UNL d   1     -43.694  12.769  21.769  0.00  0.00     0.142 A 
ATOM     24  O   UNL d   1     -43.538  12.129  22.289  0.00  0.00    -0.300 OA
ATOM     25  C   UNL d   1     -44.178  11.740  22.672  0.00  0.00     0.142 A 
ATOM     26  C   UNL d   1     -44.968  11.987  22.537  0.00  0.00     0.107 A 
ENDBRANCH  20  21
ENDBRANCH  19  20
ENDBRANCH   2  19
TORSDOF 3
ENDMDL
MODEL 4
REMARK VINA RESULT:      -4.4      1.624      2.223
REMARK  3 active torsions:
REMARK  status: ('A' for Active; 'I' for Inactive)
REMARK    1  A    between atoms: C_8  and  N_2 
REMARK    2  A    between atoms: C_14  and  C_8 
REMARK    3  A    between atoms: N_13  and  C_14 
ROOT
ATOM      1  C   UNL d   1     -48.797  13.257  23.107  0.00  0.00     0.166 A 
ATOM      2  N   UNL d   1     -48.395  13.948  22.940  0.00  0.00    -0.288 N 
ATOM      3  C   UNL d   1     -49.592  13.399  23.292  0.00  0.00     0.117 A 
ATOM      4  C   UNL d   1     -49.676  14.189  23.237  0.00  0.00     0.037 A 
ATOM      5  C   UNL d   1     -48.923  14.538  23.016  0.00  0.00     0.067 A 
ATOM      6  N   UNL d   1     -48.554  12.503  23.119  0.00  0.00    -0.225 NA
ATOM      7  N   UNL d   1     -50.133  12.801  23.484  0.00  0.00    -0.241 NA
ATOM      8  C   UNL d   1     -49.100  11.904  23.312  0.00  0.00     0.101 A 
ATOM      9  C   UNL d   1     -49.889  12.057  23.495  0.00  0.00     0.099 A 
ATOM     10  C   UNL d   1     -48.837  15.334  22.918  0.00  0.00     0.018 A 
ATOM     11  C   UNL d   1     -50.324  14.645  23.355  0.00  0.00     0.010 A 
ATOM     12  C   UNL d   1     -50.247  15.437  23.260  0.00  0.00     0.035 A 
ATOM     13  C   UNL d   1     -49.495  15.785  23.038  0.00  0.00     0.008 A 
ATOM     14 BR   UNL d   1     -50.879  15.922  23.371  0.00  0.00    -0.049 Br
ATOM     15  C   UNL d   1     -50.427  11.451  23.687  0.00  0.00     0.021 A 
ATOM     16  C   UNL d   1     -48.853  11.157  23.323  0.00  0.00     0.021 A 
ATOM     17  C   UNL d   1     -49.396  10.559  23.515  0.00  0.00     0.002 A 
ATOM     18  C   UNL d   1     -50.182  10.708  23.697  0.00  0.00     0.002 A 
ENDROOT
BRANCH   2  19
ATOM     19  C   UNL d   1     -47.579  14.047  22.727  0.00  0.00     0.101 C 
BRANCH  19  20
ATOM     20  C   UNL d   1     -47.004  13.706  23.240  0.00  0.00     0.100 C 
BRANCH  20  21
ATOM     21  N   UNL d   1     -46.273  13.801  22.833  0.00  0.00    -0.298 N 
ATOM     22  C   UNL d   1     -45.917  13.136  22.450  0.00  0.00     0.107 A 
ATOM     23  C   UNL d   1     -45.193  13.229  22.047  0.00  0.00     0.142 A 
ATOM     24  O   UNL d   1     -44.819  13.979  22.020  0.00  0.00    -0.300 OA
ATOM     25  C   UNL d   1     -45.179  14.636  22.402  0.00  0.00     0.142 A 
ATOM     26  C   UNL d   1     -45.907  14.545  22.809  0.00  0.00     0.107 A 
ENDBRANCH  20  21
ENDBRANCH  19  20
ENDBRANCH   2  19
TORSDOF 3
ENDMDL
MODEL 5
REMARK VINA RESULT:      -4.1      7.619      9.406
REMARK  3 active torsions:
REMARK  status: ('A' for Active; 'I' for Inactive)
REMARK    1  A    between atoms: C_8  and  N_2 
REMARK    2  A    between atoms: C_14  and  C_8 
REMARK    3  A    between atoms: N_13  and  C_14 
ROOT
ATOM      1  C   UNL d   1     -39.685  14.286  20.111  0.00  0.00     0.166 A 
ATOM      2  N   UNL d   1     -39.022  13.838  19.947  0.00  0.00    -0.288 N 
ATOM      3  C   UNL d   1     -39.824  14.344  20.926  0.00  0.00     0.117 A 
ATOM      4  C   UNL d   1     -39.236  13.924  21.263  0.00  0.00     0.037 A 
ATOM      5  C   UNL d   1     -38.730  13.604  20.649  0.00  0.00     0.067 A 
ATOM      6  N   UNL d   1     -40.193  14.658  19.632  0.00  0.00    -0.225 NA
ATOM      7  N   UNL d   1     -40.458  14.765  21.255  0.00  0.00    -0.241 NA
ATOM      8  C   UNL d   1     -40.830  15.080  19.965  0.00  0.00     0.101 A 
ATOM      9  C   UNL d   1     -40.959  15.131  20.778  0.00  0.00     0.099 A 
ATOM     10  C   UNL d   1     -38.085  13.152  20.824  0.00  0.00     0.018 A 
ATOM     11  C   UNL d   1     -39.086  13.785  22.038  0.00  0.00     0.010 A 
ATOM     12  C   UNL d   1     -38.447  13.337  22.220  0.00  0.00     0.035 A 
ATOM     13  C   UNL d   1     -37.940  13.017  21.606  0.00  0.00     0.008 A 
ATOM     14 BR   UNL d   1     -38.269  13.179  22.989  0.00  0.00    -0.049 Br
ATOM     15  C   UNL d   1     -41.598  15.556  21.102  0.00  0.00     0.021 A 
ATOM     16  C   UNL d   1     -41.333  15.448  19.485  0.00  0.00     0.021 A 
ATOM     17  C   UNL d   1     -41.967  15.869  19.815  0.00  0.00     0.002 A 
ATOM     18  C   UNL d   1     -42.098  15.921  20.624  0.00  0.00     0.002 A 
ENDROOT
BRANCH   2  19
ATOM     19  C   UNL d   1     -38.689  13.644  19.191  0.00  0.00     0.101 C 
BRANCH  19  20
ATOM     20  C   UNL d   1     -38.026  14.096  18.934  0.00  0.00     0.100 C 
BRANCH  20  21
ATOM     21  N   UNL d   1     -38.008  13.994  18.099  0.00  0.00    -0.298 N 
ATOM     22  C   UNL d   1     -38.026  13.216  17.771  0.00  0.00     0.107 A 
ATOM     23  C   UNL d   1     -38.009  13.113  16.943  0.00  0.00     0.142 A 
ATOM     24  O   UNL d   1     -37.974  13.782  16.438  0.00  0.00    -0.300 OA
ATOM     25  C   UNL d   1     -37.957  14.554  16.771  0.00  0.00     0.142 A 
ATOM     26  C   UNL d   1     -37.974  14.659  17.603  0.00  0.00     0.107 A 
ENDBRANCH  20  21
ENDBRANCH  19  20
ENDBRANCH   2  19
TORSDOF 3
ENDMDL
