MODEL 1
REMARK VINA RESULT:      -5.5      0.000      0.000
REMARK  2 active torsions:
REMARK  status: ('A' for Active; 'I' for Inactive)
REMARK    1  A    between atoms: S_8  and  C_4 
REMARK    2  A    between atoms: C_12  and  S_8 
ROOT
ATOM      1  C   UNL d   1     -41.738-122.510 -53.289  0.00  0.00     0.141 A 
ATOM      2  O   UNL d   1     -41.926-121.945 -52.718  0.00  0.00    -0.303 OA
ATOM      3  C   UNL d   1     -41.407-123.164 -52.906  0.00  0.00     0.110 A 
ATOM      4  C   UNL d   1     -41.826-122.511 -54.105  0.00  0.00     0.137 A 
ATOM      5  C   UNL d   1     -41.392-123.002 -52.100  0.00  0.00     0.043 A 
ATOM      6  C   UNL d   1     -41.711-122.251 -51.978  0.00  0.00     0.102 A 
ATOM      7  N   UNL d   1     -41.583-123.170 -54.547  0.00  0.00    -0.215 NA
ATOM      8  N   UNL d   1     -41.168-123.815 -53.349  0.00  0.00    -0.222 NA
ATOM      9  C   UNL d   1     -41.255-123.816 -54.165  0.00  0.00     0.200 A 
ATOM     10  C   UNL d   1     -41.124-123.450 -51.455  0.00  0.00     0.004 A 
ATOM     11  C   UNL d   1     -41.766-121.939 -51.213  0.00  0.00     0.025 A 
ATOM     12  C   UNL d   1     -41.179-123.138 -50.691  0.00  0.00     0.000 A 
ATOM     13  C   UNL d   1     -41.498-122.388 -50.573  0.00  0.00     0.002 A 
ENDROOT
BRANCH   4  14
ATOM     14  S   UNL d   1     -42.157-121.858 -54.497  0.00  0.00    -0.066 SA
BRANCH  14  15
ATOM     15  C   UNL d   1     -42.248-121.878 -55.318  0.00  0.00     0.031 C 
ATOM     16  C   UNL d   1     -41.641-121.611 -55.807  0.00  0.00     0.007 C 
ATOM     17  C   UNL d   1     -42.944-122.166 -55.644  0.00  0.00     0.007 C 
ENDBRANCH  14  15
ENDBRANCH   4  14
TORSDOF 2
ENDMDL
