MODEL 1
REMARK VINA RESULT:      -8.3      0.000      0.000
REMARK  2 active torsions:
REMARK  status: ('A' for Active; 'I' for Inactive)
REMARK    1  A    between atoms: N_9  and  C_2 
REMARK    2  A    between atoms: C_4  and  N_10 
ROOT
ATOM      1  C   UNL d   1     -48.632  13.419  22.972  0.00  0.00     0.152 A 
ATOM      2  C   UNL d   1     -48.007  13.911  22.753  0.00  0.00     0.174 A 
ATOM      3  C   UNL d   1     -49.388  13.733  23.073  0.00  0.00     0.111 A 
ATOM      4  O   UNL d   1     -48.670  12.610  23.126  0.00  0.00    -0.302 OA
ATOM      5  N   UNL d   1     -48.137  14.717  22.635  0.00  0.00    -0.207 NA
ATOM      6  C   UNL d   1     -49.894  13.120  23.289  0.00  0.00     0.043 A 
ATOM      7  N   UNL d   1     -49.518  14.538  22.955  0.00  0.00    -0.225 NA
ATOM      8  C   UNL d   1     -49.450  12.423  23.322  0.00  0.00     0.102 A 
ATOM      9  C   UNL d   1     -48.892  15.030  22.736  0.00  0.00     0.164 A 
ATOM     10  C   UNL d   1     -50.700  13.103  23.460  0.00  0.00     0.004 A 
ATOM     11  C   UNL d   1     -49.814  11.711  23.526  0.00  0.00     0.025 A 
ATOM     12  C   UNL d   1     -49.022  15.835  22.618  0.00  0.00     0.042 C 
ATOM     13  C   UNL d   1     -51.064  12.389  23.664  0.00  0.00     0.000 A 
ATOM     14  C   UNL d   1     -50.620  11.694  23.697  0.00  0.00     0.002 A 
ENDROOT
BRANCH   2  15
ATOM     15  N   UNL d   1     -47.251  13.595  22.653  0.00  0.00    -0.285 N 
ATOM     16  C   UNL d   1     -47.031  13.279  21.923  0.00  0.00     0.101 A 
ATOM     17  C   UNL d   1     -46.275  12.963  21.821  0.00  0.00     0.117 A 
ATOM     18  N   UNL d   1     -45.740  12.963  22.450  0.00  0.00    -0.135 N 
ATOM     19  C   UNL d   1     -45.961  13.279  23.179  0.00  0.00     0.117 A 
ATOM     20  C   UNL d   1     -46.716  13.595  23.281  0.00  0.00     0.101 A 
BRANCH  18  21
ATOM     21  C   UNL d   1     -44.985  12.647  22.348  0.00  0.00     0.735 A 
ATOM     22  N   UNL d   1     -44.763  11.968  22.760  0.00  0.00    -0.060 NA
ATOM     23  C   UNL d   1     -44.010  11.651  22.659  0.00  0.00     0.101 A 
ATOM     24  C   UNL d   1     -43.787  10.971  23.072  0.00  0.00     0.021 C 
ATOM     25  C   UNL d   1     -43.475  12.013  22.144  0.00  0.00     0.040 A 
ATOM     26  C   UNL d   1     -43.697  12.692  21.732  0.00  0.00     0.101 A 
ATOM     27  N   UNL d   1     -44.452  13.009  21.834  0.00  0.00    -0.060 NA
ATOM     28  C   UNL d   1     -43.164  13.055  21.218  0.00  0.00     0.021 C 
ENDBRANCH  18  21
ENDBRANCH   2  15
TORSDOF 2
ENDMDL
MODEL 2
REMARK VINA RESULT:      -7.1      1.146      2.110
REMARK  2 active torsions:
REMARK  status: ('A' for Active; 'I' for Inactive)
REMARK    1  A    between atoms: N_9  and  C_2 
REMARK    2  A    between atoms: C_4  and  N_10 
ROOT
ATOM      1  C   UNL d   1     -49.189  13.410  23.282  0.00  0.00     0.152 A 
ATOM      2  C   UNL d   1     -48.834  12.666  23.247  0.00  0.00     0.174 A 
ATOM      3  C   UNL d   1     -49.995  13.475  23.447  0.00  0.00     0.111 A 
ATOM      4  O   UNL d   1     -48.889  14.171  23.178  0.00  0.00    -0.302 OA
ATOM      5  N   UNL d   1     -49.283  11.987  23.378  0.00  0.00    -0.207 NA
ATOM      6  C   UNL d   1     -50.194  14.274  23.446  0.00  0.00     0.043 A 
ATOM      7  N   UNL d   1     -50.444  12.795  23.578  0.00  0.00    -0.225 NA
ATOM      8  C   UNL d   1     -49.510  14.706  23.279  0.00  0.00     0.102 A 
ATOM      9  C   UNL d   1     -50.087  12.052  23.543  0.00  0.00     0.164 A 
ATOM     10  C   UNL d   1     -50.907  14.665  23.574  0.00  0.00     0.004 A 
ATOM     11  C   UNL d   1     -49.541  15.530  23.241  0.00  0.00     0.025 A 
ATOM     12  C   UNL d   1     -50.536  11.373  23.674  0.00  0.00     0.042 C 
ATOM     13  C   UNL d   1     -50.938  15.491  23.536  0.00  0.00     0.000 A 
ATOM     14  C   UNL d   1     -50.254  15.922  23.369  0.00  0.00     0.002 A 
ENDROOT
BRANCH   2  15
ATOM     15  N   UNL d   1     -48.027  12.603  23.082  0.00  0.00    -0.285 N 
ATOM     16  C   UNL d   1     -47.478  12.626  23.698  0.00  0.00     0.101 A 
ATOM     17  C   UNL d   1     -46.672  12.564  23.533  0.00  0.00     0.117 A 
ATOM     18  N   UNL d   1     -46.415  12.478  22.753  0.00  0.00    -0.135 N 
ATOM     19  C   UNL d   1     -46.964  12.456  22.139  0.00  0.00     0.117 A 
ATOM     20  C   UNL d   1     -47.771  12.518  22.303  0.00  0.00     0.101 A 
BRANCH  18  21
ATOM     21  C   UNL d   1     -45.609  12.416  22.590  0.00  0.00     0.735 A 
ATOM     22  N   UNL d   1     -45.170  11.797  22.912  0.00  0.00    -0.060 NA
ATOM     23  C   UNL d   1     -44.365  11.733  22.750  0.00  0.00     0.101 A 
ATOM     24  C   UNL d   1     -43.925  11.114  23.073  0.00  0.00     0.021 C 
ATOM     25  C   UNL d   1     -43.996  12.290  22.263  0.00  0.00     0.040 A 
ATOM     26  C   UNL d   1     -44.436  12.909  21.940  0.00  0.00     0.101 A 
ATOM     27  N   UNL d   1     -45.242  12.972  22.104  0.00  0.00    -0.060 NA
ATOM     28  C   UNL d   1     -44.069  13.465  21.454  0.00  0.00     0.021 C 
ENDBRANCH  18  21
ENDBRANCH   2  15
TORSDOF 2
ENDMDL
MODEL 3
REMARK VINA RESULT:      -6.9      1.024      5.115
REMARK  2 active torsions:
REMARK  status: ('A' for Active; 'I' for Inactive)
REMARK    1  A    between atoms: N_9  and  C_2 
REMARK    2  A    between atoms: C_4  and  N_10 
ROOT
ATOM      1  C   UNL d   1     -45.260  12.212  22.710  0.00  0.00     0.152 A 
ATOM      2  C   UNL d   1     -45.550  12.931  22.426  0.00  0.00     0.174 A 
ATOM      3  C   UNL d   1     -44.482  11.989  22.549  0.00  0.00     0.111 A 
ATOM      4  O   UNL d   1     -45.608  11.614  23.158  0.00  0.00    -0.302 OA
ATOM      5  N   UNL d   1     -45.063  13.427  21.983  0.00  0.00    -0.207 NA
ATOM      6  C   UNL d   1     -44.349  11.255  22.897  0.00  0.00     0.043 A 
ATOM      7  N   UNL d   1     -43.995  12.485  22.105  0.00  0.00    -0.225 NA
ATOM      8  C   UNL d   1     -45.046  11.021  23.274  0.00  0.00     0.102 A 
ATOM      9  C   UNL d   1     -44.287  13.204  21.823  0.00  0.00     0.164 A 
ATOM     10  C   UNL d   1     -43.685  10.767  22.920  0.00  0.00     0.004 A 
ATOM     11  C   UNL d   1     -45.077  10.300  23.675  0.00  0.00     0.025 A 
ATOM     12  C   UNL d   1     -43.800  13.700  21.379  0.00  0.00     0.042 C 
ATOM     13  C   UNL d   1     -43.717  10.045  23.321  0.00  0.00     0.000 A 
ATOM     14  C   UNL d   1     -44.413   9.812  23.698  0.00  0.00     0.002 A 
ENDROOT
BRANCH   2  15
ATOM     15  N   UNL d   1     -46.329  13.152  22.588  0.00  0.00    -0.285 N 
ATOM     16  C   UNL d   1     -46.932  12.946  22.064  0.00  0.00     0.101 A 
ATOM     17  C   UNL d   1     -47.711  13.167  22.225  0.00  0.00     0.117 A 
ATOM     18  N   UNL d   1     -47.886  13.593  22.910  0.00  0.00    -0.135 N 
ATOM     19  C   UNL d   1     -47.283  13.798  23.433  0.00  0.00     0.117 A 
ATOM     20  C   UNL d   1     -46.504  13.578  23.272  0.00  0.00     0.101 A 
BRANCH  18  21
ATOM     21  C   UNL d   1     -48.665  13.814  23.070  0.00  0.00     0.735 A 
ATOM     22  N   UNL d   1     -48.891  14.604  23.006  0.00  0.00    -0.060 NA
ATOM     23  C   UNL d   1     -49.668  14.826  23.165  0.00  0.00     0.101 A 
ATOM     24  C   UNL d   1     -49.895  15.617  23.101  0.00  0.00     0.021 C 
ATOM     25  C   UNL d   1     -50.222  14.255  23.391  0.00  0.00     0.040 A 
ATOM     26  C   UNL d   1     -49.996  13.465  23.455  0.00  0.00     0.101 A 
ATOM     27  N   UNL d   1     -49.217  13.244  23.295  0.00  0.00    -0.060 NA
ATOM     28  C   UNL d   1     -50.548  12.895  23.679  0.00  0.00     0.021 C 
ENDBRANCH  18  21
ENDBRANCH   2  15
TORSDOF 2
ENDMDL
MODEL 4
REMARK VINA RESULT:      -5.6      7.119      9.552
REMARK  2 active torsions:
REMARK  status: ('A' for Active; 'I' for Inactive)
REMARK    1  A    between atoms: N_9  and  C_2 
REMARK    2  A    between atoms: C_4  and  N_10 
ROOT
ATOM      1  C   UNL d   1     -39.491  14.501  20.512  0.00  0.00     0.152 A 
ATOM      2  C   UNL d   1     -39.923  14.769  19.862  0.00  0.00     0.174 A 
ATOM      3  C   UNL d   1     -39.816  14.544  21.269  0.00  0.00     0.111 A 
ATOM      4  O   UNL d   1     -38.739  14.169  20.577  0.00  0.00    -0.302 OA
ATOM      5  N   UNL d   1     -40.679  15.080  19.969  0.00  0.00    -0.207 NA
ATOM      6  C   UNL d   1     -39.266  14.240  21.802  0.00  0.00     0.043 A 
ATOM      7  N   UNL d   1     -40.572  14.855  21.376  0.00  0.00    -0.225 NA
ATOM      8  C   UNL d   1     -38.598  14.008  21.374  0.00  0.00     0.102 A 
ATOM      9  C   UNL d   1     -41.003  15.123  20.725  0.00  0.00     0.164 A 
ATOM     10  C   UNL d   1     -39.285  14.144  22.620  0.00  0.00     0.004 A 
ATOM     11  C   UNL d   1     -37.950  13.679  21.765  0.00  0.00     0.025 A 
ATOM     12  C   UNL d   1     -41.759  15.434  20.831  0.00  0.00     0.042 C 
ATOM     13  C   UNL d   1     -38.635  13.815  23.012  0.00  0.00     0.000 A 
ATOM     14  C   UNL d   1     -37.968  13.583  22.584  0.00  0.00     0.002 A 
ENDROOT
BRANCH   2  15
ATOM     15  N   UNL d   1     -39.596  14.725  19.105  0.00  0.00    -0.285 N 
ATOM     16  C   UNL d   1     -39.570  14.001  18.710  0.00  0.00     0.101 A 
ATOM     17  C   UNL d   1     -39.244  13.956  17.954  0.00  0.00     0.117 A 
ATOM     18  N   UNL d   1     -38.944  14.635  17.592  0.00  0.00    -0.135 N 
ATOM     19  C   UNL d   1     -38.971  15.358  17.988  0.00  0.00     0.117 A 
ATOM     20  C   UNL d   1     -39.297  15.403  18.744  0.00  0.00     0.101 A 
BRANCH  18  21
ATOM     21  C   UNL d   1     -38.618  14.590  16.836  0.00  0.00     0.735 A 
ATOM     22  N   UNL d   1     -38.442  13.854  16.506  0.00  0.00    -0.060 NA
ATOM     23  C   UNL d   1     -38.116  13.807  15.751  0.00  0.00     0.101 A 
ATOM     24  C   UNL d   1     -37.940  13.071  15.422  0.00  0.00     0.021 C 
ATOM     25  C   UNL d   1     -37.966  14.497  15.323  0.00  0.00     0.040 A 
ATOM     26  C   UNL d   1     -38.142  15.232  15.652  0.00  0.00     0.101 A 
ATOM     27  N   UNL d   1     -38.468  15.279  16.409  0.00  0.00    -0.060 NA
ATOM     28  C   UNL d   1     -37.992  15.922  15.225  0.00  0.00     0.021 C 
ENDBRANCH  18  21
ENDBRANCH   2  15
TORSDOF 2
ENDMDL
