MODEL 1
REMARK VINA RESULT:       0.7      0.000      0.000
REMARK  6 active torsions:
REMARK  status: ('A' for Active; 'I' for Inactive)
REMARK    1  A    between atoms: N_6  and  C_1 
REMARK    2  A    between atoms: C_4  and  C_2 
REMARK    3  A    between atoms: C_7  and  C_4 
REMARK    4  A    between atoms: C_8  and  C_4 
REMARK    5  A    between atoms: O_12  and  C_7 
REMARK    6  A    between atoms: C_16  and  O_12 
ROOT
ATOM      1  C   UNL d   1      30.811  16.622 -23.884  0.00  0.00     0.166 A 
ATOM      2  C   UNL d   1      30.803  17.364 -24.244  0.00  0.00     0.122 A 
ATOM      3  N   UNL d   1      30.101  16.261 -23.650  0.00  0.00    -0.225 NA
ATOM      4  N   UNL d   1      30.081  17.747 -24.371  0.00  0.00    -0.241 NA
ATOM      5  C   UNL d   1      29.383  16.651 -23.781  0.00  0.00     0.101 A 
ATOM      6  C   UNL d   1      29.375  17.390 -24.140  0.00  0.00     0.099 A 
ATOM      7  C   UNL d   1      28.685  16.294 -23.551  0.00  0.00     0.021 A 
ATOM      8  C   UNL d   1      28.657  17.775 -24.269  0.00  0.00     0.021 A 
ATOM      9  C   UNL d   1      27.955  17.419 -24.038  0.00  0.00     0.002 A 
ATOM     10  C   UNL d   1      27.963  16.677 -23.678  0.00  0.00     0.002 A 
ENDROOT
BRANCH   2  11
ATOM     11  C   UNL d   1      31.513  17.724 -24.477  0.00  0.00     0.105 C 
BRANCH  11  12
ATOM     12  C   UNL d   1      31.675  18.501 -24.250  0.00  0.00     0.303 C 
ATOM     13  O   UNL d   1      31.396  19.127 -24.706  0.00  0.00    -0.259 OA
BRANCH  12  14
ATOM     14  O   UNL d   1      32.115  18.649 -23.573  0.00  0.00    -0.273 OA
BRANCH  14  15
ATOM     15  C   UNL d   1      32.370  19.172 -22.994  0.00  0.00     0.103 A 
ATOM     16  C   UNL d   1      32.983  18.952 -22.488  0.00  0.00     0.025 A 
ATOM     17  C   UNL d   1      33.241  19.470 -21.907  0.00  0.00     0.002 A 
ATOM     18  C   UNL d   1      32.889  20.203 -21.832  0.00  0.00     0.000 A 
ATOM     19  C   UNL d   1      32.281  20.424 -22.331  0.00  0.00     0.002 A 
ATOM     20  C   UNL d   1      32.017  19.904 -22.919  0.00  0.00     0.025 A 
ENDBRANCH  14  15
ENDBRANCH  12  14
ENDBRANCH  11  12
BRANCH  11  21
ATOM     21  C   UNL d   1      32.064  17.308 -24.938  0.00  0.00     0.129 C 
ATOM     22  N   UNL d   1      32.949  17.622 -25.096  0.00  0.00    -0.146 N 
ENDBRANCH  11  21
ENDBRANCH   2  11
BRANCH   1  23
ATOM     23  N   UNL d   1      31.529  16.233 -23.753  0.00  0.00    -0.288 N 
ATOM     24  C   UNL d   1      31.832  16.183 -22.980  0.00  0.00     0.082 A 
ATOM     25  C   UNL d   1      32.555  15.790 -22.856  0.00  0.00     0.018 A 
ATOM     26  C   UNL d   1      32.862  15.737 -22.090  0.00  0.00     0.002 C 
ATOM     27  C   UNL d   1      32.967  15.454 -23.493  0.00  0.00     0.003 A 
ATOM     28  C   UNL d   1      32.655  15.510 -24.253  0.00  0.00     0.019 A 
ATOM     29  C   UNL d   1      31.941  15.896 -24.390  0.00  0.00     0.082 A 
ENDBRANCH   1  23
TORSDOF 6
ENDMDL
