MODEL 1
REMARK VINA RESULT:      82.4      0.000      0.000
REMARK  2 active torsions:
REMARK  status: ('A' for Active; 'I' for Inactive)
REMARK    1  A    between atoms: S_5  and  C_3 
REMARK    2  A    between atoms: C_12  and  S_5 
ROOT
ATOM      1  C   UNL d   1     -51.490  26.117  33.612  0.00  0.00     0.155 A 
ATOM      2  C   UNL d   1     -50.770  25.809  33.844  0.00  0.00     0.092 A 
ATOM      3  C   UNL d   1     -50.247  27.117  33.969  0.00  0.00     0.124 A 
ATOM      4  N   UNL d   1     -52.116  25.612  33.432  0.00  0.00    -0.210 NA
ATOM      5  N   UNL d   1     -51.591  26.919  33.558  0.00  0.00    -0.272 N 
ATOM      6  C   UNL d   1     -50.974  27.428  33.734  0.00  0.00     0.181 A 
ATOM      7  C   UNL d   1     -50.668  24.996  33.899  0.00  0.00     0.269 A 
ATOM      8  N   UNL d   1     -51.292  24.496  33.719  0.00  0.00    -0.258 N 
ATOM      9  C   UNL d   1     -50.148  26.306  34.023  0.00  0.00     0.022 A 
ATOM     10  C   UNL d   1     -52.017  24.812  33.486  0.00  0.00     0.152 A 
ATOM     11  N   UNL d   1     -51.083  28.249  33.677  0.00  0.00    -0.128 N 
ATOM     12  C   UNL d   1     -51.201  23.678  33.771  0.00  0.00     0.084 A 
ATOM     13  O   UNL d   1     -49.935  24.677  34.135  0.00  0.00    -0.266 OA
ATOM     14  C   UNL d   1     -52.643  24.307  33.306  0.00  0.00     0.038 A 
ATOM     15  C   UNL d   1     -51.820  23.189  33.593  0.00  0.00     0.019 A 
ATOM     16  C   UNL d   1     -52.546  23.505  33.359  0.00  0.00     0.005 A 
ATOM     17  C   UNL d   1     -52.330  27.237  33.319  0.00  0.00     0.102 C 
ENDROOT
BRANCH   3  18
ATOM     18  S   UNL d   1     -49.619  27.626  34.149  0.00  0.00     0.213 S 
ATOM     19  O   UNL d   1     -49.746  28.052  33.443  0.00  0.00    -0.217 OA
ATOM     20  O   UNL d   1     -49.483  27.211  34.853  0.00  0.00    -0.217 OA
BRANCH  18  21
ATOM     21  C   UNL d   1     -48.984  28.134  34.341  0.00  0.00     0.088 A 
ATOM     22  C   UNL d   1     -48.292  27.826  34.674  0.00  0.00     0.014 A 
ATOM     23  C   UNL d   1     -47.657  28.334  34.866  0.00  0.00     0.030 A 
ATOM     24  C   UNL d   1     -47.718  29.148  34.723  0.00  0.00     0.140 A 
ATOM     25  C   UNL d   1     -48.424  29.454  34.384  0.00  0.00     0.030 A 
ATOM     26  F   UNL d   1     -47.093  29.658  34.911  0.00  0.00    -0.204 F 
ATOM     27  C   UNL d   1     -49.054  28.948  34.194  0.00  0.00     0.014 A 
ENDBRANCH  18  21
ENDBRANCH   3  18
TORSDOF 2
ENDMDL
