MODEL 1
REMARK VINA RESULT:      55.4      0.000      0.000
REMARK  3 active torsions:
REMARK  status: ('A' for Active; 'I' for Inactive)
REMARK    1  A    between atoms: C_4  and  C_1 
REMARK       I    between atoms: N_7  and  C_4 
REMARK    2  A    between atoms: C_14  and  N_7 
REMARK    3  A    between atoms: C_9  and  C_10 
ROOT
ATOM      1  C   UNL d   1      58.386  49.429  50.741  0.00  0.00     0.281 C 
ATOM      2  N   UNL d   1      58.960  49.078  51.201  0.00  0.00    -0.208 NA
ATOM      3  O   UNL d   1      58.568  49.707  49.985  0.00  0.00    -0.265 OA
ENDROOT
BRANCH   2   4
ATOM      4  C   UNL d   1      59.722  49.003  50.911  0.00  0.00     0.085 A 
ATOM      5  C   UNL d   1      60.071  49.659  50.513  0.00  0.00     0.019 A 
ATOM      6  C   UNL d   1      60.832  49.601  50.216  0.00  0.00     0.005 A 
ATOM      7  C   UNL d   1      61.262  48.907  50.301  0.00  0.00     0.039 A 
ATOM      8  C   UNL d   1      60.911  48.263  50.695  0.00  0.00     0.005 A 
ATOM      9  C   UNL d   1      60.151  48.317  50.993  0.00  0.00     0.019 A 
BRANCH   7  10
ATOM     10  C   UNL d   1      62.047  48.847  49.995  0.00  0.00     0.196 C 
ATOM     11  O   UNL d   1      62.505  49.505  49.888  0.00  0.00    -0.287 OA
ATOM     12  C   UNL d   1      62.362  48.092  49.796  0.00  0.00     0.045 C 
ENDBRANCH   7  10
ENDBRANCH   2   4
BRANCH   1  13
ATOM     13  C   UNL d   1      57.605  49.518  51.012  0.00  0.00     0.076 A 
ATOM     14  C   UNL d   1      56.935  49.588  50.568  0.00  0.00     0.092 A 
ATOM     15  S   UNL d   1      56.263  49.667  51.066  0.00  0.00    -0.064 SA
ATOM     16 CL   UNL d   1      56.914  49.582  49.714  0.00  0.00    -0.075 Cl
ATOM     17  C   UNL d   1      56.522  49.646  51.803  0.00  0.00     0.088 A 
ATOM     18  C   UNL d   1      57.357  49.553  51.797  0.00  0.00     0.024 A 
ATOM     19 CL   UNL d   1      56.034  49.707  52.492  0.00  0.00    -0.075 Cl
ENDBRANCH   1  13
TORSDOF 3
ENDMDL
