MODEL 1
REMARK VINA RESULT:      -8.8      0.000      0.000
REMARK  4 active torsions:
REMARK  status: ('A' for Active; 'I' for Inactive)
REMARK    1  A    between atoms: N_10  and  C_3 
REMARK    2  A    between atoms: C_12  and  C_5 
REMARK    3  A    between atoms: C_20  and  N_11 
REMARK    4  A    between atoms: C_24  and  C_20 
ROOT
ATOM      1  N   UNL d   1     -47.998  12.506  22.801  0.00  0.00    -0.196 N 
ATOM      2  C   UNL d   1     -48.573  13.085  22.651  0.00  0.00     0.167 A 
ATOM      3  C   UNL d   1     -47.214  12.735  22.892  0.00  0.00     0.152 A 
ATOM      4  N   UNL d   1     -48.997  11.513  22.765  0.00  0.00    -0.163 NA
ATOM      5  C   UNL d   1     -49.350  12.881  22.559  0.00  0.00     0.055 A 
ATOM      6  N   UNL d   1     -48.351  13.881  22.595  0.00  0.00    -0.227 NA
ATOM      7  C   UNL d   1     -46.993  13.518  22.837  0.00  0.00     0.052 A 
ATOM      8  C   UNL d   1     -49.568  12.089  22.615  0.00  0.00     0.104 A 
ATOM      9  C   UNL d   1     -47.564  14.095  22.687  0.00  0.00     0.086 A 
ATOM     10  C   UNL d   1     -46.197  13.728  22.931  0.00  0.00     0.004 A 
ATOM     11  C   UNL d   1     -50.340  11.872  22.525  0.00  0.00     0.023 C 
ATOM     12  C   UNL d   1     -47.346  14.887  22.631  0.00  0.00     0.019 A 
ATOM     13  C   UNL d   1     -45.979  14.533  22.873  0.00  0.00     0.000 A 
ATOM     14  C   UNL d   1     -46.550  15.109  22.723  0.00  0.00     0.002 A 
ENDROOT
BRANCH   3  15
ATOM     15  N   UNL d   1     -46.628  12.149  23.045  0.00  0.00    -0.286 N 
ATOM     16  C   UNL d   1     -46.900  11.483  23.503  0.00  0.00     0.101 A 
ATOM     17  C   UNL d   1     -46.366  10.851  23.698  0.00  0.00     0.100 A 
ATOM     18  N   UNL d   1     -45.557  10.882  23.435  0.00  0.00    -0.297 N 
ATOM     19  C   UNL d   1     -45.291  11.539  22.983  0.00  0.00     0.100 A 
ATOM     20  C   UNL d   1     -45.828  12.174  22.788  0.00  0.00     0.101 A 
BRANCH  18  21
ATOM     21  C   UNL d   1     -45.026  10.254  23.629  0.00  0.00     0.126 C 
BRANCH  21  22
ATOM     22  C   UNL d   1     -44.191  10.328  23.497  0.00  0.00     0.253 C 
ATOM     23  O   UNL d   1     -43.680   9.663  23.560  0.00  0.00    -0.281 OA
ENDBRANCH  21  22
ENDBRANCH  18  21
ENDBRANCH   3  15
BRANCH   5  24
ATOM     24  C   UNL d   1     -49.921  13.457  22.409  0.00  0.00     0.004 A 
ATOM     25  C   UNL d   1     -50.161  13.593  21.644  0.00  0.00     0.000 A 
ATOM     26  C   UNL d   1     -50.732  14.169  21.494  0.00  0.00     0.000 A 
ATOM     27  C   UNL d   1     -51.055  14.600  22.113  0.00  0.00     0.000 A 
ATOM     28  C   UNL d   1     -50.806  14.456  22.881  0.00  0.00     0.000 A 
ATOM     29  C   UNL d   1     -50.235  13.880  23.030  0.00  0.00     0.000 A 
ENDBRANCH   5  24
TORSDOF 4
ENDMDL
MODEL 2
REMARK VINA RESULT:      -8.6      1.496      2.536
REMARK  4 active torsions:
REMARK  status: ('A' for Active; 'I' for Inactive)
REMARK    1  A    between atoms: N_10  and  C_3 
REMARK    2  A    between atoms: C_12  and  C_5 
REMARK    3  A    between atoms: C_20  and  N_11 
REMARK    4  A    between atoms: C_24  and  C_20 
ROOT
ATOM      1  N   UNL d   1     -47.505  13.736  22.643  0.00  0.00    -0.196 N 
ATOM      2  C   UNL d   1     -48.311  13.867  22.789  0.00  0.00     0.167 A 
ATOM      3  C   UNL d   1     -47.186  12.996  22.799  0.00  0.00     0.152 A 
ATOM      4  N   UNL d   1     -47.374  15.067  22.198  0.00  0.00    -0.163 NA
ATOM      5  C   UNL d   1     -48.645  14.589  22.642  0.00  0.00     0.055 A 
ATOM      6  N   UNL d   1     -48.780  13.255  23.089  0.00  0.00    -0.227 NA
ATOM      7  C   UNL d   1     -47.647  12.390  23.095  0.00  0.00     0.052 A 
ATOM      8  C   UNL d   1     -48.176  15.197  22.344  0.00  0.00     0.104 A 
ATOM      9  C   UNL d   1     -48.448  12.521  23.240  0.00  0.00     0.086 A 
ATOM     10  C   UNL d   1     -47.305  11.650  23.245  0.00  0.00     0.004 A 
ATOM     11  C   UNL d   1     -48.496  15.922  22.193  0.00  0.00     0.023 C 
ATOM     12  C   UNL d   1     -48.917  11.913  23.538  0.00  0.00     0.019 A 
ATOM     13  C   UNL d   1     -47.785  11.036  23.548  0.00  0.00     0.000 A 
ATOM     14  C   UNL d   1     -48.586  11.166  23.694  0.00  0.00     0.002 A 
ENDROOT
BRANCH   3  15
ATOM     15  N   UNL d   1     -46.367  12.859  22.652  0.00  0.00    -0.286 N 
ATOM     16  C   UNL d   1     -46.177  12.676  21.841  0.00  0.00     0.101 A 
ATOM     17  C   UNL d   1     -45.372  12.525  21.613  0.00  0.00     0.100 A 
ATOM     18  N   UNL d   1     -44.753  12.557  22.197  0.00  0.00    -0.297 N 
ATOM     19  C   UNL d   1     -44.943  12.737  22.996  0.00  0.00     0.100 A 
ATOM     20  C   UNL d   1     -45.753  12.888  23.223  0.00  0.00     0.101 A 
BRANCH  18  21
ATOM     21  C   UNL d   1     -43.952  12.407  21.972  0.00  0.00     0.126 C 
BRANCH  21  22
ATOM     22  C   UNL d   1     -43.534  12.938  21.459  0.00  0.00     0.253 C 
ATOM     23  O   UNL d   1     -42.710  12.845  21.315  0.00  0.00    -0.281 OA
ENDBRANCH  21  22
ENDBRANCH  18  21
ENDBRANCH   3  15
BRANCH   5  24
ATOM     24  C   UNL d   1     -49.446  14.720  22.788  0.00  0.00     0.004 A 
ATOM     25  C   UNL d   1     -49.682  14.976  23.523  0.00  0.00     0.000 A 
ATOM     26  C   UNL d   1     -50.484  15.106  23.669  0.00  0.00     0.000 A 
ATOM     27  C   UNL d   1     -51.036  14.978  23.077  0.00  0.00     0.000 A 
ATOM     28  C   UNL d   1     -50.788  14.720  22.339  0.00  0.00     0.000 A 
ATOM     29  C   UNL d   1     -49.987  14.590  22.193  0.00  0.00     0.000 A 
ENDBRANCH   5  24
TORSDOF 4
ENDMDL
MODEL 3
REMARK VINA RESULT:      -6.2      1.467      1.796
REMARK  4 active torsions:
REMARK  status: ('A' for Active; 'I' for Inactive)
REMARK    1  A    between atoms: N_10  and  C_3 
REMARK    2  A    between atoms: C_12  and  C_5 
REMARK    3  A    between atoms: C_20  and  N_11 
REMARK    4  A    between atoms: C_24  and  C_20 
ROOT
ATOM      1  N   UNL d   1     -47.336  12.533  22.509  0.00  0.00    -0.196 N 
ATOM      2  C   UNL d   1     -48.142  12.680  22.638  0.00  0.00     0.167 A 
ATOM      3  C   UNL d   1     -46.816  13.168  22.468  0.00  0.00     0.152 A 
ATOM      4  N   UNL d   1     -47.600  11.149  22.471  0.00  0.00    -0.163 NA
ATOM      5  C   UNL d   1     -48.671  12.070  22.682  0.00  0.00     0.055 A 
ATOM      6  N   UNL d   1     -48.411  13.459  22.722  0.00  0.00    -0.227 NA
ATOM      7  C   UNL d   1     -47.078  13.936  22.550  0.00  0.00     0.052 A 
ATOM      8  C   UNL d   1     -48.402  11.296  22.598  0.00  0.00     0.104 A 
ATOM      9  C   UNL d   1     -47.880  14.082  22.678  0.00  0.00     0.086 A 
ATOM     10  C   UNL d   1     -46.537  14.562  22.505  0.00  0.00     0.004 A 
ATOM     11  C   UNL d   1     -48.918  10.678  22.640  0.00  0.00     0.023 C 
ATOM     12  C   UNL d   1     -48.149  14.856  22.762  0.00  0.00     0.019 A 
ATOM     13  C   UNL d   1     -46.814  15.346  22.590  0.00  0.00     0.000 A 
ATOM     14  C   UNL d   1     -47.616  15.492  22.718  0.00  0.00     0.002 A 
ENDROOT
BRANCH   3  15
ATOM     15  N   UNL d   1     -45.996  13.022  22.337  0.00  0.00    -0.286 N 
ATOM     16  C   UNL d   1     -45.636  12.485  22.894  0.00  0.00     0.101 A 
ATOM     17  C   UNL d   1     -44.812  12.289  22.828  0.00  0.00     0.100 A 
ATOM     18  N   UNL d   1     -44.343  12.629  22.204  0.00  0.00    -0.297 N 
ATOM     19  C   UNL d   1     -44.700  13.157  21.656  0.00  0.00     0.100 A 
ATOM     20  C   UNL d   1     -45.529  13.354  21.724  0.00  0.00     0.101 A 
BRANCH  18  21
ATOM     21  C   UNL d   1     -43.523  12.434  22.138  0.00  0.00     0.126 C 
BRANCH  21  22
ATOM     22  C   UNL d   1     -43.082  12.625  21.439  0.00  0.00     0.253 C 
ATOM     23  O   UNL d   1     -42.274  12.403  21.361  0.00  0.00    -0.281 OA
ENDBRANCH  21  22
ENDBRANCH  18  21
ENDBRANCH   3  15
BRANCH   5  24
ATOM     24  C   UNL d   1     -49.473  12.216  22.810  0.00  0.00     0.004 A 
ATOM     25  C   UNL d   1     -49.960  12.357  22.173  0.00  0.00     0.000 A 
ATOM     26  C   UNL d   1     -50.762  12.504  22.301  0.00  0.00     0.000 A 
ATOM     27  C   UNL d   1     -51.064  12.507  23.063  0.00  0.00     0.000 A 
ATOM     28  C   UNL d   1     -50.565  12.363  23.698  0.00  0.00     0.000 A 
ATOM     29  C   UNL d   1     -49.763  12.217  23.570  0.00  0.00     0.000 A 
ENDBRANCH   5  24
TORSDOF 4
ENDMDL
MODEL 4
REMARK VINA RESULT:      -6.2      8.422      9.947
REMARK  4 active torsions:
REMARK  status: ('A' for Active; 'I' for Inactive)
REMARK    1  A    between atoms: N_10  and  C_3 
REMARK    2  A    between atoms: C_12  and  C_5 
REMARK    3  A    between atoms: C_20  and  N_11 
REMARK    4  A    between atoms: C_24  and  C_20 
ROOT
ATOM      1  N   UNL d   1     -39.990  14.844  19.606  0.00  0.00    -0.196 N 
ATOM      2  C   UNL d   1     -39.513  14.519  20.202  0.00  0.00     0.167 A 
ATOM      3  C   UNL d   1     -39.888  14.590  18.831  0.00  0.00     0.152 A 
ATOM      4  N   UNL d   1     -40.636  15.646  20.566  0.00  0.00    -0.163 NA
ATOM      5  C   UNL d   1     -39.597  14.755  20.971  0.00  0.00     0.055 A 
ATOM      6  N   UNL d   1     -38.945  13.948  20.011  0.00  0.00    -0.227 NA
ATOM      7  C   UNL d   1     -39.329  14.027  18.640  0.00  0.00     0.052 A 
ATOM      8  C   UNL d   1     -40.162  15.324  21.159  0.00  0.00     0.104 A 
ATOM      9  C   UNL d   1     -38.855  13.704  19.233  0.00  0.00     0.086 A 
ATOM     10  C   UNL d   1     -39.243  13.785  17.852  0.00  0.00     0.004 A 
ATOM     11  C   UNL d   1     -40.256  15.568  21.922  0.00  0.00     0.023 C 
ATOM     12  C   UNL d   1     -38.290  13.135  19.045  0.00  0.00     0.019 A 
ATOM     13  C   UNL d   1     -38.668  13.207  17.665  0.00  0.00     0.000 A 
ATOM     14  C   UNL d   1     -38.194  12.884  18.258  0.00  0.00     0.002 A 
ENDROOT
BRANCH   3  15
ATOM     15  N   UNL d   1     -40.371  14.917  18.223  0.00  0.00    -0.286 N 
ATOM     16  C   UNL d   1     -39.958  15.096  17.498  0.00  0.00     0.101 A 
ATOM     17  C   UNL d   1     -40.378  15.430  16.837  0.00  0.00     0.100 A 
ATOM     18  N   UNL d   1     -41.212  15.585  16.900  0.00  0.00    -0.297 N 
ATOM     19  C   UNL d   1     -41.617  15.408  17.614  0.00  0.00     0.100 A 
ATOM     20  C   UNL d   1     -41.195  15.073  18.278  0.00  0.00     0.101 A 
BRANCH  18  21
ATOM     21  C   UNL d   1     -41.629  15.916  16.243  0.00  0.00     0.126 C 
BRANCH  21  22
ATOM     22  C   UNL d   1     -42.299  15.521  15.904  0.00  0.00     0.253 C 
ATOM     23  O   UNL d   1     -42.781  15.899  15.327  0.00  0.00    -0.281 OA
ENDBRANCH  21  22
ENDBRANCH  18  21
ENDBRANCH   3  15
BRANCH   5  24
ATOM     24  C   UNL d   1     -39.123  14.432  21.564  0.00  0.00     0.004 A 
ATOM     25  C   UNL d   1     -38.414  14.788  21.747  0.00  0.00     0.000 A 
ATOM     26  C   UNL d   1     -37.940  14.465  22.340  0.00  0.00     0.000 A 
ATOM     27  C   UNL d   1     -38.182  13.792  22.741  0.00  0.00     0.000 A 
ATOM     28  C   UNL d   1     -38.898  13.441  22.549  0.00  0.00     0.000 A 
ATOM     29  C   UNL d   1     -39.372  13.764  21.956  0.00  0.00     0.000 A 
ENDBRANCH   5  24
TORSDOF 4
ENDMDL
MODEL 5
REMARK VINA RESULT:      -6.1      8.486     10.277
REMARK  4 active torsions:
REMARK  status: ('A' for Active; 'I' for Inactive)
REMARK    1  A    between atoms: N_10  and  C_3 
REMARK    2  A    between atoms: C_12  and  C_5 
REMARK    3  A    between atoms: C_20  and  N_11 
REMARK    4  A    between atoms: C_24  and  C_20 
ROOT
ATOM      1  N   UNL d   1     -38.972  14.220  18.669  0.00  0.00    -0.196 N 
ATOM      2  C   UNL d   1     -39.305  14.381  19.412  0.00  0.00     0.167 A 
ATOM      3  C   UNL d   1     -39.329  14.529  17.997  0.00  0.00     0.152 A 
ATOM      4  N   UNL d   1     -37.960  13.463  19.292  0.00  0.00    -0.163 NA
ATOM      5  C   UNL d   1     -38.970  14.086  20.086  0.00  0.00     0.055 A 
ATOM      6  N   UNL d   1     -39.987  14.847  19.466  0.00  0.00    -0.227 NA
ATOM      7  C   UNL d   1     -40.001  14.988  18.047  0.00  0.00     0.052 A 
ATOM      8  C   UNL d   1     -38.291  13.623  20.030  0.00  0.00     0.104 A 
ATOM      9  C   UNL d   1     -40.332  15.148  18.786  0.00  0.00     0.086 A 
ATOM     10  C   UNL d   1     -40.345  15.290  17.356  0.00  0.00     0.004 A 
ATOM     11  C   UNL d   1     -37.947  13.323  20.695  0.00  0.00     0.023 C 
ATOM     12  C   UNL d   1     -41.011  15.612  18.841  0.00  0.00     0.019 A 
ATOM     13  C   UNL d   1     -41.034  15.760  17.417  0.00  0.00     0.000 A 
ATOM     14  C   UNL d   1     -41.365  15.920  18.156  0.00  0.00     0.002 A 
ENDROOT
BRANCH   3  15
ATOM     15  N   UNL d   1     -38.993  14.368  17.240  0.00  0.00    -0.286 N 
ATOM     16  C   UNL d   1     -38.716  13.568  17.136  0.00  0.00     0.101 A 
ATOM     17  C   UNL d   1     -38.365  13.329  16.400  0.00  0.00     0.100 A 
ATOM     18  N   UNL d   1     -38.290  13.889  15.763  0.00  0.00    -0.297 N 
ATOM     19  C   UNL d   1     -38.564  14.677  15.868  0.00  0.00     0.100 A 
ATOM     20  C   UNL d   1     -38.917  14.916  16.609  0.00  0.00     0.101 A 
BRANCH  18  21
ATOM     21  C   UNL d   1     -37.941  13.652  15.031  0.00  0.00     0.126 C 
BRANCH  21  22
ATOM     22  C   UNL d   1     -38.420  13.396  14.379  0.00  0.00     0.253 C 
ATOM     23  O   UNL d   1     -38.128  13.416  13.590  0.00  0.00    -0.281 OA
ENDBRANCH  21  22
ENDBRANCH  18  21
ENDBRANCH   3  15
BRANCH   5  24
ATOM     24  C   UNL d   1     -39.301  14.246  20.825  0.00  0.00     0.004 A 
ATOM     25  C   UNL d   1     -39.806  13.705  21.162  0.00  0.00     0.000 A 
ATOM     26  C   UNL d   1     -40.137  13.864  21.901  0.00  0.00     0.000 A 
ATOM     27  C   UNL d   1     -39.957  14.563  22.290  0.00  0.00     0.000 A 
ATOM     28  C   UNL d   1     -39.447  15.102  21.942  0.00  0.00     0.000 A 
ATOM     29  C   UNL d   1     -39.116  14.943  21.204  0.00  0.00     0.000 A 
ENDBRANCH   5  24
TORSDOF 4
ENDMDL
