MODEL 1
REMARK VINA RESULT:      20.1      0.000      0.000
REMARK  1 active torsions:
REMARK  status: ('A' for Active; 'I' for Inactive)
REMARK       I    between atoms: N_2  and  C_1 
REMARK       I    between atoms: N_4  and  C_1 
REMARK    1  A    between atoms: C_5  and  N_2 
ROOT
ATOM      1  N   UNL d   1     -55.819-102.827 -37.256  0.00  0.00    -0.242 NA
ATOM      2  C   UNL d   1     -54.990-102.277 -38.315  0.00  0.00     0.105 A 
ATOM      3  C   UNL d   1     -54.992-101.650 -37.014  0.00  0.00     0.019 A 
ATOM      4  C   UNL d   1     -55.539-102.225 -36.741  0.00  0.00     0.082 A 
ATOM      5  C   UNL d   1     -54.718-101.684 -37.804  0.00  0.00     0.022 A 
ATOM      6  C   UNL d   1     -55.543-102.846 -38.040  0.00  0.00     0.118 A 
ATOM      7  C   UNL d   1     -54.717-101.062 -36.498  0.00  0.00     0.002 A 
ATOM      8  C   UNL d   1     -55.812-102.199 -35.960  0.00  0.00     0.019 A 
ATOM      9  C   UNL d   1     -54.993-101.037 -35.708  0.00  0.00     0.000 A 
ATOM     10  C   UNL d   1     -55.539-101.600 -35.438  0.00  0.00     0.002 A 
ENDROOT
BRANCH   2  11
ATOM     11  N   UNL d   1     -54.727-102.302 -39.100  0.00  0.00    -0.191 NA
ATOM     12  C   UNL d   1     -55.255-102.485 -39.714  0.00  0.00     0.354 C 
ATOM     13  N   UNL d   1     -56.058-102.639 -39.545  0.00  0.00    -0.253 N 
ATOM     14  O   UNL d   1     -54.986-102.518 -40.511  0.00  0.00    -0.244 OA
ATOM     15  C   UNL d   1     -56.322-102.618 -38.755  0.00  0.00     0.104 C 
ATOM     16  C   UNL d   1     -56.582-102.830 -40.162  0.00  0.00     0.104 C 
ENDBRANCH   2  11
TORSDOF 1
ENDMDL
MODEL 2
REMARK VINA RESULT:      20.7      6.856      7.736
REMARK  1 active torsions:
REMARK  status: ('A' for Active; 'I' for Inactive)
REMARK       I    between atoms: N_2  and  C_1 
REMARK       I    between atoms: N_4  and  C_1 
REMARK    1  A    between atoms: C_5  and  N_2 
ROOT
ATOM      1  N   UNL d   1     -57.577 -98.760 -43.328  0.00  0.00    -0.242 NA
ATOM      2  C   UNL d   1     -56.726 -98.756 -44.507  0.00  0.00     0.105 A 
ATOM      3  C   UNL d   1     -58.162 -98.775 -44.665  0.00  0.00     0.019 A 
ATOM      4  C   UNL d   1     -58.251 -98.768 -43.830  0.00  0.00     0.082 A 
ATOM      5  C   UNL d   1     -57.394 -98.767 -44.997  0.00  0.00     0.022 A 
ATOM      6  C   UNL d   1     -56.820 -98.756 -43.672  0.00  0.00     0.118 A 
ATOM      7  C   UNL d   1     -58.833 -98.778 -45.153  0.00  0.00     0.002 A 
ATOM      8  C   UNL d   1     -59.007 -98.774 -43.494  0.00  0.00     0.019 A 
ATOM      9  C   UNL d   1     -59.597 -98.784 -44.812  0.00  0.00     0.000 A 
ATOM     10  C   UNL d   1     -59.687 -98.783 -43.988  0.00  0.00     0.002 A 
ENDROOT
BRANCH   2  11
ATOM     11  N   UNL d   1     -55.967 -98.760 -44.838  0.00  0.00    -0.191 NA
ATOM     12  C   UNL d   1     -55.486 -99.434 -44.778  0.00  0.00     0.354 C 
ATOM     13  N   UNL d   1     -55.768-100.117 -44.390  0.00  0.00    -0.253 N 
ATOM     14  O   UNL d   1     -54.712 -99.435 -45.108  0.00  0.00    -0.244 OA
ATOM     15  C   UNL d   1     -56.530-100.113 -44.053  0.00  0.00     0.104 C 
ATOM     16  C   UNL d   1     -55.280-100.788 -44.325  0.00  0.00     0.104 C 
ENDBRANCH   2  11
TORSDOF 1
ENDMDL
