MODEL 1
REMARK VINA RESULT:      87.6      0.000      0.000
REMARK  3 active torsions:
REMARK  status: ('A' for Active; 'I' for Inactive)
REMARK    1  A    between atoms: N_7  and  C_1 
REMARK       I    between atoms: C_11  and  N_6 
REMARK       I    between atoms: C_10  and  N_7 
REMARK    2  A    between atoms: C_17  and  C_10 
REMARK    3  A    between atoms: C_14  and  C_17 
ROOT
ATOM      1  C   UNL d   1     -54.949-102.425 -40.289  0.00  0.00     0.124 A 
ATOM      2  C   UNL d   1     -55.095-101.639 -40.090  0.00  0.00     0.093 A 
ATOM      3  C   UNL d   1     -55.048-102.334 -38.952  0.00  0.00     0.049 A 
ATOM      4  C   UNL d   1     -55.156-101.582 -39.265  0.00  0.00     0.021 A 
ATOM      5  S   UNL d   1     -54.918-102.866 -39.582  0.00  0.00    -0.066 SA
ATOM      6  N   UNL d   1     -55.219-101.809 -37.630  0.00  0.00    -0.272 N 
ATOM      7  C   UNL d   1     -55.079-102.451 -38.136  0.00  0.00     0.089 A 
ATOM      8  C   UNL d   1     -55.167-101.015 -40.624  0.00  0.00     0.103 C 
ATOM      9  C   UNL d   1     -55.251-101.924 -36.808  0.00  0.00     0.265 C 
ATOM     10  N   UNL d   1     -55.239-100.392 -41.162  0.00  0.00    -0.191 NA
ATOM     11  C   UNL d   1     -55.296-100.940 -38.768  0.00  0.00     0.020 A 
ATOM     12  C   UNL d   1     -55.328-101.054 -37.946  0.00  0.00     0.083 A 
ATOM     13  O   UNL d   1     -55.143-102.680 -36.491  0.00  0.00    -0.267 OA
ATOM     14  C   UNL d   1     -55.391-101.282 -36.302  0.00  0.00     0.066 C 
ENDROOT
BRANCH   1  15
ATOM     15  N   UNL d   1     -54.850-102.734 -41.040  0.00  0.00    -0.201 NA
ATOM     16  C   UNL d   1     -54.818-102.225 -41.682  0.00  0.00     0.280 C 
ATOM     17  O   UNL d   1     -54.716-102.536 -42.450  0.00  0.00    -0.265 OA
BRANCH  16  18
ATOM     18  C   UNL d   1     -54.883-101.411 -41.586  0.00  0.00     0.062 C 
BRANCH  18  19
ATOM     19  C   UNL d   1     -54.964-100.914 -42.238  0.00  0.00     0.005 A 
ATOM     20  C   UNL d   1     -54.955-100.086 -42.137  0.00  0.00     0.000 A 
ATOM     21  C   UNL d   1     -55.037 -99.596 -42.799  0.00  0.00     0.000 A 
ATOM     22  C   UNL d   1     -54.863 -99.772 -41.381  0.00  0.00     0.000 C 
ATOM     23  C   UNL d   1     -55.128 -99.911 -43.552  0.00  0.00     0.000 A 
ATOM     24  C   UNL d   1     -55.138-100.731 -43.652  0.00  0.00     0.000 A 
ATOM     25  C   UNL d   1     -55.210 -99.423 -44.205  0.00  0.00     0.000 C 
ATOM     26  C   UNL d   1     -55.056-101.236 -43.000  0.00  0.00     0.000 A 
ENDBRANCH  18  19
ENDBRANCH  16  18
ENDBRANCH   1  15
TORSDOF 3
ENDMDL
MODEL 2
REMARK VINA RESULT:      89.1      0.998      4.767
REMARK  3 active torsions:
REMARK  status: ('A' for Active; 'I' for Inactive)
REMARK    1  A    between atoms: N_7  and  C_1 
REMARK       I    between atoms: C_11  and  N_6 
REMARK       I    between atoms: C_10  and  N_7 
REMARK    2  A    between atoms: C_17  and  C_10 
REMARK    3  A    between atoms: C_14  and  C_17 
ROOT
ATOM      1  C   UNL d   1     -55.242-102.474 -39.862  0.00  0.00     0.124 A 
ATOM      2  C   UNL d   1     -55.074-101.673 -39.957  0.00  0.00     0.093 A 
ATOM      3  C   UNL d   1     -55.181-102.203 -41.177  0.00  0.00     0.049 A 
ATOM      4  C   UNL d   1     -55.036-101.505 -40.768  0.00  0.00     0.021 A 
ATOM      5  S   UNL d   1     -55.311-102.813 -40.621  0.00  0.00    -0.066 SA
ATOM      6  N   UNL d   1     -55.032-101.508 -42.420  0.00  0.00    -0.272 N 
ATOM      7  C   UNL d   1     -55.180-102.208 -42.002  0.00  0.00     0.089 A 
ATOM      8  C   UNL d   1     -54.962-101.131 -39.346  0.00  0.00     0.103 C 
ATOM      9  C   UNL d   1     -55.030-101.509 -43.251  0.00  0.00     0.265 C 
ATOM     10  N   UNL d   1     -54.850-100.590 -38.731  0.00  0.00    -0.191 NA
ATOM     11  C   UNL d   1     -54.888-100.806 -41.178  0.00  0.00     0.020 A 
ATOM     12  C   UNL d   1     -54.886-100.807 -42.008  0.00  0.00     0.083 A 
ATOM     13  O   UNL d   1     -55.176-102.210 -43.663  0.00  0.00    -0.267 OA
ATOM     14  C   UNL d   1     -54.882-100.809 -43.669  0.00  0.00     0.066 C 
ENDROOT
BRANCH   1  15
ATOM     15  N   UNL d   1     -55.329-102.880 -39.157  0.00  0.00    -0.201 NA
ATOM     16  C   UNL d   1     -55.429-102.457 -38.460  0.00  0.00     0.280 C 
ATOM     17  O   UNL d   1     -55.518-102.868 -37.739  0.00  0.00    -0.265 OA
BRANCH  16  18
ATOM     18  C   UNL d   1     -55.442-101.636 -38.457  0.00  0.00     0.062 C 
BRANCH  18  19
ATOM     19  C   UNL d   1     -55.443-101.216 -37.748  0.00  0.00     0.005 A 
ATOM     20  C   UNL d   1     -56.015-101.382 -37.165  0.00  0.00     0.000 A 
ATOM     21  C   UNL d   1     -56.007-100.955 -36.456  0.00  0.00     0.000 A 
ATOM     22  C   UNL d   1     -56.579-101.967 -37.305  0.00  0.00     0.000 C 
ATOM     23  C   UNL d   1     -55.445-100.373 -36.318  0.00  0.00     0.000 A 
ATOM     24  C   UNL d   1     -54.878-100.208 -36.895  0.00  0.00     0.000 A 
ATOM     25  C   UNL d   1     -55.440 -99.952 -35.614  0.00  0.00     0.000 C 
ATOM     26  C   UNL d   1     -54.872-100.627 -37.611  0.00  0.00     0.000 A 
ENDBRANCH  18  19
ENDBRANCH  16  18
ENDBRANCH   1  15
TORSDOF 3
ENDMDL
