MODEL 1
REMARK VINA RESULT:      25.3      0.000      0.000
REMARK  6 active torsions:
REMARK  status: ('A' for Active; 'I' for Inactive)
REMARK    1  A    between atoms: C_8  and  C_1 
REMARK    2  A    between atoms: S_10  and  C_2 
REMARK    3  A    between atoms: C_7  and  C_4 
REMARK    4  A    between atoms: C_23  and  S_10 
REMARK    5  A    between atoms: C_16  and  C_23 
REMARK    6  A    between atoms: O_25  and  C_16 
ROOT
ATOM      1  C   UNL d   1     -41.665-121.005 -53.678  0.00  0.00     0.045 A 
ATOM      2  C   UNL d   1     -41.366-120.507 -53.044  0.00  0.00     0.112 A 
ATOM      3  C   UNL d   1     -41.658-122.124 -52.779  0.00  0.00     0.057 A 
ATOM      4  C   UNL d   1     -41.804-121.804 -53.530  0.00  0.00     0.008 A 
ATOM      5  C   UNL d   1     -41.370-121.645 -52.169  0.00  0.00     0.085 A 
ATOM      6  N   UNL d   1     -41.225-120.841 -52.303  0.00  0.00    -0.239 NA
ATOM      7  C   UNL d   1     -41.803-122.924 -52.650  0.00  0.00     0.197 A 
ATOM      8  O   UNL d   1     -42.093-123.406 -53.264  0.00  0.00    -0.286 OA
ATOM      9  C   UNL d   1     -41.224-121.961 -51.424  0.00  0.00     0.019 A 
ATOM     10  C   UNL d   1     -41.663-123.259 -51.909  0.00  0.00     0.042 A 
ATOM     11  C   UNL d   1     -41.363-122.761 -51.275  0.00  0.00     0.005 A 
ENDROOT
BRANCH   4  12
ATOM     12  C   UNL d   1     -42.094-122.286 -54.143  0.00  0.00     0.002 A 
ATOM     13  C   UNL d   1     -42.782-122.082 -54.547  0.00  0.00     0.026 A 
ATOM     14  C   UNL d   1     -43.070-122.560 -55.156  0.00  0.00     0.119 A 
ATOM     15  O   UNL d   1     -43.736-122.500 -55.654  0.00  0.00    -0.300 OA
ATOM     16  C   UNL d   1     -42.671-123.246 -55.365  0.00  0.00     0.119 A 
ATOM     17  C   UNL d   1     -43.736-123.138 -56.152  0.00  0.00     0.304 A 
ATOM     18  O   UNL d   1     -43.091-123.596 -55.983  0.00  0.00    -0.300 OA
ATOM     19  C   UNL d   1     -41.943-123.469 -54.944  0.00  0.00     0.026 A 
ATOM     20  C   UNL d   1     -41.674-122.980 -54.342  0.00  0.00     0.002 A 
ENDBRANCH   4  12
BRANCH   1  21
ATOM     21  C   UNL d   1     -41.823-120.696 -54.459  0.00  0.00     0.124 C 
ATOM     22  N   UNL d   1     -41.409-120.048 -54.733  0.00  0.00    -0.146 N 
ENDBRANCH   1  21
BRANCH   2  23
ATOM     23  S   UNL d   1     -41.209-119.674 -53.158  0.00  0.00    -0.062 SA
BRANCH  23  24
ATOM     24  C   UNL d   1     -41.235-119.164 -52.520  0.00  0.00     0.105 C 
BRANCH  24  25
ATOM     25  C   UNL d   1     -41.168-118.352 -52.641  0.00  0.00     0.303 C 
ATOM     26  O   UNL d   1     -41.146-118.049 -53.405  0.00  0.00    -0.259 OA
BRANCH  25  27
ATOM     27  O   UNL d   1     -41.123-117.843 -51.998  0.00  0.00    -0.295 OA
ATOM     28  C   UNL d   1     -41.574-117.973 -51.319  0.00  0.00     0.185 C 
ENDBRANCH  25  27
ENDBRANCH  24  25
ENDBRANCH  23  24
ENDBRANCH   2  23
TORSDOF 6
ENDMDL
