MODEL 1
REMARK VINA RESULT:      10.6      0.000      0.000
REMARK  2 active torsions:
REMARK  status: ('A' for Active; 'I' for Inactive)
REMARK    1  A    between atoms: N_9  and  C_2 
REMARK    2  A    between atoms: C_11  and  N_9 
ROOT
ATOM      1  C   UNL d   1      14.022  11.888  -1.333  0.00  0.00     0.154 A 
ATOM      2  C   UNL d   1      14.052  11.873  -2.153  0.00  0.00     0.185 A 
ATOM      3  C   UNL d   1      14.714  11.982  -0.894  0.00  0.00     0.186 A 
ATOM      4  N   UNL d   1      13.391  11.823  -0.805  0.00  0.00    -0.218 NA
ATOM      5  N   UNL d   1      14.510  11.975  -0.096  0.00  0.00    -0.203 NA
ATOM      6  N   UNL d   1      14.777  11.953  -2.539  0.00  0.00    -0.203 NA
ATOM      7  N   UNL d   1      15.437  12.062  -1.276  0.00  0.00    -0.203 NA
ATOM      8  C   UNL d   1      13.701  11.878  -0.040  0.00  0.00     0.201 A 
ATOM      9  C   UNL d   1      15.469  12.048  -2.100  0.00  0.00     0.202 A 
ENDROOT
BRANCH   2  10
ATOM     10  N   UNL d   1      13.360  11.779  -2.591  0.00  0.00    -0.225 NA
BRANCH  10  11
ATOM     11  C   UNL d   1      13.257  12.191  -3.294  0.00  0.00     0.083 A 
ATOM     12  C   UNL d   1      13.197  13.014  -3.288  0.00  0.00     0.021 A 
ATOM     13  C   UNL d   1      13.094  13.425  -3.987  0.00  0.00     0.031 A 
ATOM     14  C   UNL d   1      13.050  13.015  -4.710  0.00  0.00     0.140 A 
ATOM     15  C   UNL d   1      13.110  12.192  -4.717  0.00  0.00     0.031 A 
ATOM     16  F   UNL d   1      12.946  13.426  -5.423  0.00  0.00    -0.204 F 
ATOM     17  C   UNL d   1      13.214  11.780  -4.009  0.00  0.00     0.021 A 
ENDBRANCH  10  11
ENDBRANCH   2  10
TORSDOF 2
ENDMDL
