MODEL 1
REMARK VINA RESULT:      -8.7      0.000      0.000
REMARK  7 active torsions:
REMARK  status: ('A' for Active; 'I' for Inactive)
REMARK    1  A    between atoms: N_6  and  C_1 
REMARK    2  A    between atoms: N_8  and  C_2 
REMARK    3  A    between atoms: N_10  and  C_7 
REMARK    4  A    between atoms: C_13  and  N_8 
REMARK    5  A    between atoms: C_14  and  N_10 
REMARK    6  A    between atoms: C_15  and  C_13 
REMARK    7  A    between atoms: C_16  and  C_14 
ROOT
ATOM      1  C   UNL d   1      53.165  33.912  54.044  0.00  0.00     0.201 A 
ATOM      2  C   UNL d   1      52.814  33.312  53.592  0.00  0.00     0.206 A 
ATOM      3  N   UNL d   1      52.174  33.495  53.104  0.00  0.00    -0.038 NA
ATOM      4  N   UNL d   1      52.236  34.859  53.515  0.00  0.00    -0.036 NA
ATOM      5  C   UNL d   1      52.876  34.684  54.006  0.00  0.00     0.227 A 
ATOM      6  C   UNL d   1      51.885  34.267  53.066  0.00  0.00     0.753 A 
ATOM      7  N   UNL d   1      53.240  35.282  54.468  0.00  0.00    -0.125 N 
ENDROOT
BRANCH   2   8
ATOM      8  N   UNL d   1      53.110  32.521  53.631  0.00  0.00    -0.223 NA
BRANCH   8   9
ATOM      9  C   UNL d   1      52.883  31.970  53.066  0.00  0.00     0.101 C 
BRANCH   9  10
ATOM     10  C   UNL d   1      52.982  31.164  53.213  0.00  0.00     0.019 A 
ATOM     11  C   UNL d   1      52.322  30.674  53.275  0.00  0.00     0.002 A 
ATOM     12  C   UNL d   1      52.421  29.864  53.423  0.00  0.00     0.000 A 
ATOM     13  C   UNL d   1      53.179  29.552  53.508  0.00  0.00     0.000 A 
ATOM     14  C   UNL d   1      53.836  30.042  53.445  0.00  0.00     0.000 A 
ATOM     15  C   UNL d   1      53.737  30.851  53.297  0.00  0.00     0.002 A 
ENDBRANCH   9  10
ENDBRANCH   8   9
ENDBRANCH   2   8
BRANCH   1  16
ATOM     16  N   UNL d   1      53.824  33.719  54.545  0.00  0.00    -0.107 N 
ATOM     17  O   UNL d   1      53.681  33.484  55.321  0.00  0.00    -0.531 OA
ATOM     18  O   UNL d   1      54.601  33.767  54.259  0.00  0.00    -0.531 OA
ENDBRANCH   1  16
BRANCH   6  19
ATOM     19  N   UNL d   1      51.245  34.442  52.576  0.00  0.00    -0.058 NA
BRANCH  19  20
ATOM     20  C   UNL d   1      50.475  34.253  52.819  0.00  0.00     0.118 C 
BRANCH  20  21
ATOM     21  C   UNL d   1      49.831  34.504  52.370  0.00  0.00     0.020 A 
ATOM     22  C   UNL d   1      49.750  34.259  51.593  0.00  0.00     0.002 A 
ATOM     23  C   UNL d   1      49.106  34.511  51.145  0.00  0.00     0.000 A 
ATOM     24  C   UNL d   1      48.542  35.010  51.481  0.00  0.00     0.000 A 
ATOM     25  C   UNL d   1      48.625  35.255  52.264  0.00  0.00     0.000 A 
ATOM     26  C   UNL d   1      49.266  35.004  52.706  0.00  0.00     0.002 A 
ENDBRANCH  20  21
ENDBRANCH  19  20
ENDBRANCH   6  19
TORSDOF 7
ENDMDL
MODEL 2
REMARK VINA RESULT:      -8.6      0.990      4.396
REMARK  7 active torsions:
REMARK  status: ('A' for Active; 'I' for Inactive)
REMARK    1  A    between atoms: N_6  and  C_1 
REMARK    2  A    between atoms: N_8  and  C_2 
REMARK    3  A    between atoms: N_10  and  C_7 
REMARK    4  A    between atoms: C_13  and  N_8 
REMARK    5  A    between atoms: C_14  and  N_10 
REMARK    6  A    between atoms: C_15  and  C_13 
REMARK    7  A    between atoms: C_16  and  C_14 
ROOT
ATOM      1  C   UNL d   1      53.387  34.275  54.449  0.00  0.00     0.201 A 
ATOM      2  C   UNL d   1      52.814  33.806  54.074  0.00  0.00     0.206 A 
ATOM      3  N   UNL d   1      52.903  32.986  54.071  0.00  0.00    -0.038 NA
ATOM      4  N   UNL d   1      54.120  33.102  54.806  0.00  0.00    -0.036 NA
ATOM      5  C   UNL d   1      54.038  33.924  54.814  0.00  0.00     0.227 A 
ATOM      6  C   UNL d   1      53.554  32.634  54.436  0.00  0.00     0.753 A 
ATOM      7  N   UNL d   1      54.610  34.409  55.189  0.00  0.00    -0.125 N 
ENDROOT
BRANCH   2   8
ATOM      8  N   UNL d   1      52.147  34.166  53.700  0.00  0.00    -0.223 NA
BRANCH   8   9
ATOM      9  C   UNL d   1      51.538  33.698  53.410  0.00  0.00     0.101 C 
BRANCH   9  10
ATOM     10  C   UNL d   1      50.954  34.032  52.933  0.00  0.00     0.019 A 
ATOM     11  C   UNL d   1      51.028  34.006  52.112  0.00  0.00     0.002 A 
ATOM     12  C   UNL d   1      50.441  34.342  51.633  0.00  0.00     0.000 A 
ATOM     13  C   UNL d   1      49.784  34.700  51.978  0.00  0.00     0.000 A 
ATOM     14  C   UNL d   1      49.711  34.726  52.797  0.00  0.00     0.000 A 
ATOM     15  C   UNL d   1      50.298  34.390  53.276  0.00  0.00     0.002 A 
ENDBRANCH   9  10
ENDBRANCH   8   9
ENDBRANCH   2   8
BRANCH   1  16
ATOM     16  N   UNL d   1      53.292  35.120  54.450  0.00  0.00    -0.107 N 
ATOM     17  O   UNL d   1      52.915  35.478  55.088  0.00  0.00    -0.531 OA
ATOM     18  O   UNL d   1      53.573  35.578  53.819  0.00  0.00    -0.531 OA
ENDBRANCH   1  16
BRANCH   6  19
ATOM     19  N   UNL d   1      53.636  31.814  54.428  0.00  0.00    -0.058 NA
BRANCH  19  20
ATOM     20  C   UNL d   1      53.712  31.413  53.707  0.00  0.00     0.118 C 
BRANCH  20  21
ATOM     21  C   UNL d   1      53.446  30.634  53.640  0.00  0.00     0.020 A 
ATOM     22  C   UNL d   1      53.626  30.088  54.222  0.00  0.00     0.002 A 
ATOM     23  C   UNL d   1      53.360  29.311  54.155  0.00  0.00     0.000 A 
ATOM     24  C   UNL d   1      52.912  29.085  53.500  0.00  0.00     0.000 A 
ATOM     25  C   UNL d   1      52.732  29.638  52.915  0.00  0.00     0.000 A 
ATOM     26  C   UNL d   1      52.998  30.409  52.985  0.00  0.00     0.002 A 
ENDBRANCH  20  21
ENDBRANCH  19  20
ENDBRANCH   6  19
TORSDOF 7
ENDMDL
MODEL 3
REMARK VINA RESULT:      -6.4      1.783      3.094
REMARK  7 active torsions:
REMARK  status: ('A' for Active; 'I' for Inactive)
REMARK    1  A    between atoms: N_6  and  C_1 
REMARK    2  A    between atoms: N_8  and  C_2 
REMARK    3  A    between atoms: N_10  and  C_7 
REMARK    4  A    between atoms: C_13  and  N_8 
REMARK    5  A    between atoms: C_14  and  N_10 
REMARK    6  A    between atoms: C_15  and  C_13 
REMARK    7  A    between atoms: C_16  and  C_14 
ROOT
ATOM      1  C   UNL d   1      53.191  31.085  53.357  0.00  0.00     0.201 A 
ATOM      2  C   UNL d   1      53.329  31.893  53.480  0.00  0.00     0.206 A 
ATOM      3  N   UNL d   1      52.805  32.445  53.159  0.00  0.00    -0.038 NA
ATOM      4  N   UNL d   1      52.019  31.394  52.601  0.00  0.00    -0.036 NA
ATOM      5  C   UNL d   1      52.538  30.836  52.919  0.00  0.00     0.227 A 
ATOM      6  C   UNL d   1      52.152  32.196  52.721  0.00  0.00     0.753 A 
ATOM      7  N   UNL d   1      52.411  30.015  52.802  0.00  0.00    -0.125 N 
ENDROOT
BRANCH   2   8
ATOM      8  N   UNL d   1      53.998  32.148  53.929  0.00  0.00    -0.223 NA
BRANCH   8   9
ATOM      9  C   UNL d   1      54.285  32.912  53.838  0.00  0.00     0.101 C 
BRANCH   9  10
ATOM     10  C   UNL d   1      54.693  33.275  54.456  0.00  0.00     0.019 A 
ATOM     11  C   UNL d   1      55.420  33.637  54.313  0.00  0.00     0.002 A 
ATOM     12  C   UNL d   1      55.830  34.001  54.935  0.00  0.00     0.000 A 
ATOM     13  C   UNL d   1      55.508  34.002  55.695  0.00  0.00     0.000 A 
ATOM     14  C   UNL d   1      54.783  33.642  55.836  0.00  0.00     0.000 A 
ATOM     15  C   UNL d   1      54.373  33.277  55.214  0.00  0.00     0.002 A 
ENDBRANCH   9  10
ENDBRANCH   8   9
ENDBRANCH   2   8
BRANCH   1  16
ATOM     16  N   UNL d   1      53.733  30.519  53.689  0.00  0.00    -0.107 N 
ATOM     17  O   UNL d   1      53.568  30.194  54.427  0.00  0.00    -0.531 OA
ATOM     18  O   UNL d   1      54.417  30.297  53.277  0.00  0.00    -0.531 OA
ENDBRANCH   1  16
BRANCH   6  19
ATOM     19  N   UNL d   1      51.633  32.753  52.404  0.00  0.00    -0.058 NA
BRANCH  19  20
ATOM     20  C   UNL d   1      51.416  33.417  52.851  0.00  0.00     0.118 C 
BRANCH  20  21
ATOM     21  C   UNL d   1      50.782  33.885  52.608  0.00  0.00     0.020 A 
ATOM     22  C   UNL d   1      50.603  33.954  51.812  0.00  0.00     0.002 A 
ATOM     23  C   UNL d   1      49.969  34.422  51.570  0.00  0.00     0.000 A 
ATOM     24  C   UNL d   1      49.515  34.820  52.132  0.00  0.00     0.000 A 
ATOM     25  C   UNL d   1      49.697  34.749  52.933  0.00  0.00     0.000 A 
ATOM     26  C   UNL d   1      50.328  34.284  53.170  0.00  0.00     0.002 A 
ENDBRANCH  20  21
ENDBRANCH  19  20
ENDBRANCH   6  19
TORSDOF 7
ENDMDL
