MODEL 1
REMARK VINA RESULT:      -3.5      0.000      0.000
REMARK  1 active torsions:
REMARK  status: ('A' for Active; 'I' for Inactive)
REMARK    1  A    between atoms: C_7  and  N_2 
ROOT
ATOM      1  C   UNL d   1     -43.207-123.457 -49.415  0.00  0.00     0.304 A 
ATOM      2  N   UNL d   1     -42.399-123.233 -49.499  0.00  0.00    -0.272 N 
ATOM      3  C   UNL d   1     -43.361-123.593 -48.598  0.00  0.00     0.253 A 
ATOM      4  C   UNL d   1     -42.058-123.228 -48.765  0.00  0.00     0.070 A 
ATOM      5  C   UNL d   1     -42.639-123.445 -48.221  0.00  0.00     0.060 A 
ATOM      6  O   UNL d   1     -43.775-123.534 -50.052  0.00  0.00    -0.263 OA
ATOM      7  O   UNL d   1     -44.044-123.817 -48.224  0.00  0.00    -0.281 OA
ATOM      8  C   UNL d   1     -41.356-123.070 -48.517  0.00  0.00     0.018 A 
ATOM      9  C   UNL d   1     -42.478-123.490 -47.466  0.00  0.00     0.005 A 
ATOM     10  C   UNL d   1     -41.123-123.101 -47.717  0.00  0.00     0.002 A 
ATOM     11  C   UNL d   1     -41.703-123.318 -47.172  0.00  0.00     0.000 A 
ENDROOT
BRANCH   2  12
ATOM     12  C   UNL d   1     -41.987-123.045 -50.174  0.00  0.00     0.067 A 
ATOM     13  C   UNL d   1     -41.955-122.277 -50.449  0.00  0.00     0.018 A 
ATOM     14  C   UNL d   1     -41.532-122.096 -51.137  0.00  0.00     0.002 A 
ATOM     15  C   UNL d   1     -41.148-122.690 -51.539  0.00  0.00     0.000 A 
ATOM     16  C   UNL d   1     -41.177-123.473 -51.263  0.00  0.00     0.002 A 
ATOM     17  C   UNL d   1     -41.597-123.651 -50.580  0.00  0.00     0.018 A 
ENDBRANCH   2  12
TORSDOF 1
ENDMDL
MODEL 2
REMARK VINA RESULT:      -1.6      2.915      5.054
REMARK  1 active torsions:
REMARK  status: ('A' for Active; 'I' for Inactive)
REMARK    1  A    between atoms: C_7  and  N_2 
ROOT
ATOM      1  C   UNL d   1     -42.189-121.496 -53.547  0.00  0.00     0.304 A 
ATOM      2  N   UNL d   1     -41.847-122.180 -53.194  0.00  0.00    -0.272 N 
ATOM      3  C   UNL d   1     -42.177-121.595 -54.383  0.00  0.00     0.253 A 
ATOM      4  C   UNL d   1     -41.629-122.689 -53.784  0.00  0.00     0.070 A 
ATOM      5  C   UNL d   1     -41.828-122.336 -54.502  0.00  0.00     0.060 A 
ATOM      6  O   UNL d   1     -42.496-120.815 -53.127  0.00  0.00    -0.263 OA
ATOM      7  O   UNL d   1     -42.437-121.103 -54.973  0.00  0.00    -0.281 OA
ATOM      8  C   UNL d   1     -41.301-123.376 -53.785  0.00  0.00     0.018 A 
ATOM      9  C   UNL d   1     -41.686-122.693 -55.173  0.00  0.00     0.005 A 
ATOM     10  C   UNL d   1     -41.123-123.810 -54.475  0.00  0.00     0.002 A 
ATOM     11  C   UNL d   1     -41.322-123.457 -55.193  0.00  0.00     0.000 A 
ENDROOT
BRANCH   2  12
ATOM     12  C   UNL d   1     -41.734-122.348 -52.407  0.00  0.00     0.067 A 
ATOM     13  C   UNL d   1     -42.077-123.003 -52.061  0.00  0.00     0.018 A 
ATOM     14  C   UNL d   1     -41.955-123.166 -51.259  0.00  0.00     0.002 A 
ATOM     15  C   UNL d   1     -41.490-122.668 -50.816  0.00  0.00     0.000 A 
ATOM     16  C   UNL d   1     -41.138-122.000 -51.162  0.00  0.00     0.002 A 
ATOM     17  C   UNL d   1     -41.260-121.840 -51.958  0.00  0.00     0.018 A 
ENDBRANCH   2  12
TORSDOF 1
ENDMDL
MODEL 3
REMARK VINA RESULT:      -1.6      2.321      3.463
REMARK  1 active torsions:
REMARK  status: ('A' for Active; 'I' for Inactive)
REMARK    1  A    between atoms: C_7  and  N_2 
ROOT
ATOM      1  C   UNL d   1     -41.348-121.291 -52.121  0.00  0.00     0.304 A 
ATOM      2  N   UNL d   1     -41.580-122.071 -52.338  0.00  0.00    -0.272 N 
ATOM      3  C   UNL d   1     -41.373-121.231 -51.282  0.00  0.00     0.253 A 
ATOM      4  C   UNL d   1     -41.744-122.486 -51.663  0.00  0.00     0.070 A 
ATOM      5  C   UNL d   1     -41.619-121.978 -51.025  0.00  0.00     0.060 A 
ATOM      6  O   UNL d   1     -41.125-120.665 -52.663  0.00  0.00    -0.263 OA
ATOM      7  O   UNL d   1     -41.203-120.605 -50.796  0.00  0.00    -0.281 OA
ATOM      8  C   UNL d   1     -41.974-123.199 -51.531  0.00  0.00     0.018 A 
ATOM      9  C   UNL d   1     -41.732-122.219 -50.298  0.00  0.00     0.005 A 
ATOM     10  C   UNL d   1     -42.112-123.516 -50.772  0.00  0.00     0.002 A 
ATOM     11  C   UNL d   1     -41.986-123.009 -50.133  0.00  0.00     0.000 A 
ENDROOT
BRANCH   2  12
ATOM     12  C   UNL d   1     -41.644-122.400 -53.079  0.00  0.00     0.067 A 
ATOM     13  C   UNL d   1     -42.184-122.116 -53.622  0.00  0.00     0.018 A 
ATOM     14  C   UNL d   1     -42.241-122.457 -54.373  0.00  0.00     0.002 A 
ATOM     15  C   UNL d   1     -41.756-123.080 -54.568  0.00  0.00     0.000 A 
ATOM     16  C   UNL d   1     -41.205-123.373 -54.020  0.00  0.00     0.002 A 
ATOM     17  C   UNL d   1     -41.149-123.033 -53.275  0.00  0.00     0.018 A 
ENDBRANCH   2  12
TORSDOF 1
ENDMDL
MODEL 4
REMARK VINA RESULT:      -1.4      0.902      2.955
REMARK  1 active torsions:
REMARK  status: ('A' for Active; 'I' for Inactive)
REMARK    1  A    between atoms: C_7  and  N_2 
ROOT
ATOM      1  C   UNL d   1     -43.091-122.275 -49.675  0.00  0.00     0.304 A 
ATOM      2  N   UNL d   1     -42.539-122.836 -49.377  0.00  0.00    -0.272 N 
ATOM      3  C   UNL d   1     -42.970-122.199 -50.506  0.00  0.00     0.253 A 
ATOM      4  C   UNL d   1     -42.088-123.102 -49.994  0.00  0.00     0.070 A 
ATOM      5  C   UNL d   1     -42.348-122.717 -50.676  0.00  0.00     0.060 A 
ATOM      6  O   UNL d   1     -43.677-121.854 -49.213  0.00  0.00    -0.263 OA
ATOM      7  O   UNL d   1     -43.352-121.735 -51.050  0.00  0.00    -0.281 OA
ATOM      8  C   UNL d   1     -41.516-123.603 -50.045  0.00  0.00     0.018 A 
ATOM      9  C   UNL d   1     -42.020-122.859 -51.362  0.00  0.00     0.005 A 
ATOM     10  C   UNL d   1     -41.123-123.796 -50.755  0.00  0.00     0.002 A 
ATOM     11  C   UNL d   1     -41.384-123.411 -51.437  0.00  0.00     0.000 A 
ENDROOT
BRANCH   2  12
ATOM     12  C   UNL d   1     -42.435-123.099 -48.615  0.00  0.00     0.067 A 
ATOM     13  C   UNL d   1     -41.754-122.928 -48.198  0.00  0.00     0.018 A 
ATOM     14  C   UNL d   1     -41.658-123.200 -47.423  0.00  0.00     0.002 A 
ATOM     15  C   UNL d   1     -42.248-123.640 -47.077  0.00  0.00     0.000 A 
ATOM     16  C   UNL d   1     -42.942-123.817 -47.496  0.00  0.00     0.002 A 
ATOM     17  C   UNL d   1     -43.036-123.546 -48.266  0.00  0.00     0.018 A 
ENDBRANCH   2  12
TORSDOF 1
ENDMDL
