MODEL 1
REMARK VINA RESULT:      19.9      0.000      0.000
REMARK  3 active torsions:
REMARK  status: ('A' for Active; 'I' for Inactive)
REMARK    1  A    between atoms: C_2  and  C_1 
REMARK       I    between atoms: N_7  and  C_2 
REMARK    2  A    between atoms: C_9  and  N_7 
REMARK    3  A    between atoms: O_13  and  C_11 
ROOT
ATOM      1  C   UNL d   1      44.314 -14.161  44.656  0.00  0.00     0.280 C 
ATOM      2  N   UNL d   1      44.156 -13.456  44.265  0.00  0.00    -0.208 NA
ATOM      3  O   UNL d   1      43.696 -14.616  44.949  0.00  0.00    -0.265 OA
ENDROOT
BRANCH   1   4
ATOM      4  C   UNL d   1      45.095 -14.413  44.754  0.00  0.00     0.065 A 
ATOM      5  C   UNL d   1      45.357 -15.190  44.770  0.00  0.00     0.011 A 
ATOM      6  C   UNL d   1      46.176 -15.193  44.879  0.00  0.00     0.030 A 
ATOM      7  C   UNL d   1      44.947 -15.902  44.697  0.00  0.00     0.001 A 
ATOM      8  C   UNL d   1      46.585 -15.906  44.916  0.00  0.00     0.006 A 
ATOM      9  S   UNL d   1      46.436 -14.404  44.933  0.00  0.00    -0.086 SA
ATOM     10  C   UNL d   1      46.176 -16.619  44.844  0.00  0.00     0.001 A 
ATOM     11  C   UNL d   1      45.358 -16.617  44.735  0.00  0.00     0.000 A 
ATOM     12  C   UNL d   1      45.774 -13.914  44.857  0.00  0.00     0.040 A 
ENDBRANCH   1   4
BRANCH   2  13
ATOM     13  C   UNL d   1      44.782 -12.994  43.966  0.00  0.00     0.087 A 
ATOM     14  C   UNL d   1      44.929 -12.989  43.156  0.00  0.00     0.043 A 
ATOM     15  C   UNL d   1      45.553 -12.528  42.861  0.00  0.00     0.096 A 
ATOM     16  C   UNL d   1      46.019 -12.080  43.379  0.00  0.00     0.024 A 
ATOM     17  C   UNL d   1      45.860 -12.094  44.192  0.00  0.00     0.004 A 
ATOM     18  C   UNL d   1      45.243 -12.550  44.486  0.00  0.00     0.019 A 
BRANCH  15  19
ATOM     19  O   UNL d   1      45.700 -12.523  42.052  0.00  0.00    -0.328 OA
ATOM     20  C   UNL d   1      45.191 -12.125  41.538  0.00  0.00     0.181 C 
ENDBRANCH  15  19
ENDBRANCH   2  13
TORSDOF 3
ENDMDL
MODEL 2
REMARK VINA RESULT:      21.0      1.147      3.333
REMARK  3 active torsions:
REMARK  status: ('A' for Active; 'I' for Inactive)
REMARK    1  A    between atoms: C_2  and  C_1 
REMARK       I    between atoms: N_7  and  C_2 
REMARK    2  A    between atoms: C_9  and  N_7 
REMARK    3  A    between atoms: O_13  and  C_11 
ROOT
ATOM      1  C   UNL d   1      44.350 -14.296  44.780  0.00  0.00     0.280 C 
ATOM      2  N   UNL d   1      44.445 -15.111  44.817  0.00  0.00    -0.208 NA
ATOM      3  O   UNL d   1      43.622 -13.958  44.955  0.00  0.00    -0.265 OA
ENDROOT
BRANCH   1   4
ATOM      4  C   UNL d   1      44.988 -13.815  44.567  0.00  0.00     0.065 A 
ATOM      5  C   UNL d   1      45.002 -13.267  43.956  0.00  0.00     0.011 A 
ATOM      6  C   UNL d   1      45.745 -12.909  43.937  0.00  0.00     0.030 A 
ATOM      7  C   UNL d   1      44.423 -13.050  43.410  0.00  0.00     0.001 A 
ATOM      8  C   UNL d   1      45.912 -12.332  43.372  0.00  0.00     0.006 A 
ATOM      9  S   UNL d   1      46.210 -13.234  44.546  0.00  0.00    -0.086 SA
ATOM     10  C   UNL d   1      45.334 -12.114  42.826  0.00  0.00     0.001 A 
ATOM     11  C   UNL d   1      44.590 -12.472  42.845  0.00  0.00     0.000 A 
ATOM     12  C   UNL d   1      45.749 -13.797  44.942  0.00  0.00     0.040 A 
ENDBRANCH   1   4
BRANCH   2  13
ATOM     13  C   UNL d   1      45.183 -15.454  44.640  0.00  0.00     0.087 A 
ATOM     14  C   UNL d   1      45.213 -16.117  44.152  0.00  0.00     0.043 A 
ATOM     15  C   UNL d   1      45.950 -16.457  43.977  0.00  0.00     0.096 A 
ATOM     16  C   UNL d   1      46.643 -16.131  44.291  0.00  0.00     0.024 A 
ATOM     17  C   UNL d   1      46.599 -15.464  44.780  0.00  0.00     0.004 A 
ATOM     18  C   UNL d   1      45.871 -15.125  44.955  0.00  0.00     0.019 A 
BRANCH  15  19
ATOM     19  O   UNL d   1      45.980 -17.119  43.489  0.00  0.00    -0.328 OA
ATOM     20  C   UNL d   1      46.186 -17.856  43.800  0.00  0.00     0.181 C 
ENDBRANCH  15  19
ENDBRANCH   2  13
TORSDOF 3
ENDMDL
