MODEL 1
REMARK VINA RESULT:      -6.4      0.000      0.000
REMARK  6 active torsions:
REMARK  status: ('A' for Active; 'I' for Inactive)
REMARK       I    between atoms: C_2  and  N_1 
REMARK    1  A    between atoms: C_5  and  N_1 
REMARK    2  A    between atoms: C_4  and  C_2 
REMARK    3  A    between atoms: C_3  and  C_6 
REMARK    4  A    between atoms: C_6  and  C_4 
REMARK    5  A    between atoms: O_11  and  C_7 
REMARK    6  A    between atoms: C_14  and  O_11 
ROOT
ATOM      1  C   UNL d   1     -49.307  14.268  22.982  0.00  0.00     0.107 A 
ATOM      2  C   UNL d   1     -49.974  13.912  23.326  0.00  0.00     0.118 A 
ATOM      3  C   UNL d   1     -49.289  15.055  22.845  0.00  0.00     0.021 A 
ATOM      4  C   UNL d   1     -50.623  14.379  23.527  0.00  0.00     0.026 A 
ATOM      5  C   UNL d   1     -49.933  15.540  23.042  0.00  0.00     0.002 A 
ATOM      6  C   UNL d   1     -50.592  15.214  23.377  0.00  0.00     0.002 A 
ENDROOT
BRANCH   1   7
ATOM      7  N   UNL d   1     -48.652  13.799  22.779  0.00  0.00    -0.206 NA
ATOM      8  C   UNL d   1     -47.895  14.119  22.764  0.00  0.00     0.280 C 
ATOM      9  O   UNL d   1     -47.781  14.893  22.947  0.00  0.00    -0.265 OA
BRANCH   8  10
ATOM     10  C   UNL d   1     -47.232  13.640  22.557  0.00  0.00     0.068 C 
BRANCH  10  11
ATOM     11  C   UNL d   1     -46.520  13.728  22.957  0.00  0.00     0.069 C 
BRANCH  11  12
ATOM     12  C   UNL d   1     -45.917  13.202  22.815  0.00  0.00     0.297 C 
ATOM     13  O   UNL d   1     -45.813  12.559  23.321  0.00  0.00    -0.264 OA
ATOM     14  N   UNL d   1     -45.405  13.292  22.178  0.00  0.00    -0.102 N 
ENDBRANCH  11  12
ENDBRANCH  10  11
ENDBRANCH   8  10
ENDBRANCH   1   7
BRANCH   2  15
ATOM     15  O   UNL d   1     -49.998  13.090  23.471  0.00  0.00    -0.304 OA
BRANCH  15  16
ATOM     16  C   UNL d   1     -50.714  12.725  23.697  0.00  0.00     0.123 C 
ATOM     17  C   UNL d   1     -50.745  11.894  23.694  0.00  0.00     0.029 C 
ENDBRANCH  15  16
ENDBRANCH   2  15
TORSDOF 6
ENDMDL
MODEL 2
REMARK VINA RESULT:      -6.2      1.549      3.700
REMARK  6 active torsions:
REMARK  status: ('A' for Active; 'I' for Inactive)
REMARK       I    between atoms: C_2  and  N_1 
REMARK    1  A    between atoms: C_5  and  N_1 
REMARK    2  A    between atoms: C_4  and  C_2 
REMARK    3  A    between atoms: C_3  and  C_6 
REMARK    4  A    between atoms: C_6  and  C_4 
REMARK    5  A    between atoms: O_11  and  C_7 
REMARK    6  A    between atoms: C_14  and  O_11 
ROOT
ATOM      1  C   UNL d   1     -47.367  13.787  22.993  0.00  0.00     0.107 A 
ATOM      2  C   UNL d   1     -47.070  13.023  23.120  0.00  0.00     0.118 A 
ATOM      3  C   UNL d   1     -46.904  14.360  22.681  0.00  0.00     0.021 A 
ATOM      4  C   UNL d   1     -46.287  12.854  22.920  0.00  0.00     0.026 A 
ATOM      5  C   UNL d   1     -46.115  14.208  22.475  0.00  0.00     0.002 A 
ATOM      6  C   UNL d   1     -45.805  13.470  22.590  0.00  0.00     0.002 A 
ENDROOT
BRANCH   1   7
ATOM      7  N   UNL d   1     -48.155  13.958  23.193  0.00  0.00    -0.206 NA
ATOM      8  C   UNL d   1     -48.511  14.655  22.938  0.00  0.00     0.280 C 
ATOM      9  O   UNL d   1     -48.097  15.179  22.491  0.00  0.00    -0.265 OA
BRANCH   8  10
ATOM     10  C   UNL d   1     -49.311  14.826  23.143  0.00  0.00     0.068 C 
BRANCH  10  11
ATOM     11  C   UNL d   1     -49.732  15.392  22.722  0.00  0.00     0.069 C 
BRANCH  11  12
ATOM     12  C   UNL d   1     -50.543  15.399  22.769  0.00  0.00     0.297 C 
ATOM     13  O   UNL d   1     -50.989  15.170  22.114  0.00  0.00    -0.264 OA
ATOM     14  N   UNL d   1     -50.936  15.630  23.453  0.00  0.00    -0.102 N 
ENDBRANCH  11  12
ENDBRANCH  10  11
ENDBRANCH   8  10
ENDBRANCH   1   7
BRANCH   2  15
ATOM     15  O   UNL d   1     -47.549  12.422  23.445  0.00  0.00    -0.304 OA
BRANCH  15  16
ATOM     16  C   UNL d   1     -47.284  11.630  23.450  0.00  0.00     0.123 C 
ATOM     17  C   UNL d   1     -47.817  11.042  23.698  0.00  0.00     0.029 C 
ENDBRANCH  15  16
ENDBRANCH   2  15
TORSDOF 6
ENDMDL
MODEL 3
REMARK VINA RESULT:      -6.2      1.054      1.151
REMARK  6 active torsions:
REMARK  status: ('A' for Active; 'I' for Inactive)
REMARK       I    between atoms: C_2  and  N_1 
REMARK    1  A    between atoms: C_5  and  N_1 
REMARK    2  A    between atoms: C_4  and  C_2 
REMARK    3  A    between atoms: C_3  and  C_6 
REMARK    4  A    between atoms: C_6  and  C_4 
REMARK    5  A    between atoms: O_11  and  C_7 
REMARK    6  A    between atoms: C_14  and  O_11 
ROOT
ATOM      1  C   UNL d   1     -48.704  13.992  22.607  0.00  0.00     0.107 A 
ATOM      2  C   UNL d   1     -49.499  13.845  22.793  0.00  0.00     0.118 A 
ATOM      3  C   UNL d   1     -48.449  14.736  22.463  0.00  0.00     0.021 A 
ATOM      4  C   UNL d   1     -50.031  14.475  22.827  0.00  0.00     0.026 A 
ATOM      5  C   UNL d   1     -48.969  15.382  22.494  0.00  0.00     0.002 A 
ATOM      6  C   UNL d   1     -49.748  15.261  22.672  0.00  0.00     0.002 A 
ENDROOT
BRANCH   1   7
ATOM      7  N   UNL d   1     -48.168  13.359  22.572  0.00  0.00    -0.206 NA
ATOM      8  C   UNL d   1     -47.402  13.439  22.863  0.00  0.00     0.280 C 
ATOM      9  O   UNL d   1     -47.165  14.136  23.187  0.00  0.00    -0.265 OA
BRANCH   8  10
ATOM     10  C   UNL d   1     -46.861  12.794  22.826  0.00  0.00     0.068 C 
BRANCH  10  11
ATOM     11  C   UNL d   1     -46.507  12.513  23.512  0.00  0.00     0.069 C 
BRANCH  11  12
ATOM     12  C   UNL d   1     -46.087  11.818  23.486  0.00  0.00     0.297 C 
ATOM     13  O   UNL d   1     -45.298  11.830  23.245  0.00  0.00    -0.264 OA
ATOM     14  N   UNL d   1     -46.426  11.099  23.694  0.00  0.00    -0.102 N 
ENDBRANCH  11  12
ENDBRANCH  10  11
ENDBRANCH   8  10
ENDBRANCH   1   7
BRANCH   2  15
ATOM     15  O   UNL d   1     -49.771  13.070  22.944  0.00  0.00    -0.304 OA
BRANCH  15  16
ATOM     16  C   UNL d   1     -50.578  12.933  23.107  0.00  0.00     0.123 C 
ATOM     17  C   UNL d   1     -50.790  12.197  23.430  0.00  0.00     0.029 C 
ENDBRANCH  15  16
ENDBRANCH   2  15
TORSDOF 6
ENDMDL
MODEL 4
REMARK VINA RESULT:      -6.1      1.021      1.986
REMARK  6 active torsions:
REMARK  status: ('A' for Active; 'I' for Inactive)
REMARK       I    between atoms: C_2  and  N_1 
REMARK    1  A    between atoms: C_5  and  N_1 
REMARK    2  A    between atoms: C_4  and  C_2 
REMARK    3  A    between atoms: C_3  and  C_6 
REMARK    4  A    between atoms: C_6  and  C_4 
REMARK    5  A    between atoms: O_11  and  C_7 
REMARK    6  A    between atoms: C_14  and  O_11 
ROOT
ATOM      1  C   UNL d   1     -49.621  13.000  23.248  0.00  0.00     0.107 A 
ATOM      2  C   UNL d   1     -50.280  13.446  23.486  0.00  0.00     0.118 A 
ATOM      3  C   UNL d   1     -49.655  12.201  23.223  0.00  0.00     0.021 A 
ATOM      4  C   UNL d   1     -50.976  13.058  23.698  0.00  0.00     0.026 A 
ATOM      5  C   UNL d   1     -50.347  11.795  23.433  0.00  0.00     0.002 A 
ATOM      6  C   UNL d   1     -51.001  12.209  23.668  0.00  0.00     0.002 A 
ENDROOT
BRANCH   1   7
ATOM      7  N   UNL d   1     -48.919  13.389  23.034  0.00  0.00    -0.206 NA
ATOM      8  C   UNL d   1     -48.191  13.013  23.108  0.00  0.00     0.280 C 
ATOM      9  O   UNL d   1     -48.152  12.262  23.390  0.00  0.00    -0.265 OA
BRANCH   8  10
ATOM     10  C   UNL d   1     -47.481  13.411  22.890  0.00  0.00     0.068 C 
BRANCH  10  11
ATOM     11  C   UNL d   1     -46.756  13.034  22.972  0.00  0.00     0.069 C 
BRANCH  11  12
ATOM     12  C   UNL d   1     -46.073  13.446  22.814  0.00  0.00     0.297 C 
ATOM     13  O   UNL d   1     -45.828  14.039  23.332  0.00  0.00    -0.264 OA
ATOM     14  N   UNL d   1     -45.617  13.289  22.148  0.00  0.00    -0.102 N 
ENDBRANCH  11  12
ENDBRANCH  10  11
ENDBRANCH   8  10
ENDBRANCH   1   7
BRANCH   2  15
ATOM     15  O   UNL d   1     -50.250  14.279  23.513  0.00  0.00    -0.304 OA
BRANCH  15  16
ATOM     16  C   UNL d   1     -50.944  14.720  23.661  0.00  0.00     0.123 C 
ATOM     17  C   UNL d   1     -50.886  15.549  23.661  0.00  0.00     0.029 C 
ENDBRANCH  15  16
ENDBRANCH   2  15
TORSDOF 6
ENDMDL
MODEL 5
REMARK VINA RESULT:      -5.6      1.547      4.072
REMARK  6 active torsions:
REMARK  status: ('A' for Active; 'I' for Inactive)
REMARK       I    between atoms: C_2  and  N_1 
REMARK    1  A    between atoms: C_5  and  N_1 
REMARK    2  A    between atoms: C_4  and  C_2 
REMARK    3  A    between atoms: C_3  and  C_6 
REMARK    4  A    between atoms: C_6  and  C_4 
REMARK    5  A    between atoms: O_11  and  C_7 
REMARK    6  A    between atoms: C_14  and  O_11 
ROOT
ATOM      1  C   UNL d   1     -47.825  12.673  23.210  0.00  0.00     0.107 A 
ATOM      2  C   UNL d   1     -47.003  12.583  23.141  0.00  0.00     0.118 A 
ATOM      3  C   UNL d   1     -48.281  12.074  23.480  0.00  0.00     0.021 A 
ATOM      4  C   UNL d   1     -46.655  11.866  23.353  0.00  0.00     0.026 A 
ATOM      5  C   UNL d   1     -47.947  11.346  23.698  0.00  0.00     0.002 A 
ATOM      6  C   UNL d   1     -47.148  11.237  23.638  0.00  0.00     0.002 A 
ENDROOT
BRANCH   1   7
ATOM      7  N   UNL d   1     -48.177  13.395  22.997  0.00  0.00    -0.206 NA
ATOM      8  C   UNL d   1     -48.990  13.447  22.880  0.00  0.00     0.280 C 
ATOM      9  O   UNL d   1     -49.453  12.796  22.970  0.00  0.00    -0.265 OA
BRANCH   8  10
ATOM     10  C   UNL d   1     -49.344  14.181  22.663  0.00  0.00     0.068 C 
BRANCH  10  11
ATOM     11  C   UNL d   1     -49.947  14.498  23.123  0.00  0.00     0.069 C 
BRANCH  11  12
ATOM     12  C   UNL d   1     -50.251  15.227  22.931  0.00  0.00     0.297 C 
ATOM     13  O   UNL d   1     -50.998  15.276  22.584  0.00  0.00    -0.264 OA
ATOM     14  N   UNL d   1     -49.834  15.922  23.072  0.00  0.00    -0.102 N 
ENDBRANCH  11  12
ENDBRANCH  10  11
ENDBRANCH   8  10
ENDBRANCH   1   7
BRANCH   2  15
ATOM     15  O   UNL d   1     -46.523  13.206  22.860  0.00  0.00    -0.304 OA
BRANCH  15  16
ATOM     16  C   UNL d   1     -45.772  13.042  22.534  0.00  0.00     0.123 C 
ATOM     17  C   UNL d   1     -45.352  13.672  22.189  0.00  0.00     0.029 C 
ENDBRANCH  15  16
ENDBRANCH   2  15
TORSDOF 6
ENDMDL
MODEL 6
REMARK VINA RESULT:      -5.4      1.420      2.536
REMARK  6 active torsions:
REMARK  status: ('A' for Active; 'I' for Inactive)
REMARK       I    between atoms: C_2  and  N_1 
REMARK    1  A    between atoms: C_5  and  N_1 
REMARK    2  A    between atoms: C_4  and  C_2 
REMARK    3  A    between atoms: C_3  and  C_6 
REMARK    4  A    between atoms: C_6  and  C_4 
REMARK    5  A    between atoms: O_11  and  C_7 
REMARK    6  A    between atoms: C_14  and  O_11 
ROOT
ATOM      1  C   UNL d   1     -47.868  12.673  22.982  0.00  0.00     0.107 A 
ATOM      2  C   UNL d   1     -48.557  13.128  23.065  0.00  0.00     0.118 A 
ATOM      3  C   UNL d   1     -47.842  11.918  23.243  0.00  0.00     0.021 A 
ATOM      4  C   UNL d   1     -49.222  12.794  23.422  0.00  0.00     0.026 A 
ATOM      5  C   UNL d   1     -48.501  11.566  23.605  0.00  0.00     0.002 A 
ATOM      6  C   UNL d   1     -49.182  11.991  23.696  0.00  0.00     0.002 A 
ENDROOT
BRANCH   1   7
ATOM      7  N   UNL d   1     -47.198  13.007  22.623  0.00  0.00    -0.206 NA
ATOM      8  C   UNL d   1     -46.444  12.856  22.916  0.00  0.00     0.280 C 
ATOM      9  O   UNL d   1     -46.349  12.380  23.557  0.00  0.00    -0.265 OA
BRANCH   8  10
ATOM     10  C   UNL d   1     -45.766  13.197  22.549  0.00  0.00     0.068 C 
BRANCH  10  11
ATOM     11  C   UNL d   1     -45.175  12.714  22.245  0.00  0.00     0.069 C 
BRANCH  11  12
ATOM     12  C   UNL d   1     -44.512  13.054  21.920  0.00  0.00     0.297 C 
ATOM     13  O   UNL d   1     -44.457  13.876  21.879  0.00  0.00    -0.264 OA
ATOM     14  N   UNL d   1     -43.891  12.600  21.629  0.00  0.00    -0.102 N 
ENDBRANCH  11  12
ENDBRANCH  10  11
ENDBRANCH   8  10
ENDBRANCH   1   7
BRANCH   2  15
ATOM     15  O   UNL d   1     -48.589  13.916  22.794  0.00  0.00    -0.304 OA
BRANCH  15  16
ATOM     16  C   UNL d   1     -49.296  14.356  22.864  0.00  0.00     0.123 C 
ATOM     17  C   UNL d   1     -49.288  15.149  22.614  0.00  0.00     0.029 C 
ENDBRANCH  15  16
ENDBRANCH   2  15
TORSDOF 6
ENDMDL
MODEL 7
REMARK VINA RESULT:      -5.3      1.457      3.592
REMARK  6 active torsions:
REMARK  status: ('A' for Active; 'I' for Inactive)
REMARK       I    between atoms: C_2  and  N_1 
REMARK    1  A    between atoms: C_5  and  N_1 
REMARK    2  A    between atoms: C_4  and  C_2 
REMARK    3  A    between atoms: C_3  and  C_6 
REMARK    4  A    between atoms: C_6  and  C_4 
REMARK    5  A    between atoms: O_11  and  C_7 
REMARK    6  A    between atoms: C_14  and  O_11 
ROOT
ATOM      1  C   UNL d   1     -47.590  13.484  22.696  0.00  0.00     0.107 A 
ATOM      2  C   UNL d   1     -47.686  14.303  22.597  0.00  0.00     0.118 A 
ATOM      3  C   UNL d   1     -46.867  13.170  22.826  0.00  0.00     0.021 A 
ATOM      4  C   UNL d   1     -47.025  14.795  22.634  0.00  0.00     0.026 A 
ATOM      5  C   UNL d   1     -46.191  13.650  22.866  0.00  0.00     0.002 A 
ATOM      6  C   UNL d   1     -46.262  14.450  22.772  0.00  0.00     0.002 A 
ENDROOT
BRANCH   1   7
ATOM      7  N   UNL d   1     -48.255  12.988  22.659  0.00  0.00    -0.206 NA
ATOM      8  C   UNL d   1     -48.292  12.301  23.111  0.00  0.00     0.280 C 
ATOM      9  O   UNL d   1     -47.680  12.103  23.594  0.00  0.00    -0.265 OA
BRANCH   8  10
ATOM     10  C   UNL d   1     -48.968  11.799  23.071  0.00  0.00     0.068 C 
BRANCH  10  11
ATOM     11  C   UNL d   1     -49.506  11.784  23.691  0.00  0.00     0.069 C 
BRANCH  11  12
ATOM     12  C   UNL d   1     -50.270  11.547  23.549  0.00  0.00     0.297 C 
ATOM     13  O   UNL d   1     -50.486  10.764  23.695  0.00  0.00    -0.264 OA
ATOM     14  N   UNL d   1     -50.838  12.067  23.260  0.00  0.00    -0.102 N 
ENDBRANCH  11  12
ENDBRANCH  10  11
ENDBRANCH   8  10
ENDBRANCH   1   7
BRANCH   2  15
ATOM     15  O   UNL d   1     -48.439  14.637  22.461  0.00  0.00    -0.304 OA
BRANCH  15  16
ATOM     16  C   UNL d   1     -48.561  15.456  22.568  0.00  0.00     0.123 C 
ATOM     17  C   UNL d   1     -49.343  15.727  22.640  0.00  0.00     0.029 C 
ENDBRANCH  15  16
ENDBRANCH   2  15
TORSDOF 6
ENDMDL
MODEL 8
REMARK VINA RESULT:      -5.1      1.873      4.193
REMARK  6 active torsions:
REMARK  status: ('A' for Active; 'I' for Inactive)
REMARK       I    between atoms: C_2  and  N_1 
REMARK    1  A    between atoms: C_5  and  N_1 
REMARK    2  A    between atoms: C_4  and  C_2 
REMARK    3  A    between atoms: C_3  and  C_6 
REMARK    4  A    between atoms: C_6  and  C_4 
REMARK    5  A    between atoms: O_11  and  C_7 
REMARK    6  A    between atoms: C_14  and  O_11 
ROOT
ATOM      1  C   UNL d   1     -46.739  12.773  22.943  0.00  0.00     0.107 A 
ATOM      2  C   UNL d   1     -46.058  12.303  23.020  0.00  0.00     0.118 A 
ATOM      3  C   UNL d   1     -46.715  13.465  22.545  0.00  0.00     0.021 A 
ATOM      4  C   UNL d   1     -45.351  12.557  22.680  0.00  0.00     0.026 A 
ATOM      5  C   UNL d   1     -46.011  13.736  22.197  0.00  0.00     0.002 A 
ATOM      6  C   UNL d   1     -45.337  13.295  22.260  0.00  0.00     0.002 A 
ENDROOT
BRANCH   1   7
ATOM      7  N   UNL d   1     -47.452  12.518  23.285  0.00  0.00    -0.206 NA
ATOM      8  C   UNL d   1     -48.175  12.738  22.960  0.00  0.00     0.280 C 
ATOM      9  O   UNL d   1     -48.198  13.203  22.305  0.00  0.00    -0.265 OA
BRANCH   8  10
ATOM     10  C   UNL d   1     -48.897  12.478  23.309  0.00  0.00     0.068 C 
BRANCH  10  11
ATOM     11  C   UNL d   1     -49.507  12.199  22.834  0.00  0.00     0.069 C 
BRANCH  11  12
ATOM     12  C   UNL d   1     -50.231  12.043  23.169  0.00  0.00     0.297 C 
ATOM     13  O   UNL d   1     -50.877  12.519  22.976  0.00  0.00    -0.264 OA
ATOM     14  N   UNL d   1     -50.340  11.422  23.696  0.00  0.00    -0.102 N 
ENDBRANCH  11  12
ENDBRANCH  10  11
ENDBRANCH   8  10
ENDBRANCH   1   7
BRANCH   2  15
ATOM     15  O   UNL d   1     -46.078  11.579  23.434  0.00  0.00    -0.304 OA
BRANCH  15  16
ATOM     16  C   UNL d   1     -45.429  11.054  23.394  0.00  0.00     0.123 C 
ATOM     17  C   UNL d   1     -45.530  10.287  23.697  0.00  0.00     0.029 C 
ENDBRANCH  15  16
ENDBRANCH   2  15
TORSDOF 6
ENDMDL
MODEL 9
REMARK VINA RESULT:      -4.5      9.049     10.290
REMARK  6 active torsions:
REMARK  status: ('A' for Active; 'I' for Inactive)
REMARK       I    between atoms: C_2  and  N_1 
REMARK    1  A    between atoms: C_5  and  N_1 
REMARK    2  A    between atoms: C_4  and  C_2 
REMARK    3  A    between atoms: C_3  and  C_6 
REMARK    4  A    between atoms: C_6  and  C_4 
REMARK    5  A    between atoms: O_11  and  C_7 
REMARK    6  A    between atoms: C_14  and  O_11 
ROOT
ATOM      1  C   UNL d   1     -39.714  14.146  18.300  0.00  0.00     0.107 A 
ATOM      2  C   UNL d   1     -39.953  14.461  17.571  0.00  0.00     0.118 A 
ATOM      3  C   UNL d   1     -39.138  13.593  18.338  0.00  0.00     0.021 A 
ATOM      4  C   UNL d   1     -39.590  14.199  16.878  0.00  0.00     0.026 A 
ATOM      5  C   UNL d   1     -38.762  13.318  17.651  0.00  0.00     0.002 A 
ATOM      6  C   UNL d   1     -38.979  13.612  16.930  0.00  0.00     0.002 A 
ENDROOT
BRANCH   1   7
ATOM      7  N   UNL d   1     -40.079  14.409  18.999  0.00  0.00    -0.206 NA
ATOM      8  C   UNL d   1     -39.633  14.562  19.674  0.00  0.00     0.280 C 
ATOM      9  O   UNL d   1     -38.836  14.458  19.662  0.00  0.00    -0.265 OA
BRANCH   8  10
ATOM     10  C   UNL d   1     -40.006  14.829  20.381  0.00  0.00     0.068 C 
BRANCH  10  11
ATOM     11  C   UNL d   1     -39.717  15.489  20.775  0.00  0.00     0.069 C 
BRANCH  11  12
ATOM     12  C   UNL d   1     -40.095  15.747  21.447  0.00  0.00     0.297 C 
ATOM     13  O   UNL d   1     -40.902  15.913  21.419  0.00  0.00    -0.264 OA
ATOM     14  N   UNL d   1     -39.694  15.850  22.157  0.00  0.00    -0.102 N 
ENDBRANCH  11  12
ENDBRANCH  10  11
ENDBRANCH   8  10
ENDBRANCH   1   7
BRANCH   2  15
ATOM     15  O   UNL d   1     -40.554  15.039  17.526  0.00  0.00    -0.304 OA
BRANCH  15  16
ATOM     16  C   UNL d   1     -40.789  15.345  16.785  0.00  0.00     0.123 C 
ATOM     17  C   UNL d   1     -41.400  15.908  16.773  0.00  0.00     0.029 C 
ENDBRANCH  15  16
ENDBRANCH   2  15
TORSDOF 6
ENDMDL
