MODEL 1
REMARK VINA RESULT:     -10.7      0.000      0.000
REMARK  3 active torsions:
REMARK  status: ('A' for Active; 'I' for Inactive)
REMARK       I    between atoms: N_2  and  C_1 
REMARK    1  A    between atoms: C_4  and  C_1 
REMARK    2  A    between atoms: C_3  and  N_2 
REMARK    3  A    between atoms: C_5  and  C_6 
ROOT
ATOM      1  C   UNL d   1      53.336  32.333  53.379  0.00  0.00     0.058 A 
ATOM      2  C   UNL d   1      54.329  33.055  54.429  0.00  0.00    -0.023 A 
ATOM      3  C   UNL d   1      53.186  32.261  54.157  0.00  0.00     0.004 A 
ATOM      4  C   UNL d   1      53.974  32.758  53.070  0.00  0.00     0.004 A 
ATOM      5  C   UNL d   1      54.473  33.122  53.616  0.00  0.00    -0.004 A 
ATOM      6  C   UNL d   1      53.693  32.629  54.692  0.00  0.00    -0.004 A 
ENDROOT
BRANCH   1   7
ATOM      7  C   UNL d   1      52.814  31.954  52.844  0.00  0.00     0.279 C 
ATOM      8  N   UNL d   1      52.158  32.349  52.531  0.00  0.00    -0.207 NA
ATOM      9  O   UNL d   1      52.947  31.181  52.623  0.00  0.00    -0.265 OA
BRANCH   8  10
ATOM     10  C   UNL d   1      52.022  33.126  52.752  0.00  0.00     0.095 A 
ATOM     11  C   UNL d   1      51.403  33.315  53.218  0.00  0.00     0.075 A 
ATOM     12 CL   UNL d   1      50.873  32.727  53.495  0.00  0.00    -0.081 Cl
ATOM     13  C   UNL d   1      51.256  34.106  53.449  0.00  0.00     0.013 A 
ATOM     14  C   UNL d   1      51.785  34.695  53.172  0.00  0.00     0.001 A 
ATOM     15  C   UNL d   1      52.415  34.487  52.695  0.00  0.00     0.002 A 
ATOM     16  C   UNL d   1      52.541  33.728  52.484  0.00  0.00     0.020 A 
ENDBRANCH   8  10
ENDBRANCH   1   7
BRANCH   2  17
ATOM     17  C   UNL d   1      54.834  33.423  54.963  0.00  0.00     0.019 C 
ATOM     18  C   UNL d   1      55.344  33.619  54.345  0.00  0.00     0.004 C 
ATOM     19  C   UNL d   1      54.325  33.227  55.578  0.00  0.00     0.004 C 
ATOM     20  C   UNL d   1      55.341  33.792  55.499  0.00  0.00     0.004 C 
ENDBRANCH   2  17
TORSDOF 3
ENDMDL
MODEL 2
REMARK VINA RESULT:     -10.0      1.874      3.651
REMARK  3 active torsions:
REMARK  status: ('A' for Active; 'I' for Inactive)
REMARK       I    between atoms: N_2  and  C_1 
REMARK    1  A    between atoms: C_4  and  C_1 
REMARK    2  A    between atoms: C_3  and  N_2 
REMARK    3  A    between atoms: C_5  and  C_6 
ROOT
ATOM      1  C   UNL d   1      52.964  34.286  54.233  0.00  0.00     0.058 A 
ATOM      2  C   UNL d   1      51.890  34.223  53.029  0.00  0.00    -0.023 A 
ATOM      3  C   UNL d   1      53.130  34.666  53.554  0.00  0.00     0.004 A 
ATOM      4  C   UNL d   1      52.270  33.858  54.364  0.00  0.00     0.004 A 
ATOM      5  C   UNL d   1      51.730  33.833  53.742  0.00  0.00    -0.004 A 
ATOM      6  C   UNL d   1      52.582  34.633  52.940  0.00  0.00    -0.004 A 
ENDROOT
BRANCH   1   7
ATOM      7  C   UNL d   1      53.529  34.327  54.851  0.00  0.00     0.279 C 
ATOM      8  N   UNL d   1      54.083  33.722  54.967  0.00  0.00    -0.207 NA
ATOM      9  O   UNL d   1      53.542  34.970  55.351  0.00  0.00    -0.265 OA
BRANCH   8  10
ATOM     10  C   UNL d   1      54.072  33.075  54.465  0.00  0.00     0.095 A 
ATOM     11  C   UNL d   1      54.645  32.973  53.919  0.00  0.00     0.075 A 
ATOM     12 CL   UNL d   1      55.273  33.524  53.842  0.00  0.00    -0.081 Cl
ATOM     13  C   UNL d   1      54.643  32.315  53.402  0.00  0.00     0.013 A 
ATOM     14  C   UNL d   1      54.014  31.765  53.479  0.00  0.00     0.001 A 
ATOM     15  C   UNL d   1      53.435  31.881  54.042  0.00  0.00     0.002 A 
ATOM     16  C   UNL d   1      53.452  32.514  54.528  0.00  0.00     0.020 A 
ENDBRANCH   8  10
ENDBRANCH   1   7
BRANCH   2  17
ATOM     17  C   UNL d   1      51.343  34.191  52.416  0.00  0.00     0.019 C 
ATOM     18  C   UNL d   1      50.741  34.046  52.960  0.00  0.00     0.004 C 
ATOM     19  C   UNL d   1      51.944  34.335  51.873  0.00  0.00     0.004 C 
ATOM     20  C   UNL d   1      50.795  34.159  51.800  0.00  0.00     0.004 C 
ENDBRANCH   2  17
TORSDOF 3
ENDMDL
MODEL 3
REMARK VINA RESULT:      -9.6      1.237      3.162
REMARK  3 active torsions:
REMARK  status: ('A' for Active; 'I' for Inactive)
REMARK       I    between atoms: N_2  and  C_1 
REMARK    1  A    between atoms: C_4  and  C_1 
REMARK    2  A    between atoms: C_3  and  N_2 
REMARK    3  A    between atoms: C_5  and  C_6 
ROOT
ATOM      1  C   UNL d   1      52.728  32.209  53.046  0.00  0.00     0.058 A 
ATOM      2  C   UNL d   1      51.674  33.431  52.995  0.00  0.00    -0.023 A 
ATOM      3  C   UNL d   1      52.860  32.804  52.536  0.00  0.00     0.004 A 
ATOM      4  C   UNL d   1      52.080  32.175  53.557  0.00  0.00     0.004 A 
ATOM      5  C   UNL d   1      51.550  32.804  53.522  0.00  0.00    -0.004 A 
ATOM      6  C   UNL d   1      52.322  33.428  52.510  0.00  0.00    -0.004 A 
ENDROOT
BRANCH   1   7
ATOM      7  C   UNL d   1      53.282  31.580  53.063  0.00  0.00     0.279 C 
ATOM      8  N   UNL d   1      53.951  31.609  53.550  0.00  0.00    -0.207 NA
ATOM      9  O   UNL d   1      53.168  30.923  52.594  0.00  0.00    -0.265 OA
BRANCH   8  10
ATOM     10  C   UNL d   1      54.067  32.268  54.022  0.00  0.00     0.095 A 
ATOM     11  C   UNL d   1      54.633  32.802  53.844  0.00  0.00     0.075 A 
ATOM     12 CL   UNL d   1      55.123  32.706  53.171  0.00  0.00    -0.081 Cl
ATOM     13  C   UNL d   1      54.759  33.479  54.320  0.00  0.00     0.013 A 
ATOM     14  C   UNL d   1      54.268  33.575  54.994  0.00  0.00     0.001 A 
ATOM     15  C   UNL d   1      53.694  33.021  55.164  0.00  0.00     0.002 A 
ATOM     16  C   UNL d   1      53.586  32.381  54.700  0.00  0.00     0.020 A 
ENDBRANCH   8  10
ENDBRANCH   1   7
BRANCH   2  17
ATOM     17  C   UNL d   1      51.138  34.054  52.970  0.00  0.00     0.019 C 
ATOM     18  C   UNL d   1      51.685  34.508  52.552  0.00  0.00     0.004 C 
ATOM     19  C   UNL d   1      50.593  33.601  53.386  0.00  0.00     0.004 C 
ATOM     20  C   UNL d   1      50.600  34.678  52.944  0.00  0.00     0.004 C 
ENDBRANCH   2  17
TORSDOF 3
ENDMDL
MODEL 4
REMARK VINA RESULT:      -9.5      1.280      2.280
REMARK  3 active torsions:
REMARK  status: ('A' for Active; 'I' for Inactive)
REMARK       I    between atoms: N_2  and  C_1 
REMARK    1  A    between atoms: C_4  and  C_1 
REMARK    2  A    between atoms: C_3  and  N_2 
REMARK    3  A    between atoms: C_5  and  C_6 
ROOT
ATOM      1  C   UNL d   1      53.121  32.563  53.243  0.00  0.00     0.058 A 
ATOM      2  C   UNL d   1      54.133  33.064  54.398  0.00  0.00    -0.023 A 
ATOM      3  C   UNL d   1      52.825  32.737  53.960  0.00  0.00     0.004 A 
ATOM      4  C   UNL d   1      53.922  32.622  53.049  0.00  0.00     0.004 A 
ATOM      5  C   UNL d   1      54.428  32.879  53.646  0.00  0.00    -0.004 A 
ATOM      6  C   UNL d   1      53.341  32.993  54.549  0.00  0.00    -0.004 A 
ENDROOT
BRANCH   1   7
ATOM      7  C   UNL d   1      52.586  32.305  52.652  0.00  0.00     0.279 C 
ATOM      8  N   UNL d   1      52.461  31.499  52.508  0.00  0.00    -0.207 NA
ATOM      9  O   UNL d   1      52.177  32.850  52.205  0.00  0.00    -0.265 OA
BRANCH   8  10
ATOM     10  C   UNL d   1      52.871  30.949  52.956  0.00  0.00     0.095 A 
ATOM     11  C   UNL d   1      52.489  30.482  53.477  0.00  0.00     0.075 A 
ATOM     12 CL   UNL d   1      51.658  30.538  53.583  0.00  0.00    -0.081 Cl
ATOM     13  C   UNL d   1      52.899  29.917  53.939  0.00  0.00     0.013 A 
ATOM     14  C   UNL d   1      53.729  29.861  53.834  0.00  0.00     0.001 A 
ATOM     15  C   UNL d   1      54.107  30.345  53.297  0.00  0.00     0.002 A 
ATOM     16  C   UNL d   1      53.701  30.879  52.864  0.00  0.00     0.020 A 
ENDBRANCH   8  10
ENDBRANCH   1   7
BRANCH   2  17
ATOM     17  C   UNL d   1      54.648  33.318  54.986  0.00  0.00     0.019 C 
ATOM     18  C   UNL d   1      55.162  33.608  54.410  0.00  0.00     0.004 C 
ATOM     19  C   UNL d   1      54.136  33.029  55.560  0.00  0.00     0.004 C 
ATOM     20  C   UNL d   1      55.165  33.574  55.576  0.00  0.00     0.004 C 
ENDBRANCH   2  17
TORSDOF 3
ENDMDL
MODEL 5
REMARK VINA RESULT:      -9.4      1.798      2.617
REMARK  3 active torsions:
REMARK  status: ('A' for Active; 'I' for Inactive)
REMARK       I    between atoms: N_2  and  C_1 
REMARK    1  A    between atoms: C_4  and  C_1 
REMARK    2  A    between atoms: C_3  and  N_2 
REMARK    3  A    between atoms: C_5  and  C_6 
ROOT
ATOM      1  C   UNL d   1      54.112  33.149  54.455  0.00  0.00     0.058 A 
ATOM      2  C   UNL d   1      53.763  31.683  53.874  0.00  0.00    -0.023 A 
ATOM      3  C   UNL d   1      53.688  32.650  54.908  0.00  0.00     0.004 A 
ATOM      4  C   UNL d   1      54.388  32.964  53.699  0.00  0.00     0.004 A 
ATOM      5  C   UNL d   1      54.204  32.213  53.414  0.00  0.00    -0.004 A 
ATOM      6  C   UNL d   1      53.511  31.903  54.611  0.00  0.00    -0.004 A 
ENDROOT
BRANCH   1   7
ATOM      7  C   UNL d   1      54.286  33.907  54.768  0.00  0.00     0.279 C 
ATOM      8  N   UNL d   1      53.790  34.554  54.628  0.00  0.00    -0.207 NA
ATOM      9  O   UNL d   1      54.955  34.018  55.220  0.00  0.00    -0.265 OA
BRANCH   8  10
ATOM     10  C   UNL d   1      53.117  34.445  54.174  0.00  0.00     0.095 A 
ATOM     11  C   UNL d   1      53.056  34.775  53.450  0.00  0.00     0.075 A 
ATOM     12 CL   UNL d   1      53.677  35.241  53.132  0.00  0.00    -0.081 Cl
ATOM     13  C   UNL d   1      52.373  34.669  52.979  0.00  0.00     0.013 A 
ATOM     14  C   UNL d   1      51.752  34.203  53.297  0.00  0.00     0.001 A 
ATOM     15  C   UNL d   1      51.827  33.872  54.039  0.00  0.00     0.002 A 
ATOM     16  C   UNL d   1      52.486  33.983  54.476  0.00  0.00     0.020 A 
ENDBRANCH   8  10
ENDBRANCH   1   7
BRANCH   2  17
ATOM     17  C   UNL d   1      53.586  30.937  53.578  0.00  0.00     0.019 C 
ATOM     18  C   UNL d   1      53.409  30.677  54.341  0.00  0.00     0.004 C 
ATOM     19  C   UNL d   1      53.762  31.196  52.818  0.00  0.00     0.004 C 
ATOM     20  C   UNL d   1      53.408  30.188  53.281  0.00  0.00     0.004 C 
ENDBRANCH   2  17
TORSDOF 3
ENDMDL
