MODEL 1
REMARK VINA RESULT:      -4.9      0.000      0.000
REMARK  9 active torsions:
REMARK  status: ('A' for Active; 'I' for Inactive)
REMARK    1  A    between atoms: C_19  and  N_1 
REMARK    2  A    between atoms: S_15  and  C_2 
REMARK    3  A    between atoms: C_7  and  C_10 
REMARK       I    between atoms: N_12  and  C_7 
REMARK    4  A    between atoms: C_20  and  N_12 
REMARK    5  A    between atoms: C_22  and  S_15 
REMARK    6  A    between atoms: C_24  and  C_19 
REMARK    7  A    between atoms: C_21  and  C_20 
REMARK    8  A    between atoms: C_27  and  C_24 
REMARK    9  A    between atoms: C_26  and  C_27 
ROOT
ATOM      1  N   UNL d   1     -48.090  15.522  22.407  0.00  0.00    -0.195 NA
ATOM      2  C   UNL d   1     -47.408  15.060  22.474  0.00  0.00     0.086 C 
ATOM      3  C   UNL d   1     -46.727  14.602  22.541  0.00  0.00     0.170 C 
ENDROOT
BRANCH   3   4
ATOM      4  S   UNL d   1     -46.786  13.797  22.689  0.00  0.00    -0.060 SA
BRANCH   4   5
ATOM      5  C   UNL d   1     -46.102  13.305  22.625  0.00  0.00     0.178 A 
ATOM      6  N   UNL d   1     -46.060  12.593  23.042  0.00  0.00    -0.253 N 
ATOM      7  C   UNL d   1     -45.394  12.116  22.979  0.00  0.00     0.268 A 
ATOM      8  C   UNL d   1     -44.761  12.357  22.490  0.00  0.00     0.074 A 
ATOM      9  O   UNL d   1     -45.346  11.403  23.392  0.00  0.00    -0.267 OA
ATOM     10  C   UNL d   1     -44.803  13.061  22.078  0.00  0.00     0.088 A 
ATOM     11  C   UNL d   1     -44.091  11.877  22.426  0.00  0.00     0.006 A 
ATOM     12  C   UNL d   1     -44.174  13.294  21.597  0.00  0.00     0.024 A 
ATOM     13  N   UNL d   1     -45.471  13.538  22.143  0.00  0.00    -0.222 NA
ATOM     14  C   UNL d   1     -43.508  12.818  21.533  0.00  0.00     0.059 A 
ATOM     15  C   UNL d   1     -43.466  12.114  21.945  0.00  0.00     0.005 A 
BRANCH   6  16
ATOM     16  C   UNL d   1     -46.702  12.361  23.529  0.00  0.00     0.085 C 
BRANCH  16  17
ATOM     17  C   UNL d   1     -47.222  11.786  23.249  0.00  0.00     0.019 C 
BRANCH  17  18
ATOM     18  C   UNL d   1     -47.904  11.610  23.696  0.00  0.00     0.002 C 
BRANCH  18  19
ATOM     19  C   UNL d   1     -48.451  11.048  23.404  0.00  0.00     0.000 C 
ATOM     20  C   UNL d   1     -49.236  11.100  23.632  0.00  0.00     0.000 C 
ENDBRANCH  18  19
ENDBRANCH  17  18
ENDBRANCH  16  17
ENDBRANCH   6  16
BRANCH  14  21
ATOM     21  C   UNL d   1     -42.881  13.052  21.053  0.00  0.00     0.279 C 
ATOM     22  N   UNL d   1     -42.418  13.702  21.256  0.00  0.00    -0.204 NA
ATOM     23  O   UNL d   1     -42.712  12.633  20.361  0.00  0.00    -0.265 OA
BRANCH  22  24
ATOM     24  C   UNL d   1     -41.789  13.936  20.772  0.00  0.00     0.127 C 
BRANCH  24  25
ATOM     25  C   UNL d   1     -41.305  14.572  21.000  0.00  0.00     0.119 A 
ATOM     26  O   UNL d   1     -41.503  15.368  20.954  0.00  0.00    -0.304 OA
ATOM     27  C   UNL d   1     -40.863  15.809  21.237  0.00  0.00     0.123 A 
ATOM     28  C   UNL d   1     -40.269  15.276  21.458  0.00  0.00     0.029 A 
ATOM     29  C   UNL d   1     -40.544  14.517  21.311  0.00  0.00     0.028 A 
ENDBRANCH  24  25
ENDBRANCH  22  24
ENDBRANCH  14  21
ENDBRANCH   4   5
ENDBRANCH   3   4
TORSDOF 9
ENDMDL
MODEL 2
REMARK VINA RESULT:      -4.7      1.771      2.910
REMARK  9 active torsions:
REMARK  status: ('A' for Active; 'I' for Inactive)
REMARK    1  A    between atoms: C_19  and  N_1 
REMARK    2  A    between atoms: S_15  and  C_2 
REMARK    3  A    between atoms: C_7  and  C_10 
REMARK       I    between atoms: N_12  and  C_7 
REMARK    4  A    between atoms: C_20  and  N_12 
REMARK    5  A    between atoms: C_22  and  S_15 
REMARK    6  A    between atoms: C_24  and  C_19 
REMARK    7  A    between atoms: C_21  and  C_20 
REMARK    8  A    between atoms: C_27  and  C_24 
REMARK    9  A    between atoms: C_26  and  C_27 
ROOT
ATOM      1  N   UNL d   1     -49.879  10.985  23.698  0.00  0.00    -0.195 NA
ATOM      2  C   UNL d   1     -49.221  11.419  23.447  0.00  0.00     0.086 C 
ATOM      3  C   UNL d   1     -48.565  11.849  23.197  0.00  0.00     0.170 C 
ENDROOT
BRANCH   3   4
ATOM      4  S   UNL d   1     -48.532  12.659  23.322  0.00  0.00    -0.060 SA
BRANCH   4   5
ATOM      5  C   UNL d   1     -47.847  13.095  23.090  0.00  0.00     0.178 A 
ATOM      6  N   UNL d   1     -47.866  13.921  23.065  0.00  0.00    -0.253 N 
ATOM      7  C   UNL d   1     -47.198  14.342  22.838  0.00  0.00     0.268 A 
ATOM      8  C   UNL d   1     -46.502  13.930  22.634  0.00  0.00     0.074 A 
ATOM      9  O   UNL d   1     -47.210  15.167  22.811  0.00  0.00    -0.267 OA
ATOM     10  C   UNL d   1     -46.483  13.113  22.658  0.00  0.00     0.088 A 
ATOM     11  C   UNL d   1     -45.829  14.354  22.406  0.00  0.00     0.006 A 
ATOM     12  C   UNL d   1     -45.792  12.711  22.455  0.00  0.00     0.024 A 
ATOM     13  N   UNL d   1     -47.153  12.693  22.886  0.00  0.00    -0.222 NA
ATOM     14  C   UNL d   1     -45.123  13.131  22.228  0.00  0.00     0.059 A 
ATOM     15  C   UNL d   1     -45.142  13.948  22.204  0.00  0.00     0.005 A 
BRANCH   6  16
ATOM     16  C   UNL d   1     -48.570  14.324  23.272  0.00  0.00     0.085 C 
BRANCH  16  17
ATOM     17  C   UNL d   1     -48.976  14.738  22.684  0.00  0.00     0.019 C 
BRANCH  17  18
ATOM     18  C   UNL d   1     -49.649  15.182  22.899  0.00  0.00     0.002 C 
BRANCH  18  19
ATOM     19  C   UNL d   1     -50.324  15.164  22.404  0.00  0.00     0.000 C 
ATOM     20  C   UNL d   1     -51.064  15.274  22.738  0.00  0.00     0.000 C 
ENDBRANCH  18  19
ENDBRANCH  17  18
ENDBRANCH  16  17
ENDBRANCH   6  16
BRANCH  14  21
ATOM     21  C   UNL d   1     -44.434  12.729  22.026  0.00  0.00     0.279 C 
ATOM     22  N   UNL d   1     -43.823  13.117  21.635  0.00  0.00    -0.204 NA
ATOM     23  O   UNL d   1     -44.352  11.929  22.215  0.00  0.00    -0.265 OA
BRANCH  22  24
ATOM     24  C   UNL d   1     -43.130  12.712  21.431  0.00  0.00     0.127 C 
BRANCH  24  25
ATOM     25  C   UNL d   1     -42.491  13.124  21.097  0.00  0.00     0.119 A 
ATOM     26  O   UNL d   1     -42.405  13.315  20.302  0.00  0.00    -0.304 OA
ATOM     27  C   UNL d   1     -41.692  13.724  20.212  0.00  0.00     0.123 A 
ATOM     28  C   UNL d   1     -41.339  13.782  20.960  0.00  0.00     0.029 A 
ATOM     29  C   UNL d   1     -41.833  13.412  21.500  0.00  0.00     0.028 A 
ENDBRANCH  24  25
ENDBRANCH  22  24
ENDBRANCH  14  21
ENDBRANCH   4   5
ENDBRANCH   3   4
TORSDOF 9
ENDMDL
MODEL 3
REMARK VINA RESULT:      -4.6      2.484      4.043
REMARK  9 active torsions:
REMARK  status: ('A' for Active; 'I' for Inactive)
REMARK    1  A    between atoms: C_19  and  N_1 
REMARK    2  A    between atoms: S_15  and  C_2 
REMARK    3  A    between atoms: C_7  and  C_10 
REMARK       I    between atoms: N_12  and  C_7 
REMARK    4  A    between atoms: C_20  and  N_12 
REMARK    5  A    between atoms: C_22  and  S_15 
REMARK    6  A    between atoms: C_24  and  C_19 
REMARK    7  A    between atoms: C_21  and  C_20 
REMARK    8  A    between atoms: C_27  and  C_24 
REMARK    9  A    between atoms: C_26  and  C_27 
ROOT
ATOM      1  N   UNL d   1     -50.415  10.829  23.696  0.00  0.00    -0.195 NA
ATOM      2  C   UNL d   1     -49.730  11.288  23.628  0.00  0.00     0.086 C 
ATOM      3  C   UNL d   1     -49.048  11.744  23.560  0.00  0.00     0.170 C 
ENDROOT
BRANCH   3   4
ATOM      4  S   UNL d   1     -49.102  12.562  23.517  0.00  0.00    -0.060 SA
BRANCH   4   5
ATOM      5  C   UNL d   1     -48.442  13.015  23.248  0.00  0.00     0.178 A 
ATOM      6  N   UNL d   1     -48.522  13.824  23.104  0.00  0.00    -0.253 N 
ATOM      7  C   UNL d   1     -47.878  14.263  22.843  0.00  0.00     0.268 A 
ATOM      8  C   UNL d   1     -47.144  13.884  22.725  0.00  0.00     0.074 A 
ATOM      9  O   UNL d   1     -47.951  15.072  22.697  0.00  0.00    -0.267 OA
ATOM     10  C   UNL d   1     -47.064  13.083  22.867  0.00  0.00     0.088 A 
ATOM     11  C   UNL d   1     -46.496  14.325  22.462  0.00  0.00     0.006 A 
ATOM     12  C   UNL d   1     -46.336  12.714  22.748  0.00  0.00     0.024 A 
ATOM     13  N   UNL d   1     -47.711  12.646  23.129  0.00  0.00    -0.222 NA
ATOM     14  C   UNL d   1     -45.692  13.152  22.487  0.00  0.00     0.059 A 
ATOM     15  C   UNL d   1     -45.771  13.952  22.344  0.00  0.00     0.005 A 
BRANCH   6  16
ATOM     16  C   UNL d   1     -49.264  14.194  23.227  0.00  0.00     0.085 C 
BRANCH  16  17
ATOM     17  C   UNL d   1     -49.604  14.612  22.602  0.00  0.00     0.019 C 
BRANCH  17  18
ATOM     18  C   UNL d   1     -50.274  15.086  22.755  0.00  0.00     0.002 C 
BRANCH  18  19
ATOM     19  C   UNL d   1     -50.999  14.900  22.381  0.00  0.00     0.000 C 
ATOM     20  C   UNL d   1     -51.063  14.988  21.569  0.00  0.00     0.000 C 
ENDBRANCH  18  19
ENDBRANCH  17  18
ENDBRANCH  16  17
ENDBRANCH   6  16
BRANCH  14  21
ATOM     21  C   UNL d   1     -44.965  12.782  22.368  0.00  0.00     0.279 C 
ATOM     22  N   UNL d   1     -44.739  12.145  22.838  0.00  0.00    -0.204 NA
ATOM     23  O   UNL d   1     -44.457  13.050  21.775  0.00  0.00    -0.265 OA
BRANCH  22  24
ATOM     24  C   UNL d   1     -44.009  11.774  22.719  0.00  0.00     0.127 C 
BRANCH  24  25
ATOM     25  C   UNL d   1     -43.847  11.048  23.088  0.00  0.00     0.119 A 
ATOM     26  O   UNL d   1     -43.100  10.737  23.234  0.00  0.00    -0.304 OA
ATOM     27  C   UNL d   1     -43.194  10.007  23.610  0.00  0.00     0.123 A 
ATOM     28  C   UNL d   1     -44.007   9.871  23.695  0.00  0.00     0.029 A 
ATOM     29  C   UNL d   1     -44.405  10.512  23.373  0.00  0.00     0.028 A 
ENDBRANCH  24  25
ENDBRANCH  22  24
ENDBRANCH  14  21
ENDBRANCH   4   5
ENDBRANCH   3   4
TORSDOF 9
ENDMDL
MODEL 4
REMARK VINA RESULT:      -4.5      6.081      8.007
REMARK  9 active torsions:
REMARK  status: ('A' for Active; 'I' for Inactive)
REMARK    1  A    between atoms: C_19  and  N_1 
REMARK    2  A    between atoms: S_15  and  C_2 
REMARK    3  A    between atoms: C_7  and  C_10 
REMARK       I    between atoms: N_12  and  C_7 
REMARK    4  A    between atoms: C_20  and  N_12 
REMARK    5  A    between atoms: C_22  and  S_15 
REMARK    6  A    between atoms: C_24  and  C_19 
REMARK    7  A    between atoms: C_21  and  C_20 
REMARK    8  A    between atoms: C_27  and  C_24 
REMARK    9  A    between atoms: C_26  and  C_27 
ROOT
ATOM      1  N   UNL d   1     -42.532  15.891  15.552  0.00  0.00    -0.195 NA
ATOM      2  C   UNL d   1     -41.944  15.868  16.132  0.00  0.00     0.086 C 
ATOM      3  C   UNL d   1     -41.360  15.846  16.712  0.00  0.00     0.170 C 
ENDROOT
BRANCH   3   4
ATOM      4  S   UNL d   1     -40.642  15.479  16.558  0.00  0.00    -0.060 SA
BRANCH   4   5
ATOM      5  C   UNL d   1     -40.082  15.371  17.181  0.00  0.00     0.178 A 
ATOM      6  N   UNL d   1     -39.283  15.252  17.007  0.00  0.00    -0.253 N 
ATOM      7  C   UNL d   1     -38.740  15.147  17.615  0.00  0.00     0.268 A 
ATOM      8  C   UNL d   1     -39.002  15.161  18.407  0.00  0.00     0.074 A 
ATOM      9  O   UNL d   1     -37.940  15.027  17.449  0.00  0.00    -0.267 OA
ATOM     10  C   UNL d   1     -39.792  15.279  18.579  0.00  0.00     0.088 A 
ATOM     11  C   UNL d   1     -38.456  15.055  19.019  0.00  0.00     0.006 A 
ATOM     12  C   UNL d   1     -40.045  15.292  19.364  0.00  0.00     0.024 A 
ATOM     13  N   UNL d   1     -40.335  15.384  17.969  0.00  0.00    -0.222 NA
ATOM     14  C   UNL d   1     -39.503  15.187  19.972  0.00  0.00     0.059 A 
ATOM     15  C   UNL d   1     -38.713  15.069  19.801  0.00  0.00     0.005 A 
BRANCH   6  16
ATOM     16  C   UNL d   1     -39.031  15.239  16.208  0.00  0.00     0.085 C 
BRANCH  16  17
ATOM     17  C   UNL d   1     -38.586  14.597  15.945  0.00  0.00     0.019 C 
BRANCH  17  18
ATOM     18  C   UNL d   1     -38.492  14.484  15.123  0.00  0.00     0.002 C 
BRANCH  18  19
ATOM     19  C   UNL d   1     -38.135  13.779  14.846  0.00  0.00     0.000 C 
ATOM     20  C   UNL d   1     -37.940  13.717  14.053  0.00  0.00     0.000 C 
ENDBRANCH  18  19
ENDBRANCH  17  18
ENDBRANCH  16  17
ENDBRANCH   6  16
BRANCH  14  21
ATOM     21  C   UNL d   1     -39.757  15.200  20.755  0.00  0.00     0.279 C 
ATOM     22  N   UNL d   1     -39.500  14.627  21.288  0.00  0.00    -0.204 NA
ATOM     23  O   UNL d   1     -40.273  15.791  21.013  0.00  0.00    -0.265 OA
BRANCH  22  24
ATOM     24  C   UNL d   1     -39.756  14.641  22.075  0.00  0.00     0.127 C 
BRANCH  24  25
ATOM     25  C   UNL d   1     -39.278  14.319  22.673  0.00  0.00     0.119 A 
ATOM     26  O   UNL d   1     -38.689  14.717  23.086  0.00  0.00    -0.304 OA
ATOM     27  C   UNL d   1     -38.354  14.190  23.627  0.00  0.00     0.123 A 
ATOM     28  C   UNL d   1     -38.741  13.462  23.543  0.00  0.00     0.029 A 
ATOM     29  C   UNL d   1     -39.308  13.545  22.956  0.00  0.00     0.028 A 
ENDBRANCH  24  25
ENDBRANCH  22  24
ENDBRANCH  14  21
ENDBRANCH   4   5
ENDBRANCH   3   4
TORSDOF 9
ENDMDL
MODEL 5
REMARK VINA RESULT:      -4.3      4.033      7.651
REMARK  9 active torsions:
REMARK  status: ('A' for Active; 'I' for Inactive)
REMARK    1  A    between atoms: C_19  and  N_1 
REMARK    2  A    between atoms: S_15  and  C_2 
REMARK    3  A    between atoms: C_7  and  C_10 
REMARK       I    between atoms: N_12  and  C_7 
REMARK    4  A    between atoms: C_20  and  N_12 
REMARK    5  A    between atoms: C_22  and  S_15 
REMARK    6  A    between atoms: C_24  and  C_19 
REMARK    7  A    between atoms: C_21  and  C_20 
REMARK    8  A    between atoms: C_27  and  C_24 
REMARK    9  A    between atoms: C_26  and  C_27 
ROOT
ATOM      1  N   UNL d   1     -42.499  15.901  15.611  0.00  0.00    -0.195 NA
ATOM      2  C   UNL d   1     -41.932  15.860  16.212  0.00  0.00     0.086 C 
ATOM      3  C   UNL d   1     -41.369  15.820  16.811  0.00  0.00     0.170 C 
ENDROOT
BRANCH   3   4
ATOM      4  S   UNL d   1     -40.690  15.371  16.708  0.00  0.00    -0.060 SA
BRANCH   4   5
ATOM      5  C   UNL d   1     -40.285  15.058  17.380  0.00  0.00     0.178 A 
ATOM      6  N   UNL d   1     -39.486  14.857  17.329  0.00  0.00    -0.253 N 
ATOM      7  C   UNL d   1     -39.094  14.552  17.985  0.00  0.00     0.268 A 
ATOM      8  C   UNL d   1     -39.511  14.448  18.700  0.00  0.00     0.074 A 
ATOM      9  O   UNL d   1     -38.295  14.350  17.941  0.00  0.00    -0.267 OA
ATOM     10  C   UNL d   1     -40.302  14.646  18.750  0.00  0.00     0.088 A 
ATOM     11  C   UNL d   1     -39.118  14.142  19.360  0.00  0.00     0.006 A 
ATOM     12  C   UNL d   1     -40.709  14.541  19.460  0.00  0.00     0.024 A 
ATOM     13  N   UNL d   1     -40.693  14.951  18.092  0.00  0.00    -0.222 NA
ATOM     14  C   UNL d   1     -40.319  14.236  20.116  0.00  0.00     0.059 A 
ATOM     15  C   UNL d   1     -39.528  14.038  20.066  0.00  0.00     0.005 A 
BRANCH   6  16
ATOM     16  C   UNL d   1     -39.077  14.966  16.606  0.00  0.00     0.085 C 
BRANCH  16  17
ATOM     17  C   UNL d   1     -38.704  14.316  16.261  0.00  0.00     0.019 C 
BRANCH  17  18
ATOM     18  C   UNL d   1     -38.343  14.410  15.515  0.00  0.00     0.002 C 
BRANCH  18  19
ATOM     19  C   UNL d   1     -38.010  13.743  15.135  0.00  0.00     0.000 C 
ATOM     20  C   UNL d   1     -37.945  13.741  14.318  0.00  0.00     0.000 C 
ENDBRANCH  18  19
ENDBRANCH  17  18
ENDBRANCH  16  17
ENDBRANCH   6  16
BRANCH  14  21
ATOM     21  C   UNL d   1     -40.726  14.131  20.824  0.00  0.00     0.279 C 
ATOM     22  N   UNL d   1     -41.469  13.776  20.830  0.00  0.00    -0.204 NA
ATOM     23  O   UNL d   1     -40.390  14.383  21.535  0.00  0.00    -0.265 OA
BRANCH  22  24
ATOM     24  C   UNL d   1     -41.877  13.671  21.542  0.00  0.00     0.127 C 
BRANCH  24  25
ATOM     25  C   UNL d   1     -42.573  13.218  21.558  0.00  0.00     0.119 A 
ATOM     26  O   UNL d   1     -42.621  12.414  21.722  0.00  0.00    -0.304 OA
ATOM     27  C   UNL d   1     -43.415  12.189  21.679  0.00  0.00     0.123 A 
ATOM     28  C   UNL d   1     -43.857  12.863  21.486  0.00  0.00     0.029 A 
ATOM     29  C   UNL d   1     -43.336  13.493  21.413  0.00  0.00     0.028 A 
ENDBRANCH  24  25
ENDBRANCH  22  24
ENDBRANCH  14  21
ENDBRANCH   4   5
ENDBRANCH   3   4
TORSDOF 9
ENDMDL
MODEL 6
REMARK VINA RESULT:      -3.1      1.534      2.728
REMARK  9 active torsions:
REMARK  status: ('A' for Active; 'I' for Inactive)
REMARK    1  A    between atoms: C_19  and  N_1 
REMARK    2  A    between atoms: S_15  and  C_2 
REMARK    3  A    between atoms: C_7  and  C_10 
REMARK       I    between atoms: N_12  and  C_7 
REMARK    4  A    between atoms: C_20  and  N_12 
REMARK    5  A    between atoms: C_22  and  S_15 
REMARK    6  A    between atoms: C_24  and  C_19 
REMARK    7  A    between atoms: C_21  and  C_20 
REMARK    8  A    between atoms: C_27  and  C_24 
REMARK    9  A    between atoms: C_26  and  C_27 
ROOT
ATOM      1  N   UNL d   1     -48.613  15.845  22.402  0.00  0.00    -0.195 NA
ATOM      2  C   UNL d   1     -48.234  15.147  22.634  0.00  0.00     0.086 C 
ATOM      3  C   UNL d   1     -47.856  14.454  22.864  0.00  0.00     0.170 C 
ENDROOT
BRANCH   3   4
ATOM      4  S   UNL d   1     -48.297  13.790  23.059  0.00  0.00    -0.060 SA
BRANCH   4   5
ATOM      5  C   UNL d   1     -47.914  13.044  23.164  0.00  0.00     0.178 A 
ATOM      6  N   UNL d   1     -48.350  12.377  23.380  0.00  0.00    -0.253 N 
ATOM      7  C   UNL d   1     -47.975  11.653  23.482  0.00  0.00     0.268 A 
ATOM      8  C   UNL d   1     -47.150  11.598  23.365  0.00  0.00     0.074 A 
ATOM      9  O   UNL d   1     -48.405  10.983  23.697  0.00  0.00    -0.267 OA
ATOM     10  C   UNL d   1     -46.718  12.258  23.152  0.00  0.00     0.088 A 
ATOM     11  C   UNL d   1     -46.773  10.870  23.467  0.00  0.00     0.006 A 
ATOM     12  C   UNL d   1     -45.903  12.197  23.038  0.00  0.00     0.024 A 
ATOM     13  N   UNL d   1     -47.096  12.982  23.051  0.00  0.00    -0.222 NA
ATOM     14  C   UNL d   1     -45.527  11.474  23.140  0.00  0.00     0.059 A 
ATOM     15  C   UNL d   1     -45.959  10.814  23.353  0.00  0.00     0.005 A 
BRANCH   6  16
ATOM     16  C   UNL d   1     -49.178  12.444  23.494  0.00  0.00     0.085 C 
BRANCH  16  17
ATOM     17  C   UNL d   1     -49.676  12.319  22.849  0.00  0.00     0.019 C 
BRANCH  17  18
ATOM     18  C   UNL d   1     -50.492  12.472  22.937  0.00  0.00     0.002 C 
BRANCH  18  19
ATOM     19  C   UNL d   1     -51.003  12.348  22.286  0.00  0.00     0.000 C 
ATOM     20  C   UNL d   1     -50.978  12.871  21.655  0.00  0.00     0.000 C 
ENDBRANCH  18  19
ENDBRANCH  17  18
ENDBRANCH  16  17
ENDBRANCH   6  16
BRANCH  14  21
ATOM     21  C   UNL d   1     -44.714  11.415  23.026  0.00  0.00     0.279 C 
ATOM     22  N   UNL d   1     -44.317  11.959  22.552  0.00  0.00    -0.204 NA
ATOM     23  O   UNL d   1     -44.289  10.806  23.389  0.00  0.00    -0.265 OA
BRANCH  22  24
ATOM     24  C   UNL d   1     -43.500  11.898  22.439  0.00  0.00     0.127 C 
BRANCH  24  25
ATOM     25  C   UNL d   1     -43.126  12.360  21.857  0.00  0.00     0.119 A 
ATOM     26  O   UNL d   1     -42.392  12.722  21.928  0.00  0.00    -0.304 OA
ATOM     27  C   UNL d   1     -42.234  13.124  21.223  0.00  0.00     0.123 A 
ATOM     28  C   UNL d   1     -42.880  13.006  20.717  0.00  0.00     0.029 A 
ATOM     29  C   UNL d   1     -43.425  12.536  21.110  0.00  0.00     0.028 A 
ENDBRANCH  24  25
ENDBRANCH  22  24
ENDBRANCH  14  21
ENDBRANCH   4   5
ENDBRANCH   3   4
TORSDOF 9
ENDMDL
