MODEL 1
REMARK VINA RESULT:      25.2      0.000      0.000
REMARK  2 active torsions:
REMARK  status: ('A' for Active; 'I' for Inactive)
REMARK    1  A    between atoms: C_8  and  N_1 
REMARK    2  A    between atoms: O_15  and  C_14 
ROOT
ATOM      1  N   UNL d   1      14.152  12.733  -1.719  0.00  0.00    -0.243 N 
ATOM      2  C   UNL d   1      13.668  12.127  -1.559  0.00  0.00     0.251 A 
ATOM      3  C   UNL d   1      14.123  12.925  -2.497  0.00  0.00     0.264 A 
ATOM      4  C   UNL d   1      13.296  11.906  -2.283  0.00  0.00     0.129 A 
ATOM      5  C   UNL d   1      13.578  12.400  -2.864  0.00  0.00     0.047 A 
ATOM      6  C   UNL d   1      13.447  12.490  -3.700  0.00  0.00     0.001 A 
ATOM      7  C   UNL d   1      13.293  12.230  -3.416  0.00  0.00    -0.009 A 
ATOM      8  C   UNL d   1      12.924  12.064  -4.323  0.00  0.00    -0.000 A 
ATOM      9  C   UNL d   1      12.778  11.809  -4.023  0.00  0.00    -0.004 A 
ATOM     10  C   UNL d   1      13.959  13.106  -3.779  0.00  0.00    -0.004 A 
ATOM     11  O   UNL d   1      13.558  11.779  -0.796  0.00  0.00    -0.271 OA
ATOM     12  O   UNL d   1      14.635  13.594  -2.759  0.00  0.00    -0.267 OA
ENDROOT
BRANCH   1  13
ATOM     13  C   UNL d   1      14.611  13.103  -1.154  0.00  0.00     0.092 A 
ATOM     14  C   UNL d   1      15.335  12.771  -0.925  0.00  0.00     0.110 A 
ATOM     15  C   UNL d   1      15.791  13.145  -0.360  0.00  0.00     0.026 A 
ATOM     16  C   UNL d   1      15.533  13.849  -0.017  0.00  0.00     0.002 A 
ATOM     17  C   UNL d   1      14.823  14.169  -0.246  0.00  0.00     0.002 A 
ATOM     18  C   UNL d   1      14.361  13.797  -0.814  0.00  0.00     0.020 A 
BRANCH  14  19
ATOM     19  O   UNL d   1      15.570  12.071  -1.279  0.00  0.00    -0.327 OA
ATOM     20  C   UNL d   1      16.259  11.797  -1.189  0.00  0.00     0.181 C 
ENDBRANCH  14  19
ENDBRANCH   1  13
TORSDOF 2
ENDMDL
