MODEL 1
REMARK VINA RESULT:      -6.4      0.000      0.000
REMARK  1 active torsions:
REMARK  status: ('A' for Active; 'I' for Inactive)
REMARK    1  A    between atoms: C_6  and  C_2 
ROOT
ATOM      1  C   UNL d   1      57.309  -0.045  31.242  0.00  0.00     0.018 A 
ATOM      2  C   UNL d   1      57.034  -0.761  31.559  0.00  0.00     0.002 A 
ATOM      3  C   UNL d   1      56.494  -0.755  32.188  0.00  0.00     0.000 A 
ATOM      4  C   UNL d   1      57.049   0.662  31.549  0.00  0.00     0.002 A 
ATOM      5  C   UNL d   1      56.225  -0.024  32.505  0.00  0.00     0.000 A 
ATOM      6  C   UNL d   1      56.503   0.682  32.184  0.00  0.00     0.000 A 
ATOM      7  C   UNL d   1      56.225  -1.466  32.498  0.00  0.00     0.000 A 
ATOM      8  C   UNL d   1      55.694  -0.023  33.123  0.00  0.00     0.000 A 
ATOM      9  C   UNL d   1      55.685  -1.460  33.127  0.00  0.00     0.000 A 
ATOM     10  C   UNL d   1      55.425  -0.752  33.434  0.00  0.00     0.000 A 
ENDROOT
BRANCH   1  11
ATOM     11  C   UNL d   1      57.847  -0.053  30.616  0.00  0.00     0.090 A 
ATOM     12  N   UNL d   1      57.862  -0.480  29.943  0.00  0.00    -0.219 NA
ATOM     13  C   UNL d   1      58.532  -0.261  29.514  0.00  0.00     0.215 A 
ATOM     14  S   UNL d   1      58.919   0.319  29.963  0.00  0.00    -0.045 SA
ATOM     15  N   UNL d   1      58.777  -0.566  28.764  0.00  0.00    -0.120 N 
ATOM     16  C   UNL d   1      58.496   0.437  30.628  0.00  0.00     0.058 A 
ENDBRANCH   1  11
TORSDOF 1
ENDMDL
MODEL 2
REMARK VINA RESULT:      -6.2      2.650      4.058
REMARK  1 active torsions:
REMARK  status: ('A' for Active; 'I' for Inactive)
REMARK    1  A    between atoms: C_6  and  C_2 
ROOT
ATOM      1  C   UNL d   1      56.002  -0.121  33.011  0.00  0.00     0.018 A 
ATOM      2  C   UNL d   1      56.424   0.418  32.542  0.00  0.00     0.002 A 
ATOM      3  C   UNL d   1      56.871   0.145  31.899  0.00  0.00     0.000 A 
ATOM      4  C   UNL d   1      56.026  -0.916  32.839  0.00  0.00     0.002 A 
ATOM      5  C   UNL d   1      56.896  -0.676  31.722  0.00  0.00     0.000 A 
ATOM      6  C   UNL d   1      56.473  -1.204  32.193  0.00  0.00     0.000 A 
ATOM      7  C   UNL d   1      57.287   0.682  31.438  0.00  0.00     0.000 A 
ATOM      8  C   UNL d   1      57.336  -0.940  31.088  0.00  0.00     0.000 A 
ATOM      9  C   UNL d   1      57.733   0.409  30.795  0.00  0.00     0.000 A 
ATOM     10  C   UNL d   1      57.758  -0.386  30.623  0.00  0.00     0.000 A 
ENDROOT
BRANCH   1  11
ATOM     11  C   UNL d   1      55.557   0.153  33.651  0.00  0.00     0.090 A 
ATOM     12  N   UNL d   1      55.734   0.209  34.426  0.00  0.00    -0.219 NA
ATOM     13  C   UNL d   1      55.079   0.523  34.817  0.00  0.00     0.215 A 
ATOM     14  S   UNL d   1      54.500   0.653  34.239  0.00  0.00    -0.045 SA
ATOM     15  N   UNL d   1      55.010   0.682  35.645  0.00  0.00    -0.120 N 
ATOM     16  C   UNL d   1      54.799   0.426  33.536  0.00  0.00     0.058 A 
ENDBRANCH   1  11
TORSDOF 1
ENDMDL
MODEL 3
REMARK VINA RESULT:      -4.7      1.677      3.615
REMARK  1 active torsions:
REMARK  status: ('A' for Active; 'I' for Inactive)
REMARK    1  A    between atoms: C_6  and  C_2 
ROOT
ATOM      1  C   UNL d   1      57.371  -0.293  31.070  0.00  0.00     0.018 A 
ATOM      2  C   UNL d   1      57.760  -0.896  30.656  0.00  0.00     0.002 A 
ATOM      3  C   UNL d   1      58.229  -0.711  29.997  0.00  0.00     0.000 A 
ATOM      4  C   UNL d   1      57.448   0.481  30.830  0.00  0.00     0.002 A 
ATOM      5  C   UNL d   1      58.309   0.088  29.749  0.00  0.00     0.000 A 
ATOM      6  C   UNL d   1      57.918   0.682  30.167  0.00  0.00     0.000 A 
ATOM      7  C   UNL d   1      58.612  -1.312  29.591  0.00  0.00     0.000 A 
ATOM      8  C   UNL d   1      58.770   0.266  29.101  0.00  0.00     0.000 A 
ATOM      9  C   UNL d   1      59.081  -1.127  28.932  0.00  0.00     0.000 A 
ATOM     10  C   UNL d   1      59.158  -0.353  28.692  0.00  0.00     0.000 A 
ENDROOT
BRANCH   1  11
ATOM     11  C   UNL d   1      56.905  -0.479  31.726  0.00  0.00     0.090 A 
ATOM     12  N   UNL d   1      56.543  -1.157  31.937  0.00  0.00    -0.219 NA
ATOM     13  C   UNL d   1      56.150  -1.028  32.650  0.00  0.00     0.215 A 
ATOM     14  S   UNL d   1      56.292  -0.239  32.858  0.00  0.00    -0.045 SA
ATOM     15  N   UNL d   1      55.690  -1.590  33.085  0.00  0.00    -0.120 N 
ATOM     16  C   UNL d   1      56.750   0.085  32.292  0.00  0.00     0.058 A 
ENDBRANCH   1  11
TORSDOF 1
ENDMDL
MODEL 4
REMARK VINA RESULT:      -3.9      1.392      2.131
REMARK  1 active torsions:
REMARK  status: ('A' for Active; 'I' for Inactive)
REMARK    1  A    between atoms: C_6  and  C_2 
ROOT
ATOM      1  C   UNL d   1      58.325  -0.924  29.964  0.00  0.00     0.018 A 
ATOM      2  C   UNL d   1      57.819  -1.205  30.558  0.00  0.00     0.002 A 
ATOM      3  C   UNL d   1      57.415  -0.669  31.046  0.00  0.00     0.000 A 
ATOM      4  C   UNL d   1      58.426  -0.123  29.860  0.00  0.00     0.002 A 
ATOM      5  C   UNL d   1      57.520   0.158  30.939  0.00  0.00     0.000 A 
ATOM      6  C   UNL d   1      58.025   0.428  30.346  0.00  0.00     0.000 A 
ATOM      7  C   UNL d   1      56.916  -0.952  31.632  0.00  0.00     0.000 A 
ATOM      8  C   UNL d   1      57.122   0.682  31.420  0.00  0.00     0.000 A 
ATOM      9  C   UNL d   1      56.513  -0.416  32.120  0.00  0.00     0.000 A 
ATOM     10  C   UNL d   1      56.614   0.385  32.016  0.00  0.00     0.000 A 
ENDROOT
BRANCH   1  11
ATOM     11  C   UNL d   1      58.725  -1.460  29.480  0.00  0.00     0.090 A 
ATOM     12  N   UNL d   1      58.782  -2.254  29.509  0.00  0.00    -0.219 NA
ATOM     13  C   UNL d   1      59.256  -2.503  28.882  0.00  0.00     0.215 A 
ATOM     14  S   UNL d   1      59.483  -1.818  28.473  0.00  0.00    -0.045 SA
ATOM     15  N   UNL d   1      59.471  -3.299  28.692  0.00  0.00    -0.120 N 
ATOM     16  C   UNL d   1      59.156  -1.192  28.843  0.00  0.00     0.058 A 
ENDBRANCH   1  11
TORSDOF 1
ENDMDL
