MODEL 1
REMARK VINA RESULT:      17.0      0.000      0.000
REMARK  2 active torsions:
REMARK  status: ('A' for Active; 'I' for Inactive)
REMARK    1  A    between atoms: N_7  and  C_2 
REMARK    2  A    between atoms: C_10  and  N_7 
ROOT
ATOM      1  N   UNL d   1      57.453  49.676  51.014  0.00  0.00     0.002 N 
ATOM      2  C   UNL d   1      58.225  49.694  50.724  0.00  0.00     0.773 A 
ATOM      3  C   UNL d   1      56.825  49.671  50.483  0.00  0.00     0.317 A 
ATOM      4  N   UNL d   1      58.366  49.708  49.903  0.00  0.00     0.046 NA
ATOM      5  N   UNL d   1      57.733  49.703  49.383  0.00  0.00    -0.127 NA
ATOM      6  C   UNL d   1      56.966  49.685  49.662  0.00  0.00     0.162 A 
ATOM      7  O   UNL d   1      56.034  49.652  50.793  0.00  0.00    -0.263 OA
ATOM      8  N   UNL d   1      57.314  49.662  51.820  0.00  0.00    -0.023 N 
ATOM      9  C   UNL d   1      56.321  49.680  49.125  0.00  0.00     0.028 C 
ENDROOT
BRANCH   2  10
ATOM     10  N   UNL d   1      58.867  49.699  51.281  0.00  0.00    -0.058 NA
BRANCH  10  11
ATOM     11  C   UNL d   1      59.658  49.646  51.027  0.00  0.00     0.100 A 
ATOM     12  C   UNL d   1      59.817  49.583  50.229  0.00  0.00     0.020 A 
ATOM     13  C   UNL d   1      60.613  49.530  49.974  0.00  0.00     0.002 A 
ATOM     14  C   UNL d   1      61.213  49.542  50.528  0.00  0.00     0.000 A 
ATOM     15  C   UNL d   1      61.050  49.605  51.323  0.00  0.00     0.002 A 
ATOM     16  C   UNL d   1      60.255  49.658  51.578  0.00  0.00     0.020 A 
ENDBRANCH  10  11
ENDBRANCH   2  10
TORSDOF 2
ENDMDL
