MODEL 1
REMARK VINA RESULT:     123.6      0.000      0.000
REMARK  5 active torsions:
REMARK  status: ('A' for Active; 'I' for Inactive)
REMARK    1  A    between atoms: C_10  and  C_3 
REMARK    2  A    between atoms: N_9  and  C_4 
REMARK    3  A    between atoms: C_16  and  N_12 
REMARK    4  A    between atoms: O_21  and  C_15 
REMARK    5  A    between atoms: C_20  and  C_16 
ROOT
ATOM      1  N   UNL d   1     -55.130-101.481 -41.199  0.00  0.00    -0.196 N 
ATOM      2  C   UNL d   1     -55.018-101.151 -40.455  0.00  0.00     0.167 A 
ATOM      3  C   UNL d   1     -55.042-101.601 -39.815  0.00  0.00     0.057 A 
ATOM      4  C   UNL d   1     -55.100-100.991 -41.838  0.00  0.00     0.152 A 
ATOM      5  N   UNL d   1     -55.287-102.715 -40.615  0.00  0.00    -0.163 NA
ATOM      6  C   UNL d   1     -55.178-102.394 -39.892  0.00  0.00     0.104 A 
ATOM      7  N   UNL d   1     -54.882-100.351 -40.394  0.00  0.00    -0.227 NA
ATOM      8  C   UNL d   1     -54.967-100.215 -41.772  0.00  0.00     0.057 A 
ATOM      9  C   UNL d   1     -54.857 -99.890 -41.039  0.00  0.00     0.086 A 
ATOM     10  C   UNL d   1     -55.205-102.879 -39.219  0.00  0.00     0.023 C 
ATOM     11  C   UNL d   1     -54.717 -99.071 -40.968  0.00  0.00     0.021 C 
ENDROOT
BRANCH   4  12
ATOM     12  N   UNL d   1     -55.214-101.328 -42.598  0.00  0.00    -0.286 N 
ATOM     13  C   UNL d   1     -54.751-102.010 -42.576  0.00  0.00     0.101 A 
ATOM     14  C   UNL d   1     -54.713-102.513 -43.241  0.00  0.00     0.100 A 
ATOM     15  N   UNL d   1     -55.138-102.337 -43.933  0.00  0.00    -0.300 N 
ATOM     16  C   UNL d   1     -55.609-101.646 -43.958  0.00  0.00     0.100 A 
ATOM     17  C   UNL d   1     -55.652-101.136 -43.293  0.00  0.00     0.101 A 
BRANCH  15  18
ATOM     18  C   UNL d   1     -55.092-102.851 -44.597  0.00  0.00     0.080 C 
BRANCH  18  19
ATOM     19  C   UNL d   1     -55.161-102.531 -45.368  0.00  0.00     0.018 A 
ATOM     20  C   UNL d   1     -54.713-101.863 -45.581  0.00  0.00     0.002 A 
ATOM     21  C   UNL d   1     -54.782-101.543 -46.351  0.00  0.00     0.000 A 
ATOM     22  C   UNL d   1     -55.298-101.898 -46.891  0.00  0.00     0.000 A 
ATOM     23  C   UNL d   1     -55.749-102.568 -46.676  0.00  0.00     0.000 A 
ATOM     24  C   UNL d   1     -55.674-102.879 -45.911  0.00  0.00     0.002 A 
ENDBRANCH  18  19
ENDBRANCH  15  18
ENDBRANCH   4  12
BRANCH   3  25
ATOM     25  C   UNL d   1     -54.932-101.277 -39.086  0.00  0.00     0.027 A 
ATOM     26  C   UNL d   1     -54.931-101.747 -38.427  0.00  0.00     0.094 A 
ATOM     27  C   UNL d   1     -54.822-101.426 -37.702  0.00  0.00     0.024 A 
ATOM     28  C   UNL d   1     -54.713-100.633 -37.634  0.00  0.00     0.002 A 
ATOM     29  C   UNL d   1     -54.715-100.174 -38.288  0.00  0.00     0.000 A 
ATOM     30  C   UNL d   1     -54.822-100.491 -39.001  0.00  0.00     0.002 A 
BRANCH  26  31
ATOM     31  O   UNL d   1     -55.045-102.570 -38.509  0.00  0.00    -0.328 OA
ATOM     32  C   UNL d   1     -55.822-102.878 -38.573  0.00  0.00     0.181 C 
ENDBRANCH  26  31
ENDBRANCH   3  25
TORSDOF 5
ENDMDL
