MODEL 1
REMARK VINA RESULT:      -9.7      0.000      0.000
REMARK  5 active torsions:
REMARK  status: ('A' for Active; 'I' for Inactive)
REMARK    1  A    between atoms: C_13  and  C_5 
REMARK    2  A    between atoms: C_16  and  C_13 
REMARK    3  A    between atoms: C_19  and  C_16 
REMARK    4  A    between atoms: C_17  and  C_18 
REMARK    5  A    between atoms: C_18  and  C_19 
ROOT
ATOM      1  C   UNL d   1      53.516  33.375  54.257  0.00  0.00     0.111 A 
ATOM      2  C   UNL d   1      53.189  32.173  53.530  0.00  0.00     0.062 A 
ATOM      3  C   UNL d   1      53.976  32.941  54.767  0.00  0.00     0.213 A 
ATOM      4  C   UNL d   1      53.677  31.730  54.075  0.00  0.00     0.105 A 
ATOM      5  C   UNL d   1      53.112  32.989  53.624  0.00  0.00     0.018 A 
ATOM      6  O   UNL d   1      54.061  32.084  54.673  0.00  0.00    -0.287 OA
ATOM      7  C   UNL d   1      53.439  34.191  54.351  0.00  0.00     0.105 C 
ATOM      8  C   UNL d   1      52.806  31.779  52.923  0.00  0.00     0.198 A 
ATOM      9  N   UNL d   1      53.360  35.026  54.447  0.00  0.00    -0.191 NA
ATOM     10  N   UNL d   1      54.397  33.322  55.422  0.00  0.00    -0.120 N 
ATOM     11  O   UNL d   1      52.334  32.236  52.401  0.00  0.00    -0.286 OA
ATOM     12  C   UNL d   1      53.754  30.897  53.976  0.00  0.00     0.025 A 
ATOM     13  C   UNL d   1      52.887  30.960  52.832  0.00  0.00     0.042 A 
ATOM     14  C   UNL d   1      53.359  30.515  53.355  0.00  0.00     0.005 A 
ENDROOT
BRANCH   5  15
ATOM     15  C   UNL d   1      52.655  33.419  53.117  0.00  0.00     0.001 C 
BRANCH  15  16
ATOM     16  C   UNL d   1      51.926  33.695  53.341  0.00  0.00     0.000 C 
BRANCH  16  17
ATOM     17  C   UNL d   1      51.411  34.114  52.801  0.00  0.00     0.000 C 
BRANCH  17  18
ATOM     18  C   UNL d   1      50.648  34.297  53.035  0.00  0.00     0.000 C 
BRANCH  18  19
ATOM     19  C   UNL d   1      50.103  34.508  52.455  0.00  0.00     0.000 C 
ATOM     20  C   UNL d   1      49.419  34.885  52.662  0.00  0.00     0.000 C 
ENDBRANCH  18  19
ENDBRANCH  17  18
ENDBRANCH  16  17
ENDBRANCH  15  16
ENDBRANCH   5  15
TORSDOF 5
ENDMDL
MODEL 2
REMARK VINA RESULT:      -9.1      0.975      3.308
REMARK  5 active torsions:
REMARK  status: ('A' for Active; 'I' for Inactive)
REMARK    1  A    between atoms: C_13  and  C_5 
REMARK    2  A    between atoms: C_16  and  C_13 
REMARK    3  A    between atoms: C_19  and  C_16 
REMARK    4  A    between atoms: C_17  and  C_18 
REMARK    5  A    between atoms: C_18  and  C_19 
ROOT
ATOM      1  C   UNL d   1      53.492  33.721  54.339  0.00  0.00     0.111 A 
ATOM      2  C   UNL d   1      52.514  33.619  53.285  0.00  0.00     0.062 A 
ATOM      3  C   UNL d   1      53.184  34.441  54.555  0.00  0.00     0.213 A 
ATOM      4  C   UNL d   1      52.201  34.378  53.524  0.00  0.00     0.105 A 
ATOM      5  C   UNL d   1      53.155  33.297  53.692  0.00  0.00     0.018 A 
ATOM      6  O   UNL d   1      52.511  34.784  54.132  0.00  0.00    -0.287 OA
ATOM      7  C   UNL d   1      54.134  33.399  54.747  0.00  0.00     0.105 C 
ATOM      8  C   UNL d   1      52.172  33.224  52.654  0.00  0.00     0.198 A 
ATOM      9  N   UNL d   1      54.790  33.070  55.164  0.00  0.00    -0.191 NA
ATOM     10  N   UNL d   1      53.519  34.889  55.218  0.00  0.00    -0.120 N 
ATOM     11  O   UNL d   1      52.498  32.482  52.439  0.00  0.00    -0.286 OA
ATOM     12  C   UNL d   1      51.547  34.704  53.106  0.00  0.00     0.025 A 
ATOM     13  C   UNL d   1      51.529  33.552  52.248  0.00  0.00     0.042 A 
ATOM     14  C   UNL d   1      51.213  34.290  52.470  0.00  0.00     0.005 A 
ENDROOT
BRANCH   5  15
ATOM     15  C   UNL d   1      53.461  32.582  53.477  0.00  0.00     0.001 C 
BRANCH  15  16
ATOM     16  C   UNL d   1      53.329  31.918  53.923  0.00  0.00     0.000 C 
BRANCH  16  17
ATOM     17  C   UNL d   1      53.564  31.138  53.662  0.00  0.00     0.000 C 
BRANCH  17  18
ATOM     18  C   UNL d   1      53.367  30.486  54.115  0.00  0.00     0.000 C 
BRANCH  18  19
ATOM     19  C   UNL d   1      53.401  29.742  53.765  0.00  0.00     0.000 C 
ATOM     20  C   UNL d   1      53.383  29.078  54.224  0.00  0.00     0.000 C 
ENDBRANCH  18  19
ENDBRANCH  17  18
ENDBRANCH  16  17
ENDBRANCH  15  16
ENDBRANCH   5  15
TORSDOF 5
ENDMDL
MODEL 3
REMARK VINA RESULT:      -9.1      1.400      2.290
REMARK  5 active torsions:
REMARK  status: ('A' for Active; 'I' for Inactive)
REMARK    1  A    between atoms: C_13  and  C_5 
REMARK    2  A    between atoms: C_16  and  C_13 
REMARK    3  A    between atoms: C_19  and  C_16 
REMARK    4  A    between atoms: C_17  and  C_18 
REMARK    5  A    between atoms: C_18  and  C_19 
ROOT
ATOM      1  C   UNL d   1      53.233  32.148  53.506  0.00  0.00     0.111 A 
ATOM      2  C   UNL d   1      53.667  33.316  54.231  0.00  0.00     0.062 A 
ATOM      3  C   UNL d   1      53.696  31.680  53.982  0.00  0.00     0.213 A 
ATOM      4  C   UNL d   1      54.150  32.811  54.725  0.00  0.00     0.105 A 
ATOM      5  C   UNL d   1      53.214  32.983  53.628  0.00  0.00     0.018 A 
ATOM      6  O   UNL d   1      54.174  32.024  54.617  0.00  0.00    -0.287 OA
ATOM      7  C   UNL d   1      52.780  31.813  52.902  0.00  0.00     0.105 C 
ATOM      8  C   UNL d   1      53.663  34.124  54.366  0.00  0.00     0.198 A 
ATOM      9  N   UNL d   1      52.316  31.473  52.285  0.00  0.00    -0.191 NA
ATOM     10  N   UNL d   1      53.727  30.821  53.871  0.00  0.00    -0.120 N 
ATOM     11  O   UNL d   1      53.182  34.598  53.869  0.00  0.00    -0.286 OA
ATOM     12  C   UNL d   1      54.611  33.154  55.339  0.00  0.00     0.025 A 
ATOM     13  C   UNL d   1      54.120  34.454  54.973  0.00  0.00     0.042 A 
ATOM     14  C   UNL d   1      54.595  33.974  55.462  0.00  0.00     0.005 A 
ENDROOT
BRANCH   5  15
ATOM     15  C   UNL d   1      52.754  33.447  53.155  0.00  0.00     0.001 C 
BRANCH  15  16
ATOM     16  C   UNL d   1      51.948  33.465  53.240  0.00  0.00     0.000 C 
BRANCH  16  17
ATOM     17  C   UNL d   1      51.448  33.959  52.752  0.00  0.00     0.000 C 
BRANCH  17  18
ATOM     18  C   UNL d   1      50.662  34.062  52.957  0.00  0.00     0.000 C 
BRANCH  18  19
ATOM     19  C   UNL d   1      50.161  34.423  52.413  0.00  0.00     0.000 C 
ATOM     20  C   UNL d   1      49.487  34.789  52.666  0.00  0.00     0.000 C 
ENDBRANCH  18  19
ENDBRANCH  17  18
ENDBRANCH  16  17
ENDBRANCH  15  16
ENDBRANCH   5  15
TORSDOF 5
ENDMDL
MODEL 4
REMARK VINA RESULT:      -8.8      1.534      3.383
REMARK  5 active torsions:
REMARK  status: ('A' for Active; 'I' for Inactive)
REMARK    1  A    between atoms: C_13  and  C_5 
REMARK    2  A    between atoms: C_16  and  C_13 
REMARK    3  A    between atoms: C_19  and  C_16 
REMARK    4  A    between atoms: C_17  and  C_18 
REMARK    5  A    between atoms: C_18  and  C_19 
ROOT
ATOM      1  C   UNL d   1      52.596  33.709  53.343  0.00  0.00     0.111 A 
ATOM      2  C   UNL d   1      53.784  33.489  54.130  0.00  0.00     0.062 A 
ATOM      3  C   UNL d   1      52.469  34.411  53.730  0.00  0.00     0.213 A 
ATOM      4  C   UNL d   1      53.637  34.231  54.529  0.00  0.00     0.105 A 
ATOM      5  C   UNL d   1      53.265  33.234  53.542  0.00  0.00     0.018 A 
ATOM      6  O   UNL d   1      53.011  34.685  54.348  0.00  0.00    -0.287 OA
ATOM      7  C   UNL d   1      52.076  33.453  52.754  0.00  0.00     0.105 C 
ATOM      8  C   UNL d   1      54.439  33.044  54.339  0.00  0.00     0.198 A 
ATOM      9  N   UNL d   1      51.545  33.192  52.153  0.00  0.00    -0.191 NA
ATOM     10  N   UNL d   1      51.788  34.911  53.537  0.00  0.00    -0.120 N 
ATOM     11  O   UNL d   1      54.561  32.320  53.933  0.00  0.00    -0.286 OA
ATOM     12  C   UNL d   1      54.169  34.489  55.128  0.00  0.00     0.025 A 
ATOM     13  C   UNL d   1      54.957  33.304  54.930  0.00  0.00     0.042 A 
ATOM     14  C   UNL d   1      54.827  34.025  55.327  0.00  0.00     0.005 A 
ENDROOT
BRANCH   5  15
ATOM     15  C   UNL d   1      53.391  32.536  53.157  0.00  0.00     0.001 C 
BRANCH  15  16
ATOM     16  C   UNL d   1      52.925  31.887  53.301  0.00  0.00     0.000 C 
BRANCH  16  17
ATOM     17  C   UNL d   1      53.119  31.111  52.999  0.00  0.00     0.000 C 
BRANCH  17  18
ATOM     18  C   UNL d   1      52.669  30.467  53.230  0.00  0.00     0.000 C 
BRANCH  18  19
ATOM     19  C   UNL d   1      53.011  29.719  53.193  0.00  0.00     0.000 C 
ATOM     20  C   UNL d   1      52.996  29.235  53.840  0.00  0.00     0.000 C 
ENDBRANCH  18  19
ENDBRANCH  17  18
ENDBRANCH  16  17
ENDBRANCH  15  16
ENDBRANCH   5  15
TORSDOF 5
ENDMDL
MODEL 5
REMARK VINA RESULT:      -7.2      1.498      3.105
REMARK  5 active torsions:
REMARK  status: ('A' for Active; 'I' for Inactive)
REMARK    1  A    between atoms: C_13  and  C_5 
REMARK    2  A    between atoms: C_16  and  C_13 
REMARK    3  A    between atoms: C_19  and  C_16 
REMARK    4  A    between atoms: C_17  and  C_18 
REMARK    5  A    between atoms: C_18  and  C_19 
ROOT
ATOM      1  C   UNL d   1      52.403  32.707  53.155  0.00  0.00     0.111 A 
ATOM      2  C   UNL d   1      53.029  31.417  53.305  0.00  0.00     0.062 A 
ATOM      3  C   UNL d   1      51.700  32.344  52.970  0.00  0.00     0.213 A 
ATOM      4  C   UNL d   1      52.283  31.049  53.109  0.00  0.00     0.105 A 
ATOM      5  C   UNL d   1      53.084  32.239  53.327  0.00  0.00     0.018 A 
ATOM      6  O   UNL d   1      51.636  31.480  52.945  0.00  0.00    -0.287 OA
ATOM      7  C   UNL d   1      52.457  33.530  53.177  0.00  0.00     0.105 C 
ATOM      8  C   UNL d   1      53.678  30.945  53.469  0.00  0.00     0.198 A 
ATOM      9  N   UNL d   1      52.514  34.372  53.199  0.00  0.00    -0.191 NA
ATOM     10  N   UNL d   1      50.991  32.809  52.790  0.00  0.00    -0.120 N 
ATOM     11  O   UNL d   1      54.399  31.330  53.660  0.00  0.00    -0.286 OA
ATOM     12  C   UNL d   1      52.230  30.209  53.087  0.00  0.00     0.025 A 
ATOM     13  C   UNL d   1      53.618  30.119  53.446  0.00  0.00     0.042 A 
ATOM     14  C   UNL d   1      52.898  29.747  53.256  0.00  0.00     0.005 A 
ENDROOT
BRANCH   5  15
ATOM     15  C   UNL d   1      53.782  32.600  53.512  0.00  0.00     0.001 C 
BRANCH  15  16
ATOM     16  C   UNL d   1      53.901  32.937  54.240  0.00  0.00     0.000 C 
BRANCH  16  17
ATOM     17  C   UNL d   1      54.638  33.316  54.452  0.00  0.00     0.000 C 
BRANCH  17  18
ATOM     18  C   UNL d   1      54.821  33.423  55.243  0.00  0.00     0.000 C 
BRANCH  18  19
ATOM     19  C   UNL d   1      55.216  34.111  55.462  0.00  0.00     0.000 C 
ATOM     20  C   UNL d   1      55.939  34.280  55.145  0.00  0.00     0.000 C 
ENDBRANCH  18  19
ENDBRANCH  17  18
ENDBRANCH  16  17
ENDBRANCH  15  16
ENDBRANCH   5  15
TORSDOF 5
ENDMDL
MODEL 6
REMARK VINA RESULT:      -6.8      1.604      3.658
REMARK  5 active torsions:
REMARK  status: ('A' for Active; 'I' for Inactive)
REMARK    1  A    between atoms: C_13  and  C_5 
REMARK    2  A    between atoms: C_16  and  C_13 
REMARK    3  A    between atoms: C_19  and  C_16 
REMARK    4  A    between atoms: C_17  and  C_18 
REMARK    5  A    between atoms: C_18  and  C_19 
ROOT
ATOM      1  C   UNL d   1      52.700  31.839  53.294  0.00  0.00     0.111 A 
ATOM      2  C   UNL d   1      52.143  33.162  53.161  0.00  0.00     0.062 A 
ATOM      3  C   UNL d   1      51.971  31.517  53.136  0.00  0.00     0.213 A 
ATOM      4  C   UNL d   1      51.382  32.809  52.996  0.00  0.00     0.105 A 
ATOM      5  C   UNL d   1      52.794  32.677  53.308  0.00  0.00     0.018 A 
ATOM      6  O   UNL d   1      51.284  32.020  52.980  0.00  0.00    -0.287 OA
ATOM      7  C   UNL d   1      53.351  31.353  53.441  0.00  0.00     0.105 C 
ATOM      8  C   UNL d   1      52.213  33.978  53.170  0.00  0.00     0.198 A 
ATOM      9  N   UNL d   1      54.017  30.857  53.592  0.00  0.00    -0.191 NA
ATOM     10  N   UNL d   1      51.857  30.657  53.117  0.00  0.00    -0.120 N 
ATOM     11  O   UNL d   1      52.969  34.301  53.335  0.00  0.00    -0.286 OA
ATOM     12  C   UNL d   1      50.720  33.306  52.846  0.00  0.00     0.025 A 
ATOM     13  C   UNL d   1      51.556  34.461  53.022  0.00  0.00     0.042 A 
ATOM     14  C   UNL d   1      50.809  34.130  52.860  0.00  0.00     0.005 A 
ENDROOT
BRANCH   5  15
ATOM     15  C   UNL d   1      53.518  32.998  53.466  0.00  0.00     0.001 C 
BRANCH  15  16
ATOM     16  C   UNL d   1      53.840  32.963  54.209  0.00  0.00     0.000 C 
BRANCH  16  17
ATOM     17  C   UNL d   1      54.578  33.348  54.406  0.00  0.00     0.000 C 
BRANCH  17  18
ATOM     18  C   UNL d   1      54.841  33.340  55.181  0.00  0.00     0.000 C 
BRANCH  18  19
ATOM     19  C   UNL d   1      55.243  34.000  55.463  0.00  0.00     0.000 C 
ATOM     20  C   UNL d   1      55.939  34.226  55.121  0.00  0.00     0.000 C 
ENDBRANCH  18  19
ENDBRANCH  17  18
ENDBRANCH  16  17
ENDBRANCH  15  16
ENDBRANCH   5  15
TORSDOF 5
ENDMDL
