MODEL 1
REMARK VINA RESULT:      66.0      0.000      0.000
REMARK  10 active torsions:
REMARK  status: ('A' for Active; 'I' for Inactive)
REMARK    1  A    between atoms: C_7  and  C_1 
REMARK    2  A    between atoms: C_8  and  C_2 
REMARK    3  A    between atoms: O_24  and  C_8 
REMARK    4  A    between atoms: O_25  and  C_12 
REMARK    5  A    between atoms: C_14  and  C_22 
REMARK    6  A    between atoms: O_26  and  C_14 
REMARK    7  A    between atoms: O_27  and  C_16 
REMARK    8  A    between atoms: O_21  and  C_20 
REMARK    9  A    between atoms: C_22  and  O_21 
REMARK   10  A    between atoms: C_28  and  O_24 
ROOT
ATOM      1  C   UNL d   1      45.796 -18.458  41.607  0.00  0.00     0.067 A 
ATOM      2  C   UNL d   1      45.266 -18.942  41.189  0.00  0.00     0.166 A 
ATOM      3  C   UNL d   1      46.116 -17.777  41.239  0.00  0.00     0.200 A 
ATOM      4  O   UNL d   1      45.050 -18.753  40.402  0.00  0.00    -0.301 OA
ATOM      5  C   UNL d   1      45.906 -17.588  40.469  0.00  0.00     0.062 A 
ATOM      6  C   UNL d   1      45.372 -18.075  40.047  0.00  0.00     0.105 A 
ATOM      7  C   UNL d   1      45.160 -17.885  39.267  0.00  0.00     0.050 A 
ATOM      8  C   UNL d   1      46.218 -16.913  40.095  0.00  0.00     0.007 A 
ATOM      9  O   UNL d   1      46.642 -17.298  41.659  0.00  0.00    -0.286 OA
ATOM     10  C   UNL d   1      45.479 -17.210  38.910  0.00  0.00     0.102 A 
ATOM     11  C   UNL d   1      46.006 -16.726  39.322  0.00  0.00     0.025 A 
ENDROOT
BRANCH   1  12
ATOM     12  C   UNL d   1      46.008 -18.645  42.380  0.00  0.00     0.007 A 
ATOM     13  C   UNL d   1      45.901 -18.079  42.977  0.00  0.00     0.026 A 
ATOM     14  C   UNL d   1      46.116 -18.274  43.752  0.00  0.00     0.116 A 
ATOM     15  C   UNL d   1      46.433 -19.020  43.926  0.00  0.00     0.116 A 
ATOM     16  C   UNL d   1      46.536 -19.575  43.327  0.00  0.00     0.026 A 
ATOM     17  C   UNL d   1      46.323 -19.387  42.554  0.00  0.00     0.002 A 
BRANCH  14  18
ATOM     18  O   UNL d   1      46.013 -17.719  44.351  0.00  0.00    -0.326 OA
ATOM     19  C   UNL d   1      45.628 -17.006  44.193  0.00  0.00     0.181 C 
ENDBRANCH  14  18
BRANCH  15  20
ATOM     20  O   UNL d   1      46.644 -19.204  44.698  0.00  0.00    -0.326 OA
ATOM     21  C   UNL d   1      46.609 -19.991  44.954  0.00  0.00     0.181 C 
ENDBRANCH  15  20
ENDBRANCH   1  12
BRANCH   2  22
ATOM     22  C   UNL d   1      44.953 -19.612  41.552  0.00  0.00     0.323 C 
ATOM     23  O   UNL d   1      45.352 -20.330  41.521  0.00  0.00    -0.257 OA
BRANCH  22  24
ATOM     24  O   UNL d   1      44.225 -19.566  41.954  0.00  0.00    -0.270 OA
BRANCH  24  25
ATOM     25  C   UNL d   1      43.536 -19.836  41.593  0.00  0.00     0.126 C 
ATOM     26  C   UNL d   1      42.937 -20.176  42.047  0.00  0.00     0.029 C 
ENDBRANCH  24  25
ENDBRANCH  22  24
ENDBRANCH   2  22
BRANCH  10  27
ATOM     27  O   UNL d   1      45.266 -17.024  38.137  0.00  0.00    -0.300 OA
BRANCH  27  28
ATOM     28  C   UNL d   1      44.757 -16.400  37.987  0.00  0.00     0.191 C 
BRANCH  28  29
ATOM     29  C   UNL d   1      44.445 -16.293  37.230  0.00  0.00     0.321 C 
ATOM     30  O   UNL d   1      43.710 -16.611  37.033  0.00  0.00    -0.257 OA
BRANCH  29  31
ATOM     31  O   UNL d   1      44.866 -15.868  36.665  0.00  0.00    -0.294 OA
ATOM     32  C   UNL d   1      45.096 -15.091  36.810  0.00  0.00     0.185 C 
ENDBRANCH  29  31
ENDBRANCH  28  29
ENDBRANCH  27  28
ENDBRANCH  10  27
TORSDOF 10
ENDMDL
MODEL 2
REMARK VINA RESULT:      68.8      3.471      6.335
REMARK  10 active torsions:
REMARK  status: ('A' for Active; 'I' for Inactive)
REMARK    1  A    between atoms: C_7  and  C_1 
REMARK    2  A    between atoms: C_8  and  C_2 
REMARK    3  A    between atoms: O_24  and  C_8 
REMARK    4  A    between atoms: O_25  and  C_12 
REMARK    5  A    between atoms: C_14  and  C_22 
REMARK    6  A    between atoms: O_26  and  C_14 
REMARK    7  A    between atoms: O_27  and  C_16 
REMARK    8  A    between atoms: O_21  and  C_20 
REMARK    9  A    between atoms: C_22  and  O_21 
REMARK   10  A    between atoms: C_28  and  O_24 
ROOT
ATOM      1  C   UNL d   1      43.921 -15.610  36.972  0.00  0.00     0.067 A 
ATOM      2  C   UNL d   1      43.939 -16.400  37.228  0.00  0.00     0.166 A 
ATOM      3  C   UNL d   1      43.207 -15.283  36.680  0.00  0.00     0.200 A 
ATOM      4  O   UNL d   1      43.246 -16.870  37.197  0.00  0.00    -0.301 OA
ATOM      5  C   UNL d   1      42.527 -15.740  36.649  0.00  0.00     0.062 A 
ATOM      6  C   UNL d   1      42.544 -16.536  36.907  0.00  0.00     0.105 A 
ATOM      7  C   UNL d   1      41.856 -17.000  36.875  0.00  0.00     0.050 A 
ATOM      8  C   UNL d   1      41.814 -15.424  36.361  0.00  0.00     0.007 A 
ATOM      9  O   UNL d   1      43.195 -14.497  36.426  0.00  0.00    -0.286 OA
ATOM     10  C   UNL d   1      41.153 -16.670  36.586  0.00  0.00     0.102 A 
ATOM     11  C   UNL d   1      41.132 -15.886  36.330  0.00  0.00     0.025 A 
ENDROOT
BRANCH   1  12
ATOM     12  C   UNL d   1      44.603 -15.149  37.002  0.00  0.00     0.007 A 
ATOM     13  C   UNL d   1      44.639 -14.518  37.540  0.00  0.00     0.026 A 
ATOM     14  C   UNL d   1      45.327 -14.058  37.565  0.00  0.00     0.116 A 
ATOM     15  C   UNL d   1      45.965 -14.226  37.063  0.00  0.00     0.116 A 
ATOM     16  C   UNL d   1      45.919 -14.855  36.532  0.00  0.00     0.026 A 
ATOM     17  C   UNL d   1      45.237 -15.316  36.503  0.00  0.00     0.002 A 
BRANCH  14  18
ATOM     18  O   UNL d   1      45.373 -13.430  38.095  0.00  0.00    -0.326 OA
ATOM     19  C   UNL d   1      44.752 -12.890  38.152  0.00  0.00     0.181 C 
ENDBRANCH  14  18
BRANCH  15  20
ATOM     20  O   UNL d   1      46.644 -13.765  37.095  0.00  0.00    -0.326 OA
ATOM     21  C   UNL d   1      46.630 -12.997  36.786  0.00  0.00     0.181 C 
ENDBRANCH  15  20
ENDBRANCH   1  12
BRANCH   2  22
ATOM     22  C   UNL d   1      44.641 -16.721  37.515  0.00  0.00     0.323 C 
ATOM     23  O   UNL d   1      45.324 -16.706  37.058  0.00  0.00    -0.257 OA
BRANCH  22  24
ATOM     24  O   UNL d   1      44.663 -17.065  38.273  0.00  0.00    -0.270 OA
BRANCH  24  25
ATOM     25  C   UNL d   1      45.381 -17.302  38.598  0.00  0.00     0.126 C 
ATOM     26  C   UNL d   1      45.396 -17.709  39.316  0.00  0.00     0.029 C 
ENDBRANCH  24  25
ENDBRANCH  22  24
ENDBRANCH   2  22
BRANCH  10  27
ATOM     27  O   UNL d   1      40.473 -17.132  36.556  0.00  0.00    -0.300 OA
BRANCH  27  28
ATOM     28  C   UNL d   1      39.740 -16.783  36.441  0.00  0.00     0.191 C 
BRANCH  28  29
ATOM     29  C   UNL d   1      39.057 -17.156  36.715  0.00  0.00     0.321 C 
ATOM     30  O   UNL d   1      38.319 -16.950  36.410  0.00  0.00    -0.257 OA
BRANCH  29  31
ATOM     31  O   UNL d   1      39.107 -17.738  37.294  0.00  0.00    -0.294 OA
ATOM     32  C   UNL d   1      39.021 -18.533  37.098  0.00  0.00     0.185 C 
ENDBRANCH  29  31
ENDBRANCH  28  29
ENDBRANCH  27  28
ENDBRANCH  10  27
TORSDOF 10
ENDMDL
