MODEL 1
REMARK VINA RESULT:      -8.6      0.000      0.000
REMARK  1 active torsions:
REMARK  status: ('A' for Active; 'I' for Inactive)
REMARK    1  A    between atoms: C_4  and  C_1 
ROOT
ATOM      1  C   UNL d   1      53.754  31.776  53.896  0.00  0.00     0.168 A 
ATOM      2  N   UNL d   1      54.311  32.261  53.534  0.00  0.00    -0.225 NA
ATOM      3  N   UNL d   1      53.666  32.029  54.682  0.00  0.00    -0.225 NA
ATOM      4  C   UNL d   1      54.571  32.816  54.095  0.00  0.00     0.101 A 
ATOM      5  C   UNL d   1      54.172  32.671  54.802  0.00  0.00     0.101 A 
ATOM      6  C   UNL d   1      55.122  33.434  54.047  0.00  0.00     0.021 A 
ATOM      7  C   UNL d   1      54.329  33.152  55.466  0.00  0.00     0.021 A 
ATOM      8  C   UNL d   1      55.273  33.906  54.704  0.00  0.00     0.002 A 
ATOM      9  C   UNL d   1      54.877  33.765  55.414  0.00  0.00     0.002 A 
ENDROOT
BRANCH   1  10
ATOM     10  C   UNL d   1      53.350  31.149  53.545  0.00  0.00     0.065 A 
ATOM     11  S   UNL d   1      52.840  31.088  53.037  0.00  0.00    -0.083 SA
ATOM     12  C   UNL d   1      52.600  30.435  52.854  0.00  0.00     0.035 A 
ATOM     13  C   UNL d   1      52.860  29.845  53.169  0.00  0.00     0.008 A 
ATOM     14  C   UNL d   1      53.369  29.907  53.677  0.00  0.00     0.010 A 
ENDBRANCH   1  10
TORSDOF 1
ENDMDL
MODEL 2
REMARK VINA RESULT:      -8.2      1.744      3.467
REMARK  1 active torsions:
REMARK  status: ('A' for Active; 'I' for Inactive)
REMARK    1  A    between atoms: C_4  and  C_1 
ROOT
ATOM      1  C   UNL d   1      53.110  32.914  53.720  0.00  0.00     0.168 A 
ATOM      2  N   UNL d   1      52.594  32.498  53.234  0.00  0.00    -0.225 NA
ATOM      3  N   UNL d   1      53.674  32.379  54.013  0.00  0.00    -0.225 NA
ATOM      4  C   UNL d   1      52.836  31.704  53.222  0.00  0.00     0.101 A 
ATOM      5  C   UNL d   1      53.502  31.633  53.704  0.00  0.00     0.101 A 
ATOM      6  C   UNL d   1      52.531  31.038  52.833  0.00  0.00     0.021 A 
ATOM      7  C   UNL d   1      53.864  30.886  53.794  0.00  0.00     0.021 A 
ATOM      8  C   UNL d   1      52.891  30.303  52.925  0.00  0.00     0.002 A 
ATOM      9  C   UNL d   1      53.558  30.227  53.405  0.00  0.00     0.002 A 
ENDROOT
BRANCH   1  10
ATOM     10  C   UNL d   1      53.078  33.719  53.892  0.00  0.00     0.065 A 
ATOM     11  S   UNL d   1      53.221  34.127  54.471  0.00  0.00    -0.083 SA
ATOM     12  C   UNL d   1      53.132  34.839  54.433  0.00  0.00     0.035 A 
ATOM     13  C   UNL d   1      52.903  35.150  53.829  0.00  0.00     0.008 A 
ATOM     14  C   UNL d   1      52.761  34.744  53.250  0.00  0.00     0.010 A 
ENDBRANCH   1  10
TORSDOF 1
ENDMDL
MODEL 3
REMARK VINA RESULT:      -8.1      2.507      2.778
REMARK  1 active torsions:
REMARK  status: ('A' for Active; 'I' for Inactive)
REMARK    1  A    between atoms: C_4  and  C_1 
ROOT
ATOM      1  C   UNL d   1      52.393  33.696  53.573  0.00  0.00     0.168 A 
ATOM      2  N   UNL d   1      52.943  33.111  53.394  0.00  0.00    -0.225 NA
ATOM      3  N   UNL d   1      52.694  34.146  54.203  0.00  0.00    -0.225 NA
ATOM      4  C   UNL d   1      53.586  33.197  53.912  0.00  0.00     0.101 A 
ATOM      5  C   UNL d   1      53.430  33.836  54.410  0.00  0.00     0.101 A 
ATOM      6  C   UNL d   1      54.294  32.771  53.990  0.00  0.00     0.021 A 
ATOM      7  C   UNL d   1      53.991  34.048  54.991  0.00  0.00     0.021 A 
ATOM      8  C   UNL d   1      54.844  32.984  54.565  0.00  0.00     0.002 A 
ATOM      9  C   UNL d   1      54.693  33.622  55.065  0.00  0.00     0.002 A 
ENDROOT
BRANCH   1  10
ATOM     10  C   UNL d   1      51.669  33.818  53.198  0.00  0.00     0.065 A 
ATOM     11  S   UNL d   1      50.978  33.687  53.362  0.00  0.00    -0.083 SA
ATOM     12  C   UNL d   1      50.463  33.870  52.894  0.00  0.00     0.035 A 
ATOM     13  C   UNL d   1      50.627  34.179  52.268  0.00  0.00     0.008 A 
ATOM     14  C   UNL d   1      51.317  34.310  52.105  0.00  0.00     0.010 A 
ENDBRANCH   1  10
TORSDOF 1
ENDMDL
MODEL 4
REMARK VINA RESULT:      -7.9      2.639      3.710
REMARK  1 active torsions:
REMARK  status: ('A' for Active; 'I' for Inactive)
REMARK    1  A    between atoms: C_4  and  C_1 
ROOT
ATOM      1  C   UNL d   1      52.989  33.583  53.766  0.00  0.00     0.168 A 
ATOM      2  N   UNL d   1      52.261  33.261  53.974  0.00  0.00    -0.225 NA
ATOM      3  N   UNL d   1      52.871  34.085  53.115  0.00  0.00    -0.225 NA
ATOM      4  C   UNL d   1      51.689  33.562  53.452  0.00  0.00     0.101 A 
ATOM      5  C   UNL d   1      52.068  34.070  52.923  0.00  0.00     0.101 A 
ATOM      6  C   UNL d   1      50.871  33.435  53.394  0.00  0.00     0.021 A 
ATOM      7  C   UNL d   1      51.620  34.452  52.332  0.00  0.00     0.021 A 
ATOM      8  C   UNL d   1      50.434  33.815  52.809  0.00  0.00     0.002 A 
ATOM      9  C   UNL d   1      50.808  34.324  52.278  0.00  0.00     0.002 A 
ENDROOT
BRANCH   1  10
ATOM     10  C   UNL d   1      53.711  33.438  54.136  0.00  0.00     0.065 A 
ATOM     11  S   UNL d   1      54.269  32.995  54.015  0.00  0.00    -0.083 SA
ATOM     12  C   UNL d   1      54.833  33.008  54.460  0.00  0.00     0.035 A 
ATOM     13  C   UNL d   1      54.849  33.454  55.022  0.00  0.00     0.008 A 
ATOM     14  C   UNL d   1      54.292  33.896  55.143  0.00  0.00     0.010 A 
ENDBRANCH   1  10
TORSDOF 1
ENDMDL
