MODEL 1
REMARK VINA RESULT:       0.7      0.000      0.000
REMARK  3 active torsions:
REMARK  status: ('A' for Active; 'I' for Inactive)
REMARK    1  A    between atoms: C_7  and  C_1 
REMARK    2  A    between atoms: O_20  and  C_12 
REMARK    3  A    between atoms: O_22  and  C_16 
ROOT
ATOM      1  C   UNL d   1      32.950  20.330 -22.708  0.00  0.00     0.062 A 
ATOM      2  C   UNL d   1      32.832  19.514 -22.580  0.00  0.00     0.202 A 
ATOM      3  C   UNL d   1      32.887  18.980 -23.210  0.00  0.00     0.101 A 
ATOM      4  C   UNL d   1      33.125  20.609 -23.478  0.00  0.00     0.103 A 
ATOM      5  C   UNL d   1      33.062  19.262 -23.978  0.00  0.00     0.109 A 
ATOM      6  O   UNL d   1      33.180  20.068 -24.114  0.00  0.00    -0.307 OA
ATOM      7  C   UNL d   1      32.771  18.177 -23.082  0.00  0.00     0.204 A 
ATOM      8  C   UNL d   1      33.117  18.728 -24.608  0.00  0.00     0.067 A 
ATOM      9  C   UNL d   1      32.826  17.647 -23.710  0.00  0.00     0.084 A 
ATOM     10  O   UNL d   1      32.660  19.240 -21.822  0.00  0.00    -0.286 OA
ATOM     11  C   UNL d   1      32.998  17.921 -24.469  0.00  0.00     0.201 A 
ATOM     12  O   UNL d   1      32.598  17.902 -22.323  0.00  0.00    -0.286 OA
ATOM     13  C   UNL d   1      33.240  21.410 -23.602  0.00  0.00     0.027 C 
ATOM     14  O   UNL d   1      33.054  17.392 -25.096  0.00  0.00    -0.286 OA
ENDROOT
BRANCH   1  15
ATOM     15  C   UNL d   1      32.895  20.856 -22.081  0.00  0.00     0.007 A 
ATOM     16  C   UNL d   1      32.495  21.569 -22.182  0.00  0.00     0.026 A 
ATOM     17  C   UNL d   1      32.438  22.099 -21.554  0.00  0.00     0.116 A 
ATOM     18  C   UNL d   1      32.784  21.914 -20.819  0.00  0.00     0.116 A 
ATOM     19  C   UNL d   1      33.183  21.196 -20.729  0.00  0.00     0.026 A 
ATOM     20  C   UNL d   1      33.240  20.666 -21.356  0.00  0.00     0.002 A 
BRANCH  17  21
ATOM     21  O   UNL d   1      32.037  22.816 -21.653  0.00  0.00    -0.326 OA
ATOM     22  C   UNL d   1      32.393  23.428 -22.076  0.00  0.00     0.181 C 
ENDBRANCH  17  21
BRANCH  18  23
ATOM     23  O   UNL d   1      32.726  22.444 -20.192  0.00  0.00    -0.326 OA
ATOM     24  C   UNL d   1      32.856  22.185 -19.418  0.00  0.00     0.181 C 
ENDBRANCH  18  23
ENDBRANCH   1  15
TORSDOF 3
ENDMDL
MODEL 2
REMARK VINA RESULT:       1.0      0.916      4.183
REMARK  3 active torsions:
REMARK  status: ('A' for Active; 'I' for Inactive)
REMARK    1  A    between atoms: C_7  and  C_1 
REMARK    2  A    between atoms: O_20  and  C_12 
REMARK    3  A    between atoms: O_22  and  C_16 
ROOT
ATOM      1  C   UNL d   1      33.080  20.278 -22.551  0.00  0.00     0.062 A 
ATOM      2  C   UNL d   1      33.000  20.391 -21.728  0.00  0.00     0.202 A 
ATOM      3  C   UNL d   1      33.000  21.155 -21.409  0.00  0.00     0.101 A 
ATOM      4  C   UNL d   1      33.161  20.941 -23.054  0.00  0.00     0.103 A 
ATOM      5  C   UNL d   1      33.081  21.816 -21.916  0.00  0.00     0.109 A 
ATOM      6  O   UNL d   1      33.161  21.713 -22.731  0.00  0.00    -0.307 OA
ATOM      7  C   UNL d   1      32.920  21.264 -20.598  0.00  0.00     0.204 A 
ATOM      8  C   UNL d   1      33.081  22.579 -21.597  0.00  0.00     0.067 A 
ATOM      9  C   UNL d   1      32.920  22.025 -20.283  0.00  0.00     0.084 A 
ATOM     10  O   UNL d   1      32.920  19.737 -21.231  0.00  0.00    -0.286 OA
ATOM     11  C   UNL d   1      33.000  22.679 -20.780  0.00  0.00     0.201 A 
ATOM     12  O   UNL d   1      32.840  20.610 -20.101  0.00  0.00    -0.286 OA
ATOM     13  C   UNL d   1      33.240  20.829 -23.862  0.00  0.00     0.027 C 
ATOM     14  O   UNL d   1      33.000  23.439 -20.464  0.00  0.00    -0.286 OA
ENDROOT
BRANCH   1  15
ATOM     15  C   UNL d   1      33.080  19.520 -22.863  0.00  0.00     0.007 A 
ATOM     16  C   UNL d   1      32.918  19.409 -23.662  0.00  0.00     0.026 A 
ATOM     17  C   UNL d   1      32.917  18.648 -23.978  0.00  0.00     0.116 A 
ATOM     18  C   UNL d   1      33.079  17.993 -23.489  0.00  0.00     0.116 A 
ATOM     19  C   UNL d   1      33.240  18.116 -22.688  0.00  0.00     0.026 A 
ATOM     20  C   UNL d   1      33.241  18.876 -22.372  0.00  0.00     0.002 A 
BRANCH  17  21
ATOM     21  O   UNL d   1      32.755  18.534 -24.781  0.00  0.00    -0.326 OA
ATOM     22  C   UNL d   1      31.972  18.503 -25.040  0.00  0.00     0.181 C 
ENDBRANCH  17  21
BRANCH  18  23
ATOM     23  O   UNL d   1      33.078  17.232 -23.806  0.00  0.00    -0.326 OA
ATOM     24  C   UNL d   1      33.134  16.576 -23.307  0.00  0.00     0.181 C 
ENDBRANCH  18  23
ENDBRANCH   1  15
TORSDOF 3
ENDMDL
MODEL 3
REMARK VINA RESULT:       2.2      3.686      5.758
REMARK  3 active torsions:
REMARK  status: ('A' for Active; 'I' for Inactive)
REMARK    1  A    between atoms: C_7  and  C_1 
REMARK    2  A    between atoms: O_20  and  C_12 
REMARK    3  A    between atoms: O_22  and  C_16 
ROOT
ATOM      1  C   UNL d   1      30.170  16.776 -24.035  0.00  0.00     0.062 A 
ATOM      2  C   UNL d   1      30.249  17.527 -24.391  0.00  0.00     0.202 A 
ATOM      3  C   UNL d   1      30.998  17.860 -24.504  0.00  0.00     0.101 A 
ATOM      4  C   UNL d   1      30.853  16.360 -23.790  0.00  0.00     0.103 A 
ATOM      5  C   UNL d   1      31.679  17.440 -24.258  0.00  0.00     0.109 A 
ATOM      6  O   UNL d   1      31.610  16.697 -23.905  0.00  0.00    -0.307 OA
ATOM      7  C   UNL d   1      31.073  18.599 -24.856  0.00  0.00     0.204 A 
ATOM      8  C   UNL d   1      32.428  17.773 -24.371  0.00  0.00     0.067 A 
ATOM      9  C   UNL d   1      31.819  18.928 -24.967  0.00  0.00     0.084 A 
ATOM     10  O   UNL d   1      29.575  17.937 -24.632  0.00  0.00    -0.286 OA
ATOM     11  C   UNL d   1      32.493  18.517 -24.726  0.00  0.00     0.201 A 
ATOM     12  O   UNL d   1      30.400  19.009 -25.097  0.00  0.00    -0.286 OA
ATOM     13  C   UNL d   1      30.775  15.623 -23.440  0.00  0.00     0.027 C 
ATOM     14  O   UNL d   1      33.239  18.846 -24.837  0.00  0.00    -0.286 OA
ENDROOT
BRANCH   1  15
ATOM     15  C   UNL d   1      29.426  16.450 -23.925  0.00  0.00     0.007 A 
ATOM     16  C   UNL d   1      28.904  16.797 -23.390  0.00  0.00     0.026 A 
ATOM     17  C   UNL d   1      28.156  16.471 -23.278  0.00  0.00     0.116 A 
ATOM     18  C   UNL d   1      27.928  15.792 -23.704  0.00  0.00     0.116 A 
ATOM     19  C   UNL d   1      28.460  15.453 -24.238  0.00  0.00     0.026 A 
ATOM     20  C   UNL d   1      29.207  15.778 -24.350  0.00  0.00     0.002 A 
BRANCH  17  21
ATOM     21  O   UNL d   1      27.630  16.818 -22.742  0.00  0.00    -0.326 OA
ATOM     22  C   UNL d   1      27.452  17.621 -22.805  0.00  0.00     0.181 C 
ENDBRANCH  17  21
BRANCH  18  23
ATOM     23  O   UNL d   1      27.180  15.467 -23.591  0.00  0.00    -0.326 OA
ATOM     24  C   UNL d   1      26.611  15.522 -24.187  0.00  0.00     0.181 C 
ENDBRANCH  18  23
ENDBRANCH   1  15
TORSDOF 3
ENDMDL
MODEL 4
REMARK VINA RESULT:       3.7      0.806      1.150
REMARK  3 active torsions:
REMARK  status: ('A' for Active; 'I' for Inactive)
REMARK    1  A    between atoms: C_7  and  C_1 
REMARK    2  A    between atoms: O_20  and  C_12 
REMARK    3  A    between atoms: O_22  and  C_16 
ROOT
ATOM      1  C   UNL d   1      32.863  20.601 -22.566  0.00  0.00     0.062 A 
ATOM      2  C   UNL d   1      32.990  19.835 -22.261  0.00  0.00     0.202 A 
ATOM      3  C   UNL d   1      33.039  19.185 -22.770  0.00  0.00     0.101 A 
ATOM      4  C   UNL d   1      32.786  20.711 -23.392  0.00  0.00     0.103 A 
ATOM      5  C   UNL d   1      32.961  19.298 -23.596  0.00  0.00     0.109 A 
ATOM      6  O   UNL d   1      32.835  20.054 -23.906  0.00  0.00    -0.307 OA
ATOM      7  C   UNL d   1      33.164  18.431 -22.468  0.00  0.00     0.204 A 
ATOM      8  C   UNL d   1      33.010  18.648 -24.105  0.00  0.00     0.067 A 
ATOM      9  C   UNL d   1      33.213  17.785 -22.977  0.00  0.00     0.084 A 
ATOM     10  O   UNL d   1      33.066  19.727 -21.447  0.00  0.00    -0.286 OA
ATOM     11  C   UNL d   1      33.136  17.894 -23.791  0.00  0.00     0.201 A 
ATOM     12  O   UNL d   1      33.240  18.322 -21.654  0.00  0.00    -0.286 OA
ATOM     13  C   UNL d   1      32.661  21.464 -23.690  0.00  0.00     0.027 C 
ATOM     14  O   UNL d   1      33.185  17.248 -24.300  0.00  0.00    -0.286 OA
ENDROOT
BRANCH   1  15
ATOM     15  C   UNL d   1      32.815  21.242 -22.057  0.00  0.00     0.007 A 
ATOM     16  C   UNL d   1      32.351  21.191 -21.380  0.00  0.00     0.026 A 
ATOM     17  C   UNL d   1      32.301  21.834 -20.867  0.00  0.00     0.116 A 
ATOM     18  C   UNL d   1      32.719  22.535 -21.035  0.00  0.00     0.116 A 
ATOM     19  C   UNL d   1      33.182  22.575 -21.718  0.00  0.00     0.026 A 
ATOM     20  C   UNL d   1      33.232  21.933 -22.230  0.00  0.00     0.002 A 
BRANCH  17  21
ATOM     21  O   UNL d   1      31.835  21.784 -20.185  0.00  0.00    -0.326 OA
ATOM     22  C   UNL d   1      31.413  21.093 -20.029  0.00  0.00     0.181 C 
ENDBRANCH  17  21
BRANCH  18  23
ATOM     23  O   UNL d   1      32.669  23.177 -20.522  0.00  0.00    -0.326 OA
ATOM     24  C   UNL d   1      32.033  23.701 -20.577  0.00  0.00     0.181 C 
ENDBRANCH  18  23
ENDBRANCH   1  15
TORSDOF 3
ENDMDL
