MODEL 1
REMARK VINA RESULT:      12.5      0.000      0.000
REMARK  1 active torsions:
REMARK  status: ('A' for Active; 'I' for Inactive)
REMARK    1  A    between atoms: C_5  and  C_1 
ROOT
ATOM      1  C   UNL d   1     -56.665 -98.834 -44.559  0.00  0.00     0.164 A 
ATOM      2  O   UNL d   1     -57.321 -98.815 -45.161  0.00  0.00    -0.301 OA
ATOM      3  C   UNL d   1     -57.017 -98.827 -43.830  0.00  0.00     0.033 A 
ATOM      4  C   UNL d   1     -57.825 -98.807 -43.903  0.00  0.00     0.025 A 
ATOM      5  C   UNL d   1     -58.011 -98.799 -44.721  0.00  0.00     0.100 A 
ATOM      6  C   UNL d   1     -58.428 -98.793 -43.334  0.00  0.00     0.009 A 
ATOM      7  C   UNL d   1     -58.798 -98.778 -44.956  0.00  0.00     0.025 A 
ATOM      8  C   UNL d   1     -59.216 -98.772 -43.585  0.00  0.00     0.035 A 
ATOM      9  C   UNL d   1     -59.403 -98.765 -44.403  0.00  0.00     0.009 A 
ATOM     10 BR   UNL d   1     -59.822 -98.759 -43.016  0.00  0.00    -0.049 Br
ENDROOT
BRANCH   1  11
ATOM     11  C   UNL d   1     -55.847 -98.854 -44.666  0.00  0.00     0.235 C 
ATOM     12  O   UNL d   1     -55.512 -98.765 -45.418  0.00  0.00    -0.642 OA
ATOM     13  O   UNL d   1     -55.322 -98.964 -44.029  0.00  0.00    -0.642 OA
ENDBRANCH   1  11
TORSDOF 1
ENDMDL
MODEL 2
REMARK VINA RESULT:      14.8      1.808      2.979
REMARK  1 active torsions:
REMARK  status: ('A' for Active; 'I' for Inactive)
REMARK    1  A    between atoms: C_5  and  C_1 
ROOT
ATOM      1  C   UNL d   1     -58.349 -98.764 -44.170  0.00  0.00     0.164 A 
ATOM      2  O   UNL d   1     -57.930 -98.760 -44.957  0.00  0.00    -0.301 OA
ATOM      3  C   UNL d   1     -57.774 -98.766 -43.601  0.00  0.00     0.033 A 
ATOM      4  C   UNL d   1     -57.037 -98.763 -43.938  0.00  0.00     0.025 A 
ATOM      5  C   UNL d   1     -57.133 -98.759 -44.772  0.00  0.00     0.100 A 
ATOM      6  C   UNL d   1     -56.278 -98.763 -43.603  0.00  0.00     0.009 A 
ATOM      7  C   UNL d   1     -56.469 -98.756 -45.255  0.00  0.00     0.025 A 
ATOM      8  C   UNL d   1     -55.618 -98.759 -44.102  0.00  0.00     0.035 A 
ATOM      9  C   UNL d   1     -55.714 -98.756 -44.936  0.00  0.00     0.009 A 
ATOM     10 BR   UNL d   1     -54.858 -98.760 -43.767  0.00  0.00    -0.049 Br
ENDROOT
BRANCH   1  11
ATOM     11  C   UNL d   1     -59.156 -98.766 -43.999  0.00  0.00     0.235 C 
ATOM     12  O   UNL d   1     -59.722 -98.764 -44.604  0.00  0.00    -0.642 OA
ATOM     13  O   UNL d   1     -59.440 -98.771 -43.217  0.00  0.00    -0.642 OA
ENDBRANCH   1  11
TORSDOF 1
ENDMDL
