MODEL 1
REMARK VINA RESULT:      -5.5      0.000      0.000
REMARK  5 active torsions:
REMARK  status: ('A' for Active; 'I' for Inactive)
REMARK    1  A    between atoms: S_2  and  C_1 
REMARK    2  A    between atoms: N_3  and  C_1 
REMARK    3  A    between atoms: C_4  and  C_1 
REMARK    4  A    between atoms: C_6  and  S_2 
REMARK       I    between atoms: C_5  and  N_3 
REMARK    5  A    between atoms: C_9  and  C_5 
ROOT
ATOM      1  C   UNL d   1      58.334  -0.479  29.759  0.00  0.00     0.193 C 
ENDROOT
BRANCH   1   2
ATOM      2  S   UNL d   1      58.780  -1.096  29.506  0.00  0.00     0.228 S 
ATOM      3  O   UNL d   1      59.447  -0.800  29.897  0.00  0.00    -0.216 OA
ATOM      4  O   UNL d   1      58.192  -1.358  29.161  0.00  0.00    -0.216 OA
BRANCH   2   5
ATOM      5  C   UNL d   1      59.139  -1.645  29.270  0.00  0.00     0.090 A 
ATOM      6  C   UNL d   1      59.982  -1.616  29.149  0.00  0.00     0.012 A 
ATOM      7  C   UNL d   1      60.403  -2.301  28.858  0.00  0.00     0.012 A 
ATOM      8  C   UNL d   1      59.978  -3.011  28.691  0.00  0.00     0.058 A 
ATOM      9  C   UNL d   1      59.153  -3.046  28.808  0.00  0.00     0.012 A 
ATOM     10 CL   UNL d   1      60.309  -3.498  28.480  0.00  0.00    -0.082 Cl
ATOM     11  C   UNL d   1      58.732  -2.361  29.098  0.00  0.00     0.012 A 
ENDBRANCH   2   5
ENDBRANCH   1   2
BRANCH   1  12
ATOM     12  N   UNL d   1      57.681  -0.617  30.288  0.00  0.00    -0.195 NA
ATOM     13  C   UNL d   1      57.604  -0.232  31.048  0.00  0.00     0.280 C 
ATOM     14  O   UNL d   1      58.228   0.333  31.293  0.00  0.00    -0.265 OA
BRANCH  13  15
ATOM     15  C   UNL d   1      57.101  -0.275  31.565  0.00  0.00     0.058 A 
ATOM     16  C   UNL d   1      56.877   0.484  31.794  0.00  0.00     0.005 A 
ATOM     17  C   UNL d   1      56.308   0.594  32.378  0.00  0.00     0.000 A 
ATOM     18  C   UNL d   1      55.966  -0.068  32.732  0.00  0.00     0.000 A 
ATOM     19  C   UNL d   1      56.191  -0.827  32.503  0.00  0.00     0.000 A 
ATOM     20  C   UNL d   1      55.549   0.071  33.160  0.00  0.00     0.000 C 
ATOM     21  C   UNL d   1      56.758  -0.925  31.920  0.00  0.00     0.005 A 
ENDBRANCH  13  15
ENDBRANCH   1  12
BRANCH   1  22
ATOM     22  C   UNL d   1      58.531   0.279  29.489  0.00  0.00     0.144 C 
ATOM     23 CL   UNL d   1      58.006   0.680  28.923  0.00  0.00    -0.068 Cl
ATOM     24 CL   UNL d   1      59.232   0.682  29.748  0.00  0.00    -0.068 Cl
ENDBRANCH   1  22
TORSDOF 5
ENDMDL
MODEL 2
REMARK VINA RESULT:      -4.3      1.173      4.282
REMARK  5 active torsions:
REMARK  status: ('A' for Active; 'I' for Inactive)
REMARK    1  A    between atoms: S_2  and  C_1 
REMARK    2  A    between atoms: N_3  and  C_1 
REMARK    3  A    between atoms: C_4  and  C_1 
REMARK    4  A    between atoms: C_6  and  S_2 
REMARK       I    between atoms: C_5  and  N_3 
REMARK    5  A    between atoms: C_9  and  C_5 
ROOT
ATOM      1  C   UNL d   1      58.186  -0.396  29.903  0.00  0.00     0.193 C 
ENDROOT
BRANCH   1   2
ATOM      2  S   UNL d   1      57.818  -0.287  30.608  0.00  0.00     0.228 S 
ATOM      3  O   UNL d   1      58.481   0.102  30.917  0.00  0.00    -0.216 OA
ATOM      4  O   UNL d   1      57.233  -0.630  30.336  0.00  0.00    -0.216 OA
BRANCH   2   5
ATOM      5  C   UNL d   1      57.470  -0.209  31.207  0.00  0.00     0.090 A 
ATOM      6  C   UNL d   1      57.521   0.504  31.670  0.00  0.00     0.012 A 
ATOM      7  C   UNL d   1      57.086   0.577  32.402  0.00  0.00     0.012 A 
ATOM      8  C   UNL d   1      56.601  -0.062  32.666  0.00  0.00     0.058 A 
ATOM      9  C   UNL d   1      56.547  -0.762  32.217  0.00  0.00     0.012 A 
ATOM     10 CL   UNL d   1      56.293   0.017  33.204  0.00  0.00    -0.082 Cl
ATOM     11  C   UNL d   1      56.982  -0.836  31.485  0.00  0.00     0.012 A 
ENDBRANCH   2   5
ENDBRANCH   1   2
BRANCH   1  12
ATOM     12  N   UNL d   1      58.275  -1.182  29.589  0.00  0.00    -0.195 NA
ATOM     13  C   UNL d   1      59.035  -1.532  29.410  0.00  0.00     0.280 C 
ATOM     14  O   UNL d   1      59.757  -1.056  29.558  0.00  0.00    -0.265 OA
BRANCH  13  15
ATOM     15  C   UNL d   1      59.222  -2.178  29.146  0.00  0.00     0.058 A 
ATOM     16  C   UNL d   1      60.034  -2.286  29.232  0.00  0.00     0.005 A 
ATOM     17  C   UNL d   1      60.394  -2.979  28.975  0.00  0.00     0.000 A 
ATOM     18  C   UNL d   1      59.928  -3.566  28.629  0.00  0.00     0.000 A 
ATOM     19  C   UNL d   1      59.116  -3.458  28.543  0.00  0.00     0.000 A 
ATOM     20  C   UNL d   1      60.247  -4.061  28.455  0.00  0.00     0.000 C 
ATOM     21  C   UNL d   1      58.768  -2.763  28.802  0.00  0.00     0.005 A 
ENDBRANCH  13  15
ENDBRANCH   1  12
BRANCH   1  22
ATOM     22  C   UNL d   1      58.468   0.274  29.505  0.00  0.00     0.144 C 
ATOM     23 CL   UNL d   1      59.175   0.682  29.805  0.00  0.00    -0.068 Cl
ATOM     24 CL   UNL d   1      58.089   0.577  28.808  0.00  0.00    -0.068 Cl
ENDBRANCH   1  22
TORSDOF 5
ENDMDL
MODEL 3
REMARK VINA RESULT:      -2.7      0.827      1.181
REMARK  5 active torsions:
REMARK  status: ('A' for Active; 'I' for Inactive)
REMARK    1  A    between atoms: S_2  and  C_1 
REMARK    2  A    between atoms: N_3  and  C_1 
REMARK    3  A    between atoms: C_4  and  C_1 
REMARK    4  A    between atoms: C_6  and  S_2 
REMARK       I    between atoms: C_5  and  N_3 
REMARK    5  A    between atoms: C_9  and  C_5 
ROOT
ATOM      1  C   UNL d   1      57.781  -0.525  30.656  0.00  0.00     0.193 C 
ENDROOT
BRANCH   1   2
ATOM      2  S   UNL d   1      58.158  -1.099  30.241  0.00  0.00     0.228 S 
ATOM      3  O   UNL d   1      57.487  -1.583  30.263  0.00  0.00    -0.216 OA
ATOM      4  O   UNL d   1      58.751  -0.672  30.222  0.00  0.00    -0.216 OA
BRANCH   2   5
ATOM      5  C   UNL d   1      58.515  -1.577  29.880  0.00  0.00     0.090 A 
ATOM      6  C   UNL d   1      59.365  -1.563  29.829  0.00  0.00     0.012 A 
ATOM      7  C   UNL d   1      59.782  -2.160  29.380  0.00  0.00     0.012 A 
ATOM      8  C   UNL d   1      59.346  -2.766  28.987  0.00  0.00     0.058 A 
ATOM      9  C   UNL d   1      58.514  -2.785  29.033  0.00  0.00     0.012 A 
ATOM     10 CL   UNL d   1      59.675  -3.191  28.665  0.00  0.00    -0.082 Cl
ATOM     11  C   UNL d   1      58.097  -2.189  29.482  0.00  0.00     0.012 A 
ENDBRANCH   2   5
ENDBRANCH   1   2
BRANCH   1  12
ATOM     12  N   UNL d   1      57.250  -0.737  31.287  0.00  0.00    -0.195 NA
ATOM     13  C   UNL d   1      56.930  -0.170  31.842  0.00  0.00     0.280 C 
ATOM     14  O   UNL d   1      57.162   0.672  31.756  0.00  0.00    -0.265 OA
BRANCH  13  15
ATOM     15  C   UNL d   1      56.481  -0.240  32.403  0.00  0.00     0.058 A 
ATOM     16  C   UNL d   1      55.973   0.408  32.431  0.00  0.00     0.005 A 
ATOM     17  C   UNL d   1      55.402   0.466  33.020  0.00  0.00     0.000 A 
ATOM     18  C   UNL d   1      55.346  -0.134  33.583  0.00  0.00     0.000 A 
ATOM     19  C   UNL d   1      55.855  -0.782  33.555  0.00  0.00     0.000 A 
ATOM     20  C   UNL d   1      54.904  -0.040  33.999  0.00  0.00     0.000 C 
ATOM     21  C   UNL d   1      56.420  -0.830  32.964  0.00  0.00     0.005 A 
ENDBRANCH  13  15
ENDBRANCH   1  12
BRANCH   1  22
ATOM     22  C   UNL d   1      57.927   0.264  30.449  0.00  0.00     0.144 C 
ATOM     23 CL   UNL d   1      58.599   0.682  30.809  0.00  0.00    -0.068 Cl
ATOM     24 CL   UNL d   1      57.440   0.682  29.892  0.00  0.00    -0.068 Cl
ENDBRANCH   1  22
TORSDOF 5
ENDMDL
