MODEL 1
REMARK VINA RESULT:      55.7      0.000      0.000
REMARK  5 active torsions:
REMARK  status: ('A' for Active; 'I' for Inactive)
REMARK       I    between atoms: C_3  and  N_1 
REMARK    1  A    between atoms: C_12  and  C_3 
REMARK    2  A    between atoms: C_7  and  O_10 
REMARK    3  A    between atoms: O_10  and  C_21 
REMARK    4  A    between atoms: C_22  and  C_12 
REMARK    5  A    between atoms: C_21  and  C_22 
ROOT
ATOM      1  N   UNL d   1      58.379  49.701  50.457  0.00  0.00    -0.273 N 
ATOM      2  C   UNL d   1      57.652  49.702  50.064  0.00  0.00     0.067 A 
ATOM      3  C   UNL d   1      59.081  49.701  50.023  0.00  0.00     0.265 C 
ATOM      4  C   UNL d   1      56.950  49.702  50.498  0.00  0.00     0.016 A 
ATOM      5  O   UNL d   1      59.057  49.701  49.200  0.00  0.00    -0.267 OA
ATOM      6  C   UNL d   1      58.403  49.702  51.280  0.00  0.00     0.083 A 
ATOM      7  C   UNL d   1      57.629  49.702  49.241  0.00  0.00     0.018 A 
ATOM      8  C   UNL d   1      57.700  49.702  51.713  0.00  0.00     0.019 A 
ATOM      9  C   UNL d   1      56.973  49.703  51.321  0.00  0.00     0.003 A 
ATOM     10  C   UNL d   1      56.224  49.703  50.106  0.00  0.00     0.001 A 
ATOM     11  C   UNL d   1      56.902  49.702  48.848  0.00  0.00     0.002 A 
ATOM     12  C   UNL d   1      56.200  49.703  49.282  0.00  0.00     0.000 A 
ENDROOT
BRANCH   3  13
ATOM     13  C   UNL d   1      59.807  49.700  50.416  0.00  0.00     0.063 C 
BRANCH  13  14
ATOM     14  C   UNL d   1      60.425  49.228  50.139  0.00  0.00     0.032 C 
BRANCH  14  15
ATOM     15  C   UNL d   1      60.857  48.764  50.667  0.00  0.00     0.123 C 
BRANCH  15  16
ATOM     16  O   UNL d   1      61.385  48.197  50.382  0.00  0.00    -0.305 OA
BRANCH  16  17
ATOM     17  C   UNL d   1      61.255  47.398  50.540  0.00  0.00     0.100 A 
ATOM     18  C   UNL d   1      61.447  46.829  49.974  0.00  0.00     0.023 A 
ATOM     19  C   UNL d   1      61.318  46.030  50.132  0.00  0.00     0.002 A 
ATOM     20  C   UNL d   1      61.769  47.059  49.251  0.00  0.00     0.002 C 
ATOM     21  C   UNL d   1      61.510  45.469  49.568  0.00  0.00     0.000 C 
ATOM     22  C   UNL d   1      60.996  45.799  50.855  0.00  0.00     0.000 A 
ATOM     23  C   UNL d   1      60.804  46.368  51.420  0.00  0.00     0.002 A 
ATOM     24  C   UNL d   1      60.934  47.167  51.263  0.00  0.00     0.025 A 
ENDBRANCH  16  17
ENDBRANCH  15  16
ENDBRANCH  14  15
ENDBRANCH  13  14
ENDBRANCH   3  13
TORSDOF 5
ENDMDL
