MODEL 1
REMARK VINA RESULT:      -8.5      0.000      0.000
REMARK  5 active torsions:
REMARK  status: ('A' for Active; 'I' for Inactive)
REMARK    1  A    between atoms: C_10  and  N_6 
REMARK    2  A    between atoms: S_13  and  C_9 
REMARK    3  A    between atoms: C_14  and  C_10 
REMARK    4  A    between atoms: C_22  and  S_13 
REMARK    5  A    between atoms: C_24  and  C_22 
ROOT
ATOM      1  C   UNL d   1      53.335  32.687  54.080  0.00  0.00     0.174 A 
ATOM      2  C   UNL d   1      52.932  32.731  53.362  0.00  0.00     0.158 A 
ATOM      3  N   UNL d   1      53.400  33.441  54.381  0.00  0.00    -0.203 NA
ATOM      4  N   UNL d   1      53.588  31.956  54.357  0.00  0.00    -0.240 N 
ATOM      5  N   UNL d   1      53.044  31.294  53.212  0.00  0.00    -0.223 N 
ATOM      6  N   UNL d   1      52.711  33.573  53.169  0.00  0.00    -0.279 N 
ATOM      7  C   UNL d   1      53.447  31.250  53.930  0.00  0.00     0.343 A 
ATOM      8  C   UNL d   1      52.782  32.043  52.922  0.00  0.00     0.287 A 
ATOM      9  C   UNL d   1      53.028  33.948  53.832  0.00  0.00     0.181 A 
ATOM     10  O   UNL d   1      53.701  30.507  54.206  0.00  0.00    -0.245 OA
ATOM     11  O   UNL d   1      52.379  32.087  52.204  0.00  0.00    -0.265 OA
ATOM     12  C   UNL d   1      53.991  31.912  55.075  0.00  0.00     0.105 C 
ATOM     13  C   UNL d   1      52.894  30.606  52.773  0.00  0.00     0.107 C 
ENDROOT
BRANCH   6  14
ATOM     14  C   UNL d   1      52.310  33.879  52.519  0.00  0.00     0.082 C 
BRANCH  14  15
ATOM     15  C   UNL d   1      51.495  33.996  52.565  0.00  0.00     0.018 A 
ATOM     16  C   UNL d   1      51.065  34.163  51.885  0.00  0.00     0.002 A 
ATOM     17  C   UNL d   1      50.252  34.282  51.922  0.00  0.00     0.000 A 
ATOM     18  C   UNL d   1      49.877  34.445  51.203  0.00  0.00     0.000 C 
ATOM     19  C   UNL d   1      49.864  34.232  52.657  0.00  0.00     0.000 A 
ATOM     20  C   UNL d   1      50.298  34.064  53.340  0.00  0.00     0.000 A 
ATOM     21  C   UNL d   1      51.110  33.947  53.295  0.00  0.00     0.002 A 
ENDBRANCH  14  15
ENDBRANCH   6  14
BRANCH   9  22
ATOM     22  S   UNL d   1      52.964  34.766  53.917  0.00  0.00    -0.046 SA
BRANCH  22  23
ATOM     23  C   UNL d   1      53.300  35.488  54.120  0.00  0.00     0.084 C 
BRANCH  23  24
ATOM     24  C   UNL d   1      53.040  35.887  54.790  0.00  0.00     0.241 C 
ATOM     25  O   UNL d   1      53.041  36.709  54.804  0.00  0.00    -0.283 OA
ENDBRANCH  23  24
ENDBRANCH  22  23
ENDBRANCH   9  22
TORSDOF 5
ENDMDL
MODEL 2
REMARK VINA RESULT:      -8.1      1.450      1.839
REMARK  5 active torsions:
REMARK  status: ('A' for Active; 'I' for Inactive)
REMARK    1  A    between atoms: C_10  and  N_6 
REMARK    2  A    between atoms: S_13  and  C_9 
REMARK    3  A    between atoms: C_14  and  C_10 
REMARK    4  A    between atoms: C_22  and  S_13 
REMARK    5  A    between atoms: C_24  and  C_22 
ROOT
ATOM      1  C   UNL d   1      53.458  30.921  54.246  0.00  0.00     0.174 A 
ATOM      2  C   UNL d   1      53.223  31.292  53.548  0.00  0.00     0.158 A 
ATOM      3  N   UNL d   1      53.772  31.487  54.741  0.00  0.00    -0.203 NA
ATOM      4  N   UNL d   1      53.350  30.110  54.329  0.00  0.00    -0.240 N 
ATOM      5  N   UNL d   1      52.771  30.019  53.024  0.00  0.00    -0.223 N 
ATOM      6  N   UNL d   1      53.392  32.167  53.578  0.00  0.00    -0.279 N 
ATOM      7  C   UNL d   1      53.006  29.648  53.722  0.00  0.00     0.343 A 
ATOM      8  C   UNL d   1      52.880  30.851  52.934  0.00  0.00     0.287 A 
ATOM      9  C   UNL d   1      53.725  32.212  54.331  0.00  0.00     0.181 A 
ATOM     10  O   UNL d   1      52.894  28.827  53.801  0.00  0.00    -0.245 OA
ATOM     11  O   UNL d   1      52.645  31.222  52.236  0.00  0.00    -0.265 OA
ATOM     12  C   UNL d   1      53.585  29.740  55.026  0.00  0.00     0.105 C 
ATOM     13  C   UNL d   1      52.428  29.579  52.410  0.00  0.00     0.107 C 
ENDROOT
BRANCH   6  14
ATOM     14  C   UNL d   1      53.253  32.751  53.016  0.00  0.00     0.082 C 
BRANCH  14  15
ATOM     15  C   UNL d   1      52.546  33.175  53.038  0.00  0.00     0.018 A 
ATOM     16  C   UNL d   1      52.287  33.578  52.370  0.00  0.00     0.002 A 
ATOM     17  C   UNL d   1      51.583  34.004  52.384  0.00  0.00     0.000 A 
ATOM     18  C   UNL d   1      51.378  34.387  51.681  0.00  0.00     0.000 C 
ATOM     19  C   UNL d   1      51.130  34.023  53.083  0.00  0.00     0.000 A 
ATOM     20  C   UNL d   1      51.392  33.617  53.753  0.00  0.00     0.000 A 
ATOM     21  C   UNL d   1      52.097  33.194  53.732  0.00  0.00     0.002 A 
ENDBRANCH  14  15
ENDBRANCH   6  14
BRANCH   9  22
ATOM     22  S   UNL d   1      53.982  32.937  54.629  0.00  0.00    -0.046 SA
BRANCH  22  23
ATOM     23  C   UNL d   1      54.356  33.371  55.218  0.00  0.00     0.084 C 
BRANCH  23  24
ATOM     24  C   UNL d   1      55.123  33.643  55.102  0.00  0.00     0.241 C 
ATOM     25  O   UNL d   1      55.357  34.361  55.429  0.00  0.00    -0.283 OA
ENDBRANCH  23  24
ENDBRANCH  22  23
ENDBRANCH   9  22
TORSDOF 5
ENDMDL
MODEL 3
REMARK VINA RESULT:      -8.0      1.688      4.270
REMARK  5 active torsions:
REMARK  status: ('A' for Active; 'I' for Inactive)
REMARK    1  A    between atoms: C_10  and  N_6 
REMARK    2  A    between atoms: S_13  and  C_9 
REMARK    3  A    between atoms: C_14  and  C_10 
REMARK    4  A    between atoms: C_22  and  S_13 
REMARK    5  A    between atoms: C_24  and  C_22 
ROOT
ATOM      1  C   UNL d   1      51.713  32.715  53.108  0.00  0.00     0.174 A 
ATOM      2  C   UNL d   1      52.422  33.133  53.155  0.00  0.00     0.158 A 
ATOM      3  N   UNL d   1      51.882  31.921  53.183  0.00  0.00    -0.203 NA
ATOM      4  N   UNL d   1      51.008  33.124  53.001  0.00  0.00    -0.240 N 
ATOM      5  N   UNL d   1      51.698  34.377  52.986  0.00  0.00    -0.223 N 
ATOM      6  N   UNL d   1      53.113  32.582  53.270  0.00  0.00    -0.279 N 
ATOM      7  C   UNL d   1      50.990  33.959  52.939  0.00  0.00     0.343 A 
ATOM      8  C   UNL d   1      52.425  33.961  53.095  0.00  0.00     0.287 A 
ATOM      9  C   UNL d   1      52.709  31.863  53.277  0.00  0.00     0.181 A 
ATOM     10  O   UNL d   1      50.279  34.379  52.832  0.00  0.00    -0.245 OA
ATOM     11  O   UNL d   1      53.134  34.380  53.143  0.00  0.00    -0.265 OA
ATOM     12  C   UNL d   1      50.300  32.706  52.954  0.00  0.00     0.105 C 
ATOM     13  C   UNL d   1      51.701  35.205  52.927  0.00  0.00     0.107 C 
ENDROOT
BRANCH   6  14
ATOM     14  C   UNL d   1      53.915  32.748  53.345  0.00  0.00     0.082 C 
BRANCH  14  15
ATOM     15  C   UNL d   1      54.222  32.936  54.087  0.00  0.00     0.018 A 
ATOM     16  C   UNL d   1      54.883  33.420  54.149  0.00  0.00     0.002 A 
ATOM     17  C   UNL d   1      55.195  33.612  54.886  0.00  0.00     0.000 A 
ATOM     18  C   UNL d   1      55.861  34.102  54.880  0.00  0.00     0.000 C 
ATOM     19  C   UNL d   1      54.835  33.311  55.574  0.00  0.00     0.000 A 
ATOM     20  C   UNL d   1      54.170  32.825  55.510  0.00  0.00     0.000 A 
ATOM     21  C   UNL d   1      53.864  32.638  54.771  0.00  0.00     0.002 A 
ENDBRANCH  14  15
ENDBRANCH   6  14
BRANCH   9  22
ATOM     22  S   UNL d   1      53.121  31.155  53.373  0.00  0.00    -0.046 SA
BRANCH  22  23
ATOM     23  C   UNL d   1      53.225  30.362  53.186  0.00  0.00     0.084 C 
BRANCH  23  24
ATOM     24  C   UNL d   1      53.290  29.804  53.787  0.00  0.00     0.241 C 
ATOM     25  O   UNL d   1      52.942  29.064  53.699  0.00  0.00    -0.283 OA
ENDBRANCH  23  24
ENDBRANCH  22  23
ENDBRANCH   9  22
TORSDOF 5
ENDMDL
MODEL 4
REMARK VINA RESULT:      -7.7      1.553      3.261
REMARK  5 active torsions:
REMARK  status: ('A' for Active; 'I' for Inactive)
REMARK    1  A    between atoms: C_10  and  N_6 
REMARK    2  A    between atoms: S_13  and  C_9 
REMARK    3  A    between atoms: C_14  and  C_10 
REMARK    4  A    between atoms: C_22  and  S_13 
REMARK    5  A    between atoms: C_24  and  C_22 
ROOT
ATOM      1  C   UNL d   1      52.367  31.215  53.275  0.00  0.00     0.174 A 
ATOM      2  C   UNL d   1      53.174  31.365  53.349  0.00  0.00     0.158 A 
ATOM      3  N   UNL d   1      51.983  31.927  53.181  0.00  0.00    -0.203 NA
ATOM      4  N   UNL d   1      52.096  30.439  53.306  0.00  0.00    -0.240 N 
ATOM      5  N   UNL d   1      53.426  29.945  53.484  0.00  0.00    -0.223 N 
ATOM      6  N   UNL d   1      53.343  32.240  53.300  0.00  0.00    -0.279 N 
ATOM      7  C   UNL d   1      52.620  29.795  53.410  0.00  0.00     0.343 A 
ATOM      8  C   UNL d   1      53.710  30.740  53.453  0.00  0.00     0.287 A 
ATOM      9  C   UNL d   1      52.573  32.517  53.198  0.00  0.00     0.181 A 
ATOM     10  O   UNL d   1      52.351  29.007  53.442  0.00  0.00    -0.245 OA
ATOM     11  O   UNL d   1      54.518  30.891  53.527  0.00  0.00    -0.265 OA
ATOM     12  C   UNL d   1      51.289  30.289  53.232  0.00  0.00     0.105 C 
ATOM     13  C   UNL d   1      53.962  29.320  53.588  0.00  0.00     0.107 C 
ENDROOT
BRANCH   6  14
ATOM     14  C   UNL d   1      54.058  32.643  53.345  0.00  0.00     0.082 C 
BRANCH  14  15
ATOM     15  C   UNL d   1      54.306  32.949  54.069  0.00  0.00     0.018 A 
ATOM     16  C   UNL d   1      54.973  33.427  54.107  0.00  0.00     0.002 A 
ATOM     17  C   UNL d   1      55.228  33.736  54.827  0.00  0.00     0.000 A 
ATOM     18  C   UNL d   1      55.905  34.209  54.798  0.00  0.00     0.000 C 
ATOM     19  C   UNL d   1      54.802  33.560  55.521  0.00  0.00     0.000 A 
ATOM     20  C   UNL d   1      54.132  33.079  55.481  0.00  0.00     0.000 A 
ATOM     21  C   UNL d   1      53.884  32.774  54.759  0.00  0.00     0.002 A 
ENDBRANCH  14  15
ENDBRANCH   6  14
BRANCH   9  22
ATOM     22  S   UNL d   1      52.430  33.326  53.121  0.00  0.00    -0.046 SA
BRANCH  22  23
ATOM     23  C   UNL d   1      52.047  33.947  52.742  0.00  0.00     0.084 C 
BRANCH  23  24
ATOM     24  C   UNL d   1      51.514  34.414  53.159  0.00  0.00     0.241 C 
ATOM     25  O   UNL d   1      51.697  35.199  53.325  0.00  0.00    -0.283 OA
ENDBRANCH  23  24
ENDBRANCH  22  23
ENDBRANCH   9  22
TORSDOF 5
ENDMDL
MODEL 5
REMARK VINA RESULT:      -7.7      1.393      3.114
REMARK  5 active torsions:
REMARK  status: ('A' for Active; 'I' for Inactive)
REMARK    1  A    between atoms: C_10  and  N_6 
REMARK    2  A    between atoms: S_13  and  C_9 
REMARK    3  A    between atoms: C_14  and  C_10 
REMARK    4  A    between atoms: C_22  and  S_13 
REMARK    5  A    between atoms: C_24  and  C_22 
ROOT
ATOM      1  C   UNL d   1      53.934  33.002  54.136  0.00  0.00     0.174 A 
ATOM      2  C   UNL d   1      53.197  33.363  54.211  0.00  0.00     0.158 A 
ATOM      3  N   UNL d   1      53.838  32.316  53.706  0.00  0.00    -0.203 NA
ATOM      4  N   UNL d   1      54.594  33.356  54.475  0.00  0.00    -0.240 N 
ATOM      5  N   UNL d   1      53.802  34.438  54.971  0.00  0.00    -0.223 N 
ATOM      6  N   UNL d   1      52.563  32.887  53.804  0.00  0.00    -0.279 N 
ATOM      7  C   UNL d   1      54.539  34.077  54.896  0.00  0.00     0.343 A 
ATOM      8  C   UNL d   1      53.121  34.079  54.625  0.00  0.00     0.287 A 
ATOM      9  C   UNL d   1      53.026  32.266  53.521  0.00  0.00     0.181 A 
ATOM     10  O   UNL d   1      55.204  34.440  55.241  0.00  0.00    -0.245 OA
ATOM     11  O   UNL d   1      52.383  34.440  54.700  0.00  0.00    -0.265 OA
ATOM     12  C   UNL d   1      55.331  32.995  54.399  0.00  0.00     0.105 C 
ATOM     13  C   UNL d   1      53.725  35.154  55.385  0.00  0.00     0.107 C 
ENDROOT
BRANCH   6  14
ATOM     14  C   UNL d   1      51.756  33.030  53.735  0.00  0.00     0.082 C 
BRANCH  14  15
ATOM     15  C   UNL d   1      51.476  33.475  53.099  0.00  0.00     0.018 A 
ATOM     16  C   UNL d   1      50.710  33.769  53.109  0.00  0.00     0.002 A 
ATOM     17  C   UNL d   1      50.423  34.215  52.479  0.00  0.00     0.000 A 
ATOM     18  C   UNL d   1      49.644  34.482  52.550  0.00  0.00     0.000 C 
ATOM     19  C   UNL d   1      50.918  34.366  51.826  0.00  0.00     0.000 A 
ATOM     20  C   UNL d   1      51.689  34.069  51.818  0.00  0.00     0.000 A 
ATOM     21  C   UNL d   1      51.968  33.625  52.451  0.00  0.00     0.002 A 
ENDBRANCH  14  15
ENDBRANCH   6  14
BRANCH   9  22
ATOM     22  S   UNL d   1      52.682  31.654  53.088  0.00  0.00    -0.046 SA
BRANCH  22  23
ATOM     23  C   UNL d   1      52.728  30.902  52.758  0.00  0.00     0.084 C 
BRANCH  23  24
ATOM     24  C   UNL d   1      52.473  30.250  53.190  0.00  0.00     0.241 C 
ATOM     25  O   UNL d   1      52.541  29.495  52.869  0.00  0.00    -0.283 OA
ENDBRANCH  23  24
ENDBRANCH  22  23
ENDBRANCH   9  22
TORSDOF 5
ENDMDL
MODEL 6
REMARK VINA RESULT:      -7.3      1.386      3.337
REMARK  5 active torsions:
REMARK  status: ('A' for Active; 'I' for Inactive)
REMARK    1  A    between atoms: C_10  and  N_6 
REMARK    2  A    between atoms: S_13  and  C_9 
REMARK    3  A    between atoms: C_14  and  C_10 
REMARK    4  A    between atoms: C_22  and  S_13 
REMARK    5  A    between atoms: C_24  and  C_22 
ROOT
ATOM      1  C   UNL d   1      52.949  34.216  54.138  0.00  0.00     0.174 A 
ATOM      2  C   UNL d   1      53.300  33.542  53.820  0.00  0.00     0.158 A 
ATOM      3  N   UNL d   1      52.251  34.351  53.740  0.00  0.00    -0.203 NA
ATOM      4  N   UNL d   1      53.322  34.614  54.753  0.00  0.00    -0.240 N 
ATOM      5  N   UNL d   1      54.403  33.678  54.750  0.00  0.00    -0.223 N 
ATOM      6  N   UNL d   1      52.803  33.200  53.163  0.00  0.00    -0.279 N 
ATOM      7  C   UNL d   1      54.052  34.353  55.067  0.00  0.00     0.343 A 
ATOM      8  C   UNL d   1      54.024  33.265  54.118  0.00  0.00     0.287 A 
ATOM      9  C   UNL d   1      52.183  33.744  53.171  0.00  0.00     0.181 A 
ATOM     10  O   UNL d   1      54.434  34.752  55.690  0.00  0.00    -0.245 OA
ATOM     11  O   UNL d   1      54.376  32.590  53.800  0.00  0.00    -0.265 OA
ATOM     12  C   UNL d   1      52.971  35.288  55.071  0.00  0.00     0.105 C 
ATOM     13  C   UNL d   1      55.128  33.402  55.047  0.00  0.00     0.107 C 
ENDROOT
BRANCH   6  14
ATOM     14  C   UNL d   1      52.932  32.538  52.692  0.00  0.00     0.082 C 
BRANCH  14  15
ATOM     15  C   UNL d   1      52.653  31.803  52.941  0.00  0.00     0.018 A 
ATOM     16  C   UNL d   1      53.134  31.140  52.883  0.00  0.00     0.002 A 
ATOM     17  C   UNL d   1      52.863  30.403  53.130  0.00  0.00     0.000 A 
ATOM     18  C   UNL d   1      53.395  29.775  53.045  0.00  0.00     0.000 C 
ATOM     19  C   UNL d   1      52.094  30.332  53.441  0.00  0.00     0.000 A 
ATOM     20  C   UNL d   1      51.612  31.001  53.499  0.00  0.00     0.000 A 
ATOM     21  C   UNL d   1      51.889  31.734  53.250  0.00  0.00     0.002 A 
ENDBRANCH  14  15
ENDBRANCH   6  14
BRANCH   9  22
ATOM     22  S   UNL d   1      51.555  33.666  52.642  0.00  0.00    -0.046 SA
BRANCH  22  23
ATOM     23  C   UNL d   1      51.043  33.999  52.092  0.00  0.00     0.084 C 
BRANCH  23  24
ATOM     24  C   UNL d   1      50.267  34.168  52.306  0.00  0.00     0.241 C 
ATOM     25  O   UNL d   1      49.728  34.412  51.734  0.00  0.00    -0.283 OA
ENDBRANCH  23  24
ENDBRANCH  22  23
ENDBRANCH   9  22
TORSDOF 5
ENDMDL
MODEL 7
REMARK VINA RESULT:      -7.0      1.431      2.784
REMARK  5 active torsions:
REMARK  status: ('A' for Active; 'I' for Inactive)
REMARK    1  A    between atoms: C_10  and  N_6 
REMARK    2  A    between atoms: S_13  and  C_9 
REMARK    3  A    between atoms: C_14  and  C_10 
REMARK    4  A    between atoms: C_22  and  S_13 
REMARK    5  A    between atoms: C_24  and  C_22 
ROOT
ATOM      1  C   UNL d   1      52.178  31.449  53.196  0.00  0.00     0.174 A 
ATOM      2  C   UNL d   1      52.884  31.871  53.239  0.00  0.00     0.158 A 
ATOM      3  N   UNL d   1      51.570  31.980  53.085  0.00  0.00    -0.203 NA
ATOM      4  N   UNL d   1      52.192  30.630  53.266  0.00  0.00    -0.240 N 
ATOM      5  N   UNL d   1      53.613  30.633  53.423  0.00  0.00    -0.223 N 
ATOM      6  N   UNL d   1      52.740  32.747  53.150  0.00  0.00    -0.279 N 
ATOM      7  C   UNL d   1      52.907  30.210  53.380  0.00  0.00     0.343 A 
ATOM      8  C   UNL d   1      53.604  31.474  53.352  0.00  0.00     0.287 A 
ATOM      9  C   UNL d   1      51.920  32.737  53.060  0.00  0.00     0.181 A 
ATOM     10  O   UNL d   1      52.927  29.381  53.451  0.00  0.00    -0.245 OA
ATOM     11  O   UNL d   1      54.311  31.897  53.396  0.00  0.00    -0.265 OA
ATOM     12  C   UNL d   1      51.485  30.207  53.223  0.00  0.00     0.105 C 
ATOM     13  C   UNL d   1      54.333  30.236  53.536  0.00  0.00     0.107 C 
ENDROOT
BRANCH   6  14
ATOM     14  C   UNL d   1      53.272  33.374  53.157  0.00  0.00     0.082 C 
BRANCH  14  15
ATOM     15  C   UNL d   1      53.356  33.827  53.842  0.00  0.00     0.018 A 
ATOM     16  C   UNL d   1      53.272  34.643  53.807  0.00  0.00     0.002 A 
ATOM     17  C   UNL d   1      53.354  35.102  54.486  0.00  0.00     0.000 A 
ATOM     18  C   UNL d   1      53.257  35.917  54.385  0.00  0.00     0.000 C 
ATOM     19  C   UNL d   1      53.524  34.732  55.212  0.00  0.00     0.000 A 
ATOM     20  C   UNL d   1      53.609  33.911  55.244  0.00  0.00     0.000 A 
ATOM     21  C   UNL d   1      53.525  33.459  54.563  0.00  0.00     0.002 A 
ENDBRANCH  14  15
ENDBRANCH   6  14
BRANCH   9  22
ATOM     22  S   UNL d   1      51.505  33.442  52.956  0.00  0.00    -0.046 SA
BRANCH  22  23
ATOM     23  C   UNL d   1      50.924  33.874  52.567  0.00  0.00     0.084 C 
BRANCH  23  24
ATOM     24  C   UNL d   1      50.252  34.116  52.976  0.00  0.00     0.241 C 
ATOM     25  O   UNL d   1      49.828  34.771  52.715  0.00  0.00    -0.283 OA
ENDBRANCH  23  24
ENDBRANCH  22  23
ENDBRANCH   9  22
TORSDOF 5
ENDMDL
MODEL 8
REMARK VINA RESULT:      -6.9      1.493      3.447
REMARK  5 active torsions:
REMARK  status: ('A' for Active; 'I' for Inactive)
REMARK    1  A    between atoms: C_10  and  N_6 
REMARK    2  A    between atoms: S_13  and  C_9 
REMARK    3  A    between atoms: C_14  and  C_10 
REMARK    4  A    between atoms: C_22  and  S_13 
REMARK    5  A    between atoms: C_24  and  C_22 
ROOT
ATOM      1  C   UNL d   1      52.489  34.100  53.819  0.00  0.00     0.174 A 
ATOM      2  C   UNL d   1      52.593  33.467  53.301  0.00  0.00     0.158 A 
ATOM      3  N   UNL d   1      53.104  34.093  54.354  0.00  0.00    -0.203 NA
ATOM      4  N   UNL d   1      51.841  34.596  53.725  0.00  0.00    -0.240 N 
ATOM      5  N   UNL d   1      51.384  33.843  52.598  0.00  0.00    -0.223 N 
ATOM      6  N   UNL d   1      53.328  33.004  53.504  0.00  0.00    -0.279 N 
ATOM      7  C   UNL d   1      51.280  34.476  53.115  0.00  0.00     0.343 A 
ATOM      8  C   UNL d   1      52.048  33.330  52.690  0.00  0.00     0.287 A 
ATOM      9  C   UNL d   1      53.586  33.442  54.153  0.00  0.00     0.181 A 
ATOM     10  O   UNL d   1      50.622  34.976  53.015  0.00  0.00    -0.245 OA
ATOM     11  O   UNL d   1      52.152  32.696  52.172  0.00  0.00    -0.265 OA
ATOM     12  C   UNL d   1      51.737  35.229  54.242  0.00  0.00     0.105 C 
ATOM     13  C   UNL d   1      50.839  33.707  51.987  0.00  0.00     0.107 C 
ENDROOT
BRANCH   6  14
ATOM     14  C   UNL d   1      53.649  32.337  53.145  0.00  0.00     0.082 C 
BRANCH  14  15
ATOM     15  C   UNL d   1      53.458  31.589  53.436  0.00  0.00     0.018 A 
ATOM     16  C   UNL d   1      53.233  30.991  52.919  0.00  0.00     0.002 A 
ATOM     17  C   UNL d   1      53.041  30.242  53.202  0.00  0.00     0.000 A 
ATOM     18  C   UNL d   1      52.823  29.686  52.631  0.00  0.00     0.000 C 
ATOM     19  C   UNL d   1      53.077  30.092  54.020  0.00  0.00     0.000 A 
ATOM     20  C   UNL d   1      53.303  30.695  54.538  0.00  0.00     0.000 A 
ATOM     21  C   UNL d   1      53.493  31.440  54.249  0.00  0.00     0.002 A 
ENDBRANCH  14  15
ENDBRANCH   6  14
BRANCH   9  22
ATOM     22  S   UNL d   1      54.274  33.228  54.553  0.00  0.00    -0.046 SA
BRANCH  22  23
ATOM     23  C   UNL d   1      54.824  33.368  55.148  0.00  0.00     0.084 C 
BRANCH  23  24
ATOM     24  C   UNL d   1      55.490  33.823  54.990  0.00  0.00     0.241 C 
ATOM     25  O   UNL d   1      55.842  34.258  55.594  0.00  0.00    -0.283 OA
ENDBRANCH  23  24
ENDBRANCH  22  23
ENDBRANCH   9  22
TORSDOF 5
ENDMDL
