MODEL 1
REMARK VINA RESULT:      -4.7      0.000      0.000
REMARK  3 active torsions:
REMARK  status: ('A' for Active; 'I' for Inactive)
REMARK    1  A    between atoms: S_4  and  C_1 
REMARK    2  A    between atoms: C_8  and  S_4 
REMARK    3  A    between atoms: C_9  and  C_8 
ROOT
ATOM      1  C   UNL d   1      58.161  -0.379  30.033  0.00  0.00     0.114 A 
ATOM      2  C   UNL d   1      58.555  -0.938  29.572  0.00  0.00     0.042 A 
ATOM      3  N   UNL d   1      58.224   0.420  29.848  0.00  0.00    -0.217 NA
ATOM      4  N   UNL d   1      59.073   0.101  28.742  0.00  0.00    -0.224 NA
ATOM      5  C   UNL d   1      58.681   0.661  29.200  0.00  0.00     0.200 A 
ATOM      6  C   UNL d   1      59.010  -0.698  28.927  0.00  0.00     0.085 A 
ATOM      7  C   UNL d   1      58.492  -1.737  29.757  0.00  0.00     0.004 A 
ATOM      8  C   UNL d   1      59.403  -1.262  28.468  0.00  0.00     0.019 A 
ATOM      9  C   UNL d   1      58.884  -2.310  29.299  0.00  0.00     0.000 A 
ATOM     10  C   UNL d   1      59.340  -2.061  28.653  0.00  0.00     0.002 A 
ENDROOT
BRANCH   1  11
ATOM     11  S   UNL d   1      57.701  -0.622  30.684  0.00  0.00    -0.067 SA
BRANCH  11  12
ATOM     12  C   UNL d   1      57.577  -0.112  31.314  0.00  0.00     0.037 C 
BRANCH  12  13
ATOM     13  C   UNL d   1      57.081  -0.337  31.934  0.00  0.00     0.006 A 
ATOM     14  C   UNL d   1      57.127   0.065  32.667  0.00  0.00     0.001 A 
ATOM     15  C   UNL d   1      57.666   0.682  32.764  0.00  0.00     0.000 C 
ATOM     16  C   UNL d   1      56.625  -0.167  33.286  0.00  0.00     0.000 A 
ATOM     17  C   UNL d   1      56.094  -0.779  33.182  0.00  0.00     0.000 A 
ATOM     18  C   UNL d   1      56.054  -1.170  32.460  0.00  0.00     0.000 A 
ATOM     19  C   UNL d   1      56.546  -0.955  31.829  0.00  0.00     0.001 A 
ENDBRANCH  12  13
ENDBRANCH  11  12
ENDBRANCH   1  11
TORSDOF 3
ENDMDL
MODEL 2
REMARK VINA RESULT:      -3.7      1.576      2.117
REMARK  3 active torsions:
REMARK  status: ('A' for Active; 'I' for Inactive)
REMARK    1  A    between atoms: S_4  and  C_1 
REMARK    2  A    between atoms: C_8  and  S_4 
REMARK    3  A    between atoms: C_9  and  C_8 
ROOT
ATOM      1  C   UNL d   1      58.011   0.414  31.547  0.00  0.00     0.114 A 
ATOM      2  C   UNL d   1      58.197   0.468  30.745  0.00  0.00     0.042 A 
ATOM      3  N   UNL d   1      58.606   0.494  32.109  0.00  0.00    -0.217 NA
ATOM      4  N   UNL d   1      59.571   0.682  31.069  0.00  0.00    -0.224 NA
ATOM      5  C   UNL d   1      59.389   0.629  31.869  0.00  0.00     0.200 A 
ATOM      6  C   UNL d   1      58.976   0.601  30.507  0.00  0.00     0.085 A 
ATOM      7  C   UNL d   1      57.602   0.387  30.183  0.00  0.00     0.004 A 
ATOM      8  C   UNL d   1      59.157   0.654  29.701  0.00  0.00     0.019 A 
ATOM      9  C   UNL d   1      57.777   0.439  29.371  0.00  0.00     0.000 A 
ATOM     10  C   UNL d   1      58.562   0.574  29.139  0.00  0.00     0.002 A 
ENDROOT
BRANCH   1  11
ATOM     11  S   UNL d   1      57.225   0.279  31.787  0.00  0.00    -0.067 SA
BRANCH  11  12
ATOM     12  C   UNL d   1      57.071  -0.076  32.509  0.00  0.00     0.037 C 
BRANCH  12  13
ATOM     13  C   UNL d   1      56.308  -0.052  32.825  0.00  0.00     0.006 A 
ATOM     14  C   UNL d   1      55.913  -0.768  33.005  0.00  0.00     0.001 A 
ATOM     15  C   UNL d   1      56.288  -1.490  32.867  0.00  0.00     0.000 C 
ATOM     16  C   UNL d   1      55.146  -0.737  33.322  0.00  0.00     0.000 A 
ATOM     17  C   UNL d   1      54.783  -0.018  33.455  0.00  0.00     0.000 A 
ATOM     18  C   UNL d   1      55.176   0.682  33.276  0.00  0.00     0.000 A 
ATOM     19  C   UNL d   1      55.941   0.673  32.959  0.00  0.00     0.001 A 
ENDBRANCH  12  13
ENDBRANCH  11  12
ENDBRANCH   1  11
TORSDOF 3
ENDMDL
MODEL 3
REMARK VINA RESULT:      -1.9      1.525      2.473
REMARK  3 active torsions:
REMARK  status: ('A' for Active; 'I' for Inactive)
REMARK    1  A    between atoms: S_4  and  C_1 
REMARK    2  A    between atoms: C_8  and  S_4 
REMARK    3  A    between atoms: C_9  and  C_8 
ROOT
ATOM      1  C   UNL d   1      58.758  -2.209  29.260  0.00  0.00     0.114 A 
ATOM      2  C   UNL d   1      59.549  -2.351  29.075  0.00  0.00     0.042 A 
ATOM      3  N   UNL d   1      58.194  -2.787  29.106  0.00  0.00    -0.217 NA
ATOM      4  N   UNL d   1      59.210  -3.647  28.582  0.00  0.00    -0.224 NA
ATOM      5  C   UNL d   1      58.421  -3.509  28.766  0.00  0.00     0.200 A 
ATOM      6  C   UNL d   1      59.775  -3.069  28.736  0.00  0.00     0.085 A 
ATOM      7  C   UNL d   1      60.113  -1.773  29.228  0.00  0.00     0.004 A 
ATOM      8  C   UNL d   1      60.569  -3.206  28.552  0.00  0.00     0.019 A 
ATOM      9  C   UNL d   1      60.914  -1.904  29.046  0.00  0.00     0.000 A 
ATOM     10  C   UNL d   1      61.133  -2.628  28.706  0.00  0.00     0.002 A 
ENDROOT
BRANCH   1  11
ATOM     11  S   UNL d   1      58.530  -1.484  29.602  0.00  0.00    -0.067 SA
BRANCH  11  12
ATOM     12  C   UNL d   1      58.037  -1.474  30.255  0.00  0.00     0.037 C 
BRANCH  12  13
ATOM     13  C   UNL d   1      57.808  -0.753  30.587  0.00  0.00     0.006 A 
ATOM     14  C   UNL d   1      57.273  -0.746  31.231  0.00  0.00     0.001 A 
ATOM     15  C   UNL d   1      56.978  -1.457  31.528  0.00  0.00     0.000 C 
ATOM     16  C   UNL d   1      57.048  -0.017  31.560  0.00  0.00     0.000 A 
ATOM     17  C   UNL d   1      57.345   0.681  31.260  0.00  0.00     0.000 A 
ATOM     18  C   UNL d   1      57.871   0.668  30.627  0.00  0.00     0.000 A 
ATOM     19  C   UNL d   1      58.108  -0.048  30.284  0.00  0.00     0.001 A 
ENDBRANCH  12  13
ENDBRANCH  11  12
ENDBRANCH   1  11
TORSDOF 3
ENDMDL
MODEL 4
REMARK VINA RESULT:      -1.8      2.528      5.222
REMARK  3 active torsions:
REMARK  status: ('A' for Active; 'I' for Inactive)
REMARK    1  A    between atoms: S_4  and  C_1 
REMARK    2  A    between atoms: C_8  and  S_4 
REMARK    3  A    between atoms: C_9  and  C_8 
ROOT
ATOM      1  C   UNL d   1      56.249   0.622  34.054  0.00  0.00     0.114 A 
ATOM      2  C   UNL d   1      55.446   0.642  34.240  0.00  0.00     0.042 A 
ATOM      3  N   UNL d   1      56.807   0.607  34.658  0.00  0.00    -0.217 NA
ATOM      4  N   UNL d   1      55.759   0.632  35.632  0.00  0.00    -0.224 NA
ATOM      5  C   UNL d   1      56.561   0.612  35.450  0.00  0.00     0.200 A 
ATOM      6  C   UNL d   1      55.202   0.647  35.028  0.00  0.00     0.085 A 
ATOM      7  C   UNL d   1      54.888   0.657  33.636  0.00  0.00     0.004 A 
ATOM      8  C   UNL d   1      54.395   0.667  35.209  0.00  0.00     0.019 A 
ATOM      9  C   UNL d   1      54.075   0.677  33.811  0.00  0.00     0.000 A 
ATOM     10  C   UNL d   1      53.837   0.682  34.605  0.00  0.00     0.002 A 
ENDROOT
BRANCH   1  11
ATOM     11  S   UNL d   1      56.496   0.617  33.258  0.00  0.00    -0.067 SA
BRANCH  11  12
ATOM     12  C   UNL d   1      56.790  -0.070  32.922  0.00  0.00     0.037 C 
BRANCH  12  13
ATOM     13  C   UNL d   1      57.127  -0.048  32.168  0.00  0.00     0.006 A 
ATOM     14  C   UNL d   1      57.037  -0.704  31.657  0.00  0.00     0.001 A 
ATOM     15  C   UNL d   1      56.614  -1.366  31.907  0.00  0.00     0.000 C 
ATOM     16  C   UNL d   1      57.379  -0.675  30.900  0.00  0.00     0.000 A 
ATOM     17  C   UNL d   1      57.796  -0.016  30.660  0.00  0.00     0.000 A 
ATOM     18  C   UNL d   1      57.881   0.626  31.167  0.00  0.00     0.000 A 
ATOM     19  C   UNL d   1      57.548   0.617  31.926  0.00  0.00     0.001 A 
ENDBRANCH  12  13
ENDBRANCH  11  12
ENDBRANCH   1  11
TORSDOF 3
ENDMDL
MODEL 5
REMARK VINA RESULT:      -1.7      1.373      2.216
REMARK  3 active torsions:
REMARK  status: ('A' for Active; 'I' for Inactive)
REMARK    1  A    between atoms: S_4  and  C_1 
REMARK    2  A    between atoms: C_8  and  S_4 
REMARK    3  A    between atoms: C_9  and  C_8 
ROOT
ATOM      1  C   UNL d   1      57.131  -0.630  31.496  0.00  0.00     0.114 A 
ATOM      2  C   UNL d   1      57.684  -0.373  30.940  0.00  0.00     0.042 A 
ATOM      3  N   UNL d   1      56.881  -1.413  31.488  0.00  0.00    -0.217 NA
ATOM      4  N   UNL d   1      57.735  -1.682  30.373  0.00  0.00    -0.224 NA
ATOM      5  C   UNL d   1      57.184  -1.941  30.925  0.00  0.00     0.200 A 
ATOM      6  C   UNL d   1      57.985  -0.898  30.380  0.00  0.00     0.085 A 
ATOM      7  C   UNL d   1      57.934   0.410  30.947  0.00  0.00     0.004 A 
ATOM      8  C   UNL d   1      58.540  -0.635  29.825  0.00  0.00     0.019 A 
ATOM      9  C   UNL d   1      58.492   0.682  30.392  0.00  0.00     0.000 A 
ATOM     10  C   UNL d   1      58.790   0.148  29.832  0.00  0.00     0.002 A 
ENDROOT
BRANCH   1  11
ATOM     11  S   UNL d   1      56.827  -0.100  32.061  0.00  0.00    -0.067 SA
BRANCH  11  12
ATOM     12  C   UNL d   1      56.772  -0.323  32.848  0.00  0.00     0.037 C 
BRANCH  12  13
ATOM     13  C   UNL d   1      56.185   0.003  33.329  0.00  0.00     0.006 A 
ATOM     14  C   UNL d   1      56.397   0.356  34.057  0.00  0.00     0.001 A 
ATOM     15  C   UNL d   1      57.188   0.376  34.290  0.00  0.00     0.000 C 
ATOM     16  C   UNL d   1      55.801   0.682  34.535  0.00  0.00     0.000 A 
ATOM     17  C   UNL d   1      55.020   0.658  34.298  0.00  0.00     0.000 A 
ATOM     18  C   UNL d   1      54.819   0.309  33.580  0.00  0.00     0.000 A 
ATOM     19  C   UNL d   1      55.397  -0.021  33.089  0.00  0.00     0.001 A 
ENDBRANCH  12  13
ENDBRANCH  11  12
ENDBRANCH   1  11
TORSDOF 3
ENDMDL
