MODEL 1
REMARK VINA RESULT:      -6.7      0.000      0.000
REMARK  7 active torsions:
REMARK  status: ('A' for Active; 'I' for Inactive)
REMARK    1  A    between atoms: N_4  and  S_1 
REMARK    2  A    between atoms: C_2  and  N_4 
REMARK    3  A    between atoms: C_3  and  C_2 
REMARK    4  A    between atoms: N_5  and  C_3 
REMARK    5  A    between atoms: C_7  and  C_3 
REMARK    6  A    between atoms: C_9  and  N_6 
REMARK    7  A    between atoms: O_26  and  C_22 
ROOT
ATOM      1  N   UNL d   1     -48.358  13.355  22.673  0.00  0.00    -0.300 N 
ATOM      2  N   UNL d   1     -46.736  13.038  22.464  0.00  0.00    -0.301 N 
ATOM      3  C   UNL d   1     -47.837  13.358  23.323  0.00  0.00     0.100 A 
ATOM      4  C   UNL d   1     -48.053  13.192  21.929  0.00  0.00     0.100 A 
ATOM      5  C   UNL d   1     -47.034  13.202  23.223  0.00  0.00     0.100 A 
ATOM      6  C   UNL d   1     -47.254  13.035  21.817  0.00  0.00     0.100 A 
ENDROOT
BRANCH   1   7
ATOM      7  C   UNL d   1     -49.156  13.511  22.776  0.00  0.00     0.089 C 
BRANCH   7   8
ATOM      8  C   UNL d   1     -49.701  12.894  22.790  0.00  0.00     0.110 C 
ATOM      9  C   UNL d   1     -50.102  12.683  22.101  0.00  0.00     0.023 C 
BRANCH   8  10
ATOM     10  N   UNL d   1     -49.843  12.490  23.487  0.00  0.00    -0.161 NA
BRANCH  10  11
ATOM     11  S   UNL d   1     -50.373  11.861  23.509  0.00  0.00     0.266 S 
ATOM     12  O   UNL d   1     -49.715  11.387  23.685  0.00  0.00    -0.203 OA
ATOM     13  O   UNL d   1     -50.466  11.048  23.626  0.00  0.00    -0.203 OA
ATOM     14  C   UNL d   1     -51.063  12.272  23.338  0.00  0.00     0.165 C 
ENDBRANCH  10  11
ENDBRANCH   8  10
ENDBRANCH   7   8
BRANCH   7  15
ATOM     15  C   UNL d   1     -49.415  14.287  22.866  0.00  0.00     0.047 A 
ATOM     16  S   UNL d   1     -49.609  14.812  22.255  0.00  0.00    -0.085 SA
ATOM     17  C   UNL d   1     -49.839  15.526  22.601  0.00  0.00     0.035 A 
ATOM     18  C   UNL d   1     -49.792  15.454  23.414  0.00  0.00     0.007 A 
ATOM     19  C   UNL d   1     -49.528  14.684  23.583  0.00  0.00     0.009 A 
ENDBRANCH   7  15
ENDBRANCH   1   7
BRANCH   2  20
ATOM     20  C   UNL d   1     -45.930  12.881  22.364  0.00  0.00     0.064 A 
ATOM     21  C   UNL d   1     -45.457  13.412  21.955  0.00  0.00     0.020 A 
ATOM     22  C   UNL d   1     -44.651  13.252  21.857  0.00  0.00     0.026 A 
ATOM     23  C   UNL d   1     -44.324  12.558  22.172  0.00  0.00     0.094 A 
ATOM     24  C   UNL d   1     -44.817  12.032  22.583  0.00  0.00     0.026 A 
ATOM     25  C   UNL d   1     -45.624  12.192  22.681  0.00  0.00     0.020 A 
BRANCH  23  26
ATOM     26  O   UNL d   1     -43.516  12.392  22.077  0.00  0.00    -0.328 OA
ATOM     27  C   UNL d   1     -43.121  12.712  21.431  0.00  0.00     0.181 C 
ENDBRANCH  23  26
ENDBRANCH   2  20
TORSDOF 7
ENDMDL
MODEL 2
REMARK VINA RESULT:      -5.8      1.327      2.143
REMARK  7 active torsions:
REMARK  status: ('A' for Active; 'I' for Inactive)
REMARK    1  A    between atoms: N_4  and  S_1 
REMARK    2  A    between atoms: C_2  and  N_4 
REMARK    3  A    between atoms: C_3  and  C_2 
REMARK    4  A    between atoms: N_5  and  C_3 
REMARK    5  A    between atoms: C_7  and  C_3 
REMARK    6  A    between atoms: C_9  and  N_6 
REMARK    7  A    between atoms: O_26  and  C_22 
ROOT
ATOM      1  N   UNL d   1     -48.229  13.203  22.749  0.00  0.00    -0.300 N 
ATOM      2  N   UNL d   1     -46.613  12.935  22.446  0.00  0.00    -0.301 N 
ATOM      3  C   UNL d   1     -47.685  13.137  23.376  0.00  0.00     0.100 A 
ATOM      4  C   UNL d   1     -47.951  13.132  21.981  0.00  0.00     0.100 A 
ATOM      5  C   UNL d   1     -46.884  13.005  23.230  0.00  0.00     0.100 A 
ATOM      6  C   UNL d   1     -47.155  13.000  21.823  0.00  0.00     0.100 A 
ENDROOT
BRANCH   1   7
ATOM      7  C   UNL d   1     -49.025  13.334  22.898  0.00  0.00     0.089 C 
BRANCH   7   8
ATOM      8  C   UNL d   1     -49.313  14.102  22.963  0.00  0.00     0.110 C 
ATOM      9  C   UNL d   1     -49.305  14.485  23.693  0.00  0.00     0.023 C 
BRANCH   8  10
ATOM     10  N   UNL d   1     -49.607  14.485  22.302  0.00  0.00    -0.161 NA
BRANCH  10  11
ATOM     11  S   UNL d   1     -50.006  15.202  22.373  0.00  0.00     0.266 S 
ATOM     12  O   UNL d   1     -50.524  14.906  21.796  0.00  0.00    -0.203 OA
ATOM     13  O   UNL d   1     -50.642  15.660  22.113  0.00  0.00    -0.203 OA
ATOM     14  C   UNL d   1     -49.532  15.553  22.944  0.00  0.00     0.165 C 
ENDBRANCH  10  11
ENDBRANCH   8  10
ENDBRANCH   7   8
BRANCH   7  15
ATOM     15  C   UNL d   1     -49.538  12.696  22.984  0.00  0.00     0.047 A 
ATOM     16  S   UNL d   1     -49.859  12.241  22.371  0.00  0.00    -0.085 SA
ATOM     17  C   UNL d   1     -50.341  11.663  22.713  0.00  0.00     0.035 A 
ATOM     18  C   UNL d   1     -50.325  11.751  23.525  0.00  0.00     0.007 A 
ATOM     19  C   UNL d   1     -49.826  12.394  23.698  0.00  0.00     0.009 A 
ENDBRANCH   7  15
ENDBRANCH   1   7
BRANCH   2  20
ATOM     20  C   UNL d   1     -45.810  12.803  22.301  0.00  0.00     0.064 A 
ATOM     21  C   UNL d   1     -45.394  13.310  21.809  0.00  0.00     0.020 A 
ATOM     22  C   UNL d   1     -44.591  13.175  21.665  0.00  0.00     0.026 A 
ATOM     23  C   UNL d   1     -44.209  12.528  22.017  0.00  0.00     0.094 A 
ATOM     24  C   UNL d   1     -44.645  12.025  22.511  0.00  0.00     0.026 A 
ATOM     25  C   UNL d   1     -45.450  12.160  22.656  0.00  0.00     0.020 A 
BRANCH  23  26
ATOM     26  O   UNL d   1     -43.403  12.387  21.877  0.00  0.00    -0.328 OA
ATOM     27  C   UNL d   1     -42.987  12.913  21.400  0.00  0.00     0.181 C 
ENDBRANCH  23  26
ENDBRANCH   2  20
TORSDOF 7
ENDMDL
MODEL 3
REMARK VINA RESULT:      -4.5      7.731      9.930
REMARK  7 active torsions:
REMARK  status: ('A' for Active; 'I' for Inactive)
REMARK    1  A    between atoms: N_4  and  S_1 
REMARK    2  A    between atoms: C_2  and  N_4 
REMARK    3  A    between atoms: C_3  and  C_2 
REMARK    4  A    between atoms: N_5  and  C_3 
REMARK    5  A    between atoms: C_7  and  C_3 
REMARK    6  A    between atoms: C_9  and  N_6 
REMARK    7  A    between atoms: O_26  and  C_22 
ROOT
ATOM      1  N   UNL d   1     -39.454  15.048  19.749  0.00  0.00    -0.300 N 
ATOM      2  N   UNL d   1     -38.949  15.073  18.162  0.00  0.00    -0.301 N 
ATOM      3  C   UNL d   1     -39.531  14.372  19.268  0.00  0.00     0.100 A 
ATOM      4  C   UNL d   1     -39.124  15.724  19.423  0.00  0.00     0.100 A 
ATOM      5  C   UNL d   1     -39.282  14.381  18.482  0.00  0.00     0.100 A 
ATOM      6  C   UNL d   1     -38.872  15.745  18.641  0.00  0.00     0.100 A 
ENDROOT
BRANCH   1   7
ATOM      7  C   UNL d   1     -39.703  15.035  20.530  0.00  0.00     0.089 C 
BRANCH   7   8
ATOM      8  C   UNL d   1     -39.167  14.875  21.134  0.00  0.00     0.110 C 
ATOM      9  C   UNL d   1     -38.743  15.490  21.483  0.00  0.00     0.023 C 
BRANCH   8  10
ATOM     10  N   UNL d   1     -39.055  14.105  21.387  0.00  0.00    -0.161 NA
BRANCH  10  11
ATOM     11  S   UNL d   1     -38.494  13.927  21.962  0.00  0.00     0.266 S 
ATOM     12  O   UNL d   1     -38.458  13.174  21.614  0.00  0.00    -0.203 OA
ATOM     13  O   UNL d   1     -37.985  13.352  22.268  0.00  0.00    -0.203 OA
ATOM     14  C   UNL d   1     -38.480  14.650  22.351  0.00  0.00     0.165 C 
ENDBRANCH  10  11
ENDBRANCH   8  10
ENDBRANCH   7   8
BRANCH   7  15
ATOM     15  C   UNL d   1     -40.492  15.184  20.713  0.00  0.00     0.047 A 
ATOM     16  S   UNL d   1     -41.101  14.623  20.742  0.00  0.00    -0.085 SA
ATOM     17  C   UNL d   1     -41.797  15.020  20.946  0.00  0.00     0.035 A 
ATOM     18  C   UNL d   1     -41.631  15.814  21.045  0.00  0.00     0.007 A 
ATOM     19  C   UNL d   1     -40.819  15.920  20.900  0.00  0.00     0.009 A 
ENDBRANCH   7  15
ENDBRANCH   1   7
BRANCH   2  20
ATOM     20  C   UNL d   1     -38.699  15.081  17.374  0.00  0.00     0.064 A 
ATOM     21  C   UNL d   1     -38.888  15.716  16.891  0.00  0.00     0.020 A 
ATOM     22  C   UNL d   1     -38.637  15.722  16.103  0.00  0.00     0.026 A 
ATOM     23  C   UNL d   1     -38.196  15.086  15.804  0.00  0.00     0.094 A 
ATOM     24  C   UNL d   1     -38.013  14.452  16.305  0.00  0.00     0.026 A 
ATOM     25  C   UNL d   1     -38.265  14.446  17.095  0.00  0.00     0.020 A 
BRANCH  23  26
ATOM     26  O   UNL d   1     -37.940  15.085  15.013  0.00  0.00    -0.328 OA
ATOM     27  C   UNL d   1     -38.019  15.776  14.572  0.00  0.00     0.181 C 
ENDBRANCH  23  26
ENDBRANCH   2  20
TORSDOF 7
ENDMDL
MODEL 4
REMARK VINA RESULT:      -4.2      7.433      9.899
REMARK  7 active torsions:
REMARK  status: ('A' for Active; 'I' for Inactive)
REMARK    1  A    between atoms: N_4  and  S_1 
REMARK    2  A    between atoms: C_2  and  N_4 
REMARK    3  A    between atoms: C_3  and  C_2 
REMARK    4  A    between atoms: N_5  and  C_3 
REMARK    5  A    between atoms: C_7  and  C_3 
REMARK    6  A    between atoms: C_9  and  N_6 
REMARK    7  A    between atoms: O_26  and  C_22 
ROOT
ATOM      1  N   UNL d   1     -39.225  14.758  19.448  0.00  0.00    -0.300 N 
ATOM      2  N   UNL d   1     -38.796  14.568  17.850  0.00  0.00    -0.301 N 
ATOM      3  C   UNL d   1     -39.083  15.421  18.965  0.00  0.00     0.100 A 
ATOM      4  C   UNL d   1     -39.148  14.011  19.119  0.00  0.00     0.100 A 
ATOM      5  C   UNL d   1     -38.871  15.331  18.173  0.00  0.00     0.100 A 
ATOM      6  C   UNL d   1     -38.937  13.909  18.331  0.00  0.00     0.100 A 
ENDROOT
BRANCH   1   7
ATOM      7  C   UNL d   1     -39.436  14.851  20.235  0.00  0.00     0.089 C 
BRANCH   7   8
ATOM      8  C   UNL d   1     -40.207  15.059  20.436  0.00  0.00     0.110 C 
ATOM      9  C   UNL d   1     -40.399  15.851  20.567  0.00  0.00     0.023 C 
BRANCH   8  10
ATOM     10  N   UNL d   1     -40.782  14.481  20.505  0.00  0.00    -0.161 NA
BRANCH  10  11
ATOM     11  S   UNL d   1     -41.537  14.668  20.772  0.00  0.00     0.266 S 
ATOM     12  O   UNL d   1     -41.636  13.852  20.889  0.00  0.00    -0.203 OA
ATOM     13  O   UNL d   1     -42.251  14.375  21.069  0.00  0.00    -0.203 OA
ATOM     14  C   UNL d   1     -41.505  15.483  20.679  0.00  0.00     0.165 C 
ENDBRANCH  10  11
ENDBRANCH   8  10
ENDBRANCH   7   8
BRANCH   7  15
ATOM     15  C   UNL d   1     -38.876  14.737  20.827  0.00  0.00     0.047 A 
ATOM     16  S   UNL d   1     -38.428  15.327  21.197  0.00  0.00    -0.085 SA
ATOM     17  C   UNL d   1     -37.940  14.959  21.754  0.00  0.00     0.035 A 
ATOM     18  C   UNL d   1     -38.076  14.154  21.736  0.00  0.00     0.007 A 
ATOM     19  C   UNL d   1     -38.659  14.011  21.160  0.00  0.00     0.009 A 
ENDBRANCH   7  15
ENDBRANCH   1   7
BRANCH   2  20
ATOM     20  C   UNL d   1     -38.583  14.478  17.056  0.00  0.00     0.064 A 
ATOM     21  C   UNL d   1     -38.602  15.124  16.552  0.00  0.00     0.020 A 
ATOM     22  C   UNL d   1     -38.389  15.032  15.757  0.00  0.00     0.026 A 
ATOM     23  C   UNL d   1     -38.156  14.287  15.475  0.00  0.00     0.094 A 
ATOM     24  C   UNL d   1     -38.142  13.644  15.999  0.00  0.00     0.026 A 
ATOM     25  C   UNL d   1     -38.356  13.737  16.794  0.00  0.00     0.020 A 
BRANCH  23  26
ATOM     26  O   UNL d   1     -37.940  14.187  14.679  0.00  0.00    -0.328 OA
ATOM     27  C   UNL d   1     -38.115  13.472  14.310  0.00  0.00     0.181 C 
ENDBRANCH  23  26
ENDBRANCH   2  20
TORSDOF 7
ENDMDL
