MODEL 1
REMARK VINA RESULT:      13.2      0.000      0.000
REMARK  4 active torsions:
REMARK  status: ('A' for Active; 'I' for Inactive)
REMARK    1  A    between atoms: C_2  and  C_1 
REMARK    2  A    between atoms: N_13  and  C_6 
REMARK    3  A    between atoms: N_12  and  N_13 
REMARK    4  A    between atoms: C_15  and  N_12 
ROOT
ATOM      1  C   UNL d   1      45.890 -17.227  44.037  0.00  0.00     0.095 A 
ATOM      2  N   UNL d   1      46.176 -16.450  43.910  0.00  0.00    -0.219 NA
ATOM      3  C   UNL d   1      45.800 -15.970  44.453  0.00  0.00     0.215 A 
ATOM      4  S   UNL d   1      45.287 -16.408  44.920  0.00  0.00    -0.045 SA
ATOM      5  C   UNL d   1      45.349 -17.181  44.656  0.00  0.00     0.058 A 
ENDROOT
BRANCH   1   6
ATOM      6  C   UNL d   1      46.077 -17.944  43.648  0.00  0.00     0.082 A 
ATOM      7  C   UNL d   1      46.249 -18.606  44.093  0.00  0.00     0.302 A 
ATOM      8  O   UNL d   1      46.442 -19.347  43.719  0.00  0.00    -0.273 OA
ATOM      9  O   UNL d   1      46.231 -18.535  44.952  0.00  0.00    -0.259 OA
ATOM     10  C   UNL d   1      46.450 -19.377  42.869  0.00  0.00     0.103 A 
ATOM     11  C   UNL d   1      46.278 -18.715  42.423  0.00  0.00     0.023 A 
ATOM     12  C   UNL d   1      46.639 -20.102  42.521  0.00  0.00     0.025 A 
ATOM     13  C   UNL d   1      46.091 -17.999  42.812  0.00  0.00     0.009 A 
ATOM     14  C   UNL d   1      46.288 -18.754  41.614  0.00  0.00     0.002 A 
ATOM     15  C   UNL d   1      46.475 -19.471  41.224  0.00  0.00     0.000 A 
ATOM     16  C   UNL d   1      46.647 -20.133  41.669  0.00  0.00     0.002 A 
ENDBRANCH   1   6
BRANCH   3  17
ATOM     17  N   UNL d   1      45.944 -15.129  44.502  0.00  0.00    -0.122 NA
BRANCH  17  18
ATOM     18  N   UNL d   1      45.281 -14.628  44.517  0.00  0.00    -0.146 NA
BRANCH  18  19
ATOM     19  C   UNL d   1      45.327 -13.841  44.284  0.00  0.00     0.103 A 
ATOM     20  C   UNL d   1      45.943 -13.363  44.585  0.00  0.00     0.021 A 
ATOM     21  C   UNL d   1      45.990 -12.558  44.347  0.00  0.00     0.002 A 
ATOM     22  C   UNL d   1      45.417 -12.279  43.823  0.00  0.00     0.000 A 
ATOM     23  C   UNL d   1      44.825 -12.754  43.540  0.00  0.00     0.002 A 
ATOM     24  C   UNL d   1      44.780 -13.536  43.771  0.00  0.00     0.021 A 
ENDBRANCH  18  19
ENDBRANCH  17  18
ENDBRANCH   3  17
TORSDOF 4
ENDMDL
