MODEL 1
REMARK VINA RESULT:      64.3      0.000      0.000
REMARK  8 active torsions:
REMARK  status: ('A' for Active; 'I' for Inactive)
REMARK    1  A    between atoms: C_9  and  N_1 
REMARK    2  A    between atoms: C_7  and  C_2 
REMARK    3  A    between atoms: C_6  and  C_4 
REMARK    4  A    between atoms: C_8  and  C_12 
REMARK       I    between atoms: N_25  and  C_8 
REMARK    5  A    between atoms: N_11  and  C_26 
REMARK    6  A    between atoms: C_30  and  N_25 
REMARK    7  A    between atoms: C_26  and  C_27 
REMARK    8  A    between atoms: C_27  and  C_30 
ROOT
ATOM      1  C   UNL d   1     -51.433  26.293  33.553  0.00  0.00     0.083 A 
ATOM      2  C   UNL d   1     -50.777  27.802  33.678  0.00  0.00     0.058 A 
ATOM      3  C   UNL d   1     -51.869  26.948  33.308  0.00  0.00     0.019 A 
ATOM      4  C   UNL d   1     -50.673  26.387  33.860  0.00  0.00     0.019 A 
ATOM      5  C   UNL d   1     -50.344  27.135  33.923  0.00  0.00     0.006 A 
ATOM      6  C   UNL d   1     -51.545  27.695  33.369  0.00  0.00     0.006 A 
ENDROOT
BRANCH   1   7
ATOM      7  N   UNL d   1     -51.757  25.533  33.493  0.00  0.00    -0.229 N 
ATOM      8  C   UNL d   1     -51.340  24.826  33.440  0.00  0.00     0.090 A 
ATOM      9  C   UNL d   1     -51.885  24.209  33.390  0.00  0.00     0.044 A 
ATOM     10  C   UNL d   1     -52.640  24.545  33.414  0.00  0.00     0.174 A 
ATOM     11  N   UNL d   1     -52.551  25.358  33.477  0.00  0.00    -0.161 NA
BRANCH   8  12
ATOM     12  C   UNL d   1     -50.532  24.658  33.429  0.00  0.00     0.047 A 
ATOM     13  S   UNL d   1     -49.773  24.982  33.310  0.00  0.00    -0.085 SA
ATOM     14  C   UNL d   1     -49.215  24.376  33.413  0.00  0.00     0.035 A 
ATOM     15  C   UNL d   1     -49.626  23.690  33.593  0.00  0.00     0.007 A 
ATOM     16  C   UNL d   1     -50.425  23.851  33.605  0.00  0.00     0.009 A 
ENDBRANCH   8  12
BRANCH  10  17
ATOM     17  C   UNL d   1     -53.357  24.132  33.380  0.00  0.00     0.437 C 
ATOM     18  F   UNL d   1     -53.500  23.278  33.391  0.00  0.00    -0.164 F 
ATOM     19  F   UNL d   1     -54.166  24.438  33.324  0.00  0.00    -0.164 F 
ATOM     20  F   UNL d   1     -54.012  23.755  33.349  0.00  0.00    -0.164 F 
ENDBRANCH  10  17
ENDBRANCH   1   7
BRANCH   2  21
ATOM     21  C   UNL d   1     -50.449  28.558  33.740  0.00  0.00     0.279 C 
ATOM     22  O   UNL d   1     -50.897  29.174  34.045  0.00  0.00    -0.265 OA
ATOM     23  N   UNL d   1     -49.672  28.687  33.494  0.00  0.00    -0.206 NA
BRANCH  23  24
ATOM     24  C   UNL d   1     -49.347  29.439  33.556  0.00  0.00     0.104 C 
BRANCH  24  25
ATOM     25  C   UNL d   1     -49.080  29.718  34.290  0.00  0.00     0.040 C 
BRANCH  25  26
ATOM     26  C   UNL d   1     -48.608  29.249  34.767  0.00  0.00     0.082 C 
BRANCH  26  27
ATOM     27  N   UNL d   1     -48.014  29.585  35.235  0.00  0.00    -0.299 N 
ATOM     28  C   UNL d   1     -47.733  30.343  35.061  0.00  0.00     0.107 A 
ATOM     29  C   UNL d   1     -47.141  30.667  35.533  0.00  0.00     0.142 A 
ATOM     30  O   UNL d   1     -46.834  30.245  36.167  0.00  0.00    -0.300 OA
ATOM     31  C   UNL d   1     -47.118  29.491  36.334  0.00  0.00     0.142 A 
ATOM     32  C   UNL d   1     -47.715  29.153  35.866  0.00  0.00     0.107 A 
ENDBRANCH  26  27
ENDBRANCH  25  26
ENDBRANCH  24  25
ENDBRANCH  23  24
ENDBRANCH   2  21
TORSDOF 8
ENDMDL
MODEL 2
REMARK VINA RESULT:      67.3      1.198      1.637
REMARK  8 active torsions:
REMARK  status: ('A' for Active; 'I' for Inactive)
REMARK    1  A    between atoms: C_9  and  N_1 
REMARK    2  A    between atoms: C_7  and  C_2 
REMARK    3  A    between atoms: C_6  and  C_4 
REMARK    4  A    between atoms: C_8  and  C_12 
REMARK       I    between atoms: N_25  and  C_8 
REMARK    5  A    between atoms: N_11  and  C_26 
REMARK    6  A    between atoms: C_30  and  N_25 
REMARK    7  A    between atoms: C_26  and  C_27 
REMARK    8  A    between atoms: C_27  and  C_30 
ROOT
ATOM      1  C   UNL d   1     -50.577  26.444  34.162  0.00  0.00     0.083 A 
ATOM      2  C   UNL d   1     -49.510  27.566  34.730  0.00  0.00     0.058 A 
ATOM      3  C   UNL d   1     -50.209  26.958  33.634  0.00  0.00     0.019 A 
ATOM      4  C   UNL d   1     -50.417  26.486  34.970  0.00  0.00     0.019 A 
ATOM      5  C   UNL d   1     -49.887  27.043  35.255  0.00  0.00     0.006 A 
ATOM      6  C   UNL d   1     -49.680  27.514  33.915  0.00  0.00     0.006 A 
ENDROOT
BRANCH   1   7
ATOM      7  N   UNL d   1     -51.115  25.878  33.883  0.00  0.00    -0.229 N 
ATOM      8  C   UNL d   1     -50.930  25.133  33.586  0.00  0.00     0.090 A 
ATOM      9  C   UNL d   1     -51.634  24.759  33.374  0.00  0.00     0.044 A 
ATOM     10  C   UNL d   1     -52.251  25.283  33.544  0.00  0.00     0.174 A 
ATOM     11  N   UNL d   1     -51.922  25.966  33.855  0.00  0.00    -0.161 NA
BRANCH   8  12
ATOM     12  C   UNL d   1     -50.213  24.741  33.479  0.00  0.00     0.047 A 
ATOM     13  S   UNL d   1     -49.403  24.841  33.306  0.00  0.00    -0.085 SA
ATOM     14  C   UNL d   1     -49.044  24.093  33.306  0.00  0.00     0.035 A 
ATOM     15  C   UNL d   1     -49.626  23.540  33.476  0.00  0.00     0.007 A 
ATOM     16  C   UNL d   1     -50.337  23.923  33.583  0.00  0.00     0.009 A 
ENDBRANCH   8  12
BRANCH  10  17
ATOM     17  C   UNL d   1     -53.058  25.141  33.420  0.00  0.00     0.437 C 
ATOM     18  F   UNL d   1     -53.707  25.706  33.331  0.00  0.00    -0.164 F 
ATOM     19  F   UNL d   1     -53.478  24.387  33.345  0.00  0.00    -0.164 F 
ATOM     20  F   UNL d   1     -53.794  25.011  33.307  0.00  0.00    -0.164 F 
ENDBRANCH  10  17
ENDBRANCH   1   7
BRANCH   2  21
ATOM     21  C   UNL d   1     -48.975  28.129  35.014  0.00  0.00     0.279 C 
ATOM     22  O   UNL d   1     -48.422  27.916  35.582  0.00  0.00    -0.265 OA
ATOM     23  N   UNL d   1     -49.001  28.900  34.723  0.00  0.00    -0.206 NA
BRANCH  23  24
ATOM     24  C   UNL d   1     -48.468  29.459  35.006  0.00  0.00     0.104 C 
BRANCH  24  25
ATOM     25  C   UNL d   1     -47.866  29.746  34.515  0.00  0.00     0.040 C 
BRANCH  25  26
ATOM     26  C   UNL d   1     -47.958  30.452  34.111  0.00  0.00     0.082 C 
BRANCH  26  27
ATOM     27  N   UNL d   1     -47.734  31.169  34.457  0.00  0.00    -0.299 N 
ATOM     28  C   UNL d   1     -47.309  31.169  35.166  0.00  0.00     0.107 A 
ATOM     29  C   UNL d   1     -47.091  31.888  35.502  0.00  0.00     0.142 A 
ATOM     30  O   UNL d   1     -47.293  32.597  35.139  0.00  0.00    -0.300 OA
ATOM     31  C   UNL d   1     -47.717  32.591  34.433  0.00  0.00     0.142 A 
ATOM     32  C   UNL d   1     -47.942  31.871  34.085  0.00  0.00     0.107 A 
ENDBRANCH  26  27
ENDBRANCH  25  26
ENDBRANCH  24  25
ENDBRANCH  23  24
ENDBRANCH   2  21
TORSDOF 8
ENDMDL
