MODEL 1
REMARK VINA RESULT:      -3.6      0.000      0.000
REMARK  3 active torsions:
REMARK  status: ('A' for Active; 'I' for Inactive)
REMARK       I    between atoms: N_2  and  C_1 
REMARK    1  A    between atoms: C_3  and  C_1 
REMARK    2  A    between atoms: C_8  and  N_2 
REMARK    3  A    between atoms: C_7  and  C_6 
ROOT
ATOM      1  C   UNL d   1      32.900  18.777 -22.838  0.00  0.00     0.279 C 
ATOM      2  N   UNL d   1      32.512  18.531 -23.520  0.00  0.00    -0.208 NA
ATOM      3  O   UNL d   1      33.216  18.205 -22.327  0.00  0.00    -0.265 OA
ENDROOT
BRANCH   1   4
ATOM      4  C   UNL d   1      32.981  19.579 -22.652  0.00  0.00     0.058 A 
ATOM      5  C   UNL d   1      32.884  19.838 -21.866  0.00  0.00     0.005 A 
ATOM      6  C   UNL d   1      32.969  20.633 -21.709  0.00  0.00     0.000 A 
ATOM      7  C   UNL d   1      32.873  20.902 -20.926  0.00  0.00     0.000 A 
ATOM      8  C   UNL d   1      33.148  21.178 -22.313  0.00  0.00     0.000 A 
ATOM      9  C   UNL d   1      32.960  21.714 -20.765  0.00  0.00     0.000 A 
ATOM     10  C   UNL d   1      33.137  22.244 -21.371  0.00  0.00     0.000 A 
ATOM     11  C   UNL d   1      33.230  21.977 -22.142  0.00  0.00     0.000 A 
ATOM     12  C   UNL d   1      33.241  20.917 -23.079  0.00  0.00     0.000 A 
ATOM     13  C   UNL d   1      33.158  20.110 -23.258  0.00  0.00     0.005 A 
ENDBRANCH   1   4
BRANCH   2  14
ATOM     14  C   UNL d   1      32.433  17.727 -23.703  0.00  0.00     0.085 A 
ATOM     15  C   UNL d   1      31.724  17.349 -23.609  0.00  0.00     0.022 A 
ATOM     16  C   UNL d   1      31.651  16.552 -23.791  0.00  0.00     0.041 A 
ATOM     17  C   UNL d   1      32.283  16.107 -24.073  0.00  0.00     0.003 A 
ATOM     18  C   UNL d   1      33.011  16.481 -24.174  0.00  0.00     0.002 A 
ATOM     19  C   UNL d   1      33.113  17.288 -23.996  0.00  0.00     0.019 A 
BRANCH  16  20
ATOM     20  C   UNL d   1      30.900  16.175 -23.686  0.00  0.00     0.196 C 
ATOM     21  O   UNL d   1      30.263  16.393 -24.149  0.00  0.00    -0.287 OA
ATOM     22  C   UNL d   1      30.826  15.591 -23.113  0.00  0.00     0.045 C 
ENDBRANCH  16  20
ENDBRANCH   2  14
TORSDOF 3
ENDMDL
MODEL 2
REMARK VINA RESULT:      -3.4      0.739      1.263
REMARK  3 active torsions:
REMARK  status: ('A' for Active; 'I' for Inactive)
REMARK       I    between atoms: N_2  and  C_1 
REMARK    1  A    between atoms: C_3  and  C_1 
REMARK    2  A    between atoms: C_8  and  N_2 
REMARK    3  A    between atoms: C_7  and  C_6 
ROOT
ATOM      1  C   UNL d   1      32.948  19.296 -22.454  0.00  0.00     0.279 C 
ATOM      2  N   UNL d   1      32.614  19.256 -23.205  0.00  0.00    -0.208 NA
ATOM      3  O   UNL d   1      33.240  18.602 -22.107  0.00  0.00    -0.265 OA
ENDROOT
BRANCH   1   4
ATOM      4  C   UNL d   1      32.998  20.011 -22.041  0.00  0.00     0.058 A 
ATOM      5  C   UNL d   1      33.066  20.730 -22.457  0.00  0.00     0.005 A 
ATOM      6  C   UNL d   1      33.113  21.420 -22.027  0.00  0.00     0.000 A 
ATOM      7  C   UNL d   1      33.181  22.144 -22.434  0.00  0.00     0.000 A 
ATOM      8  C   UNL d   1      33.095  21.416 -21.194  0.00  0.00     0.000 A 
ATOM      9  C   UNL d   1      33.230  22.850 -21.996  0.00  0.00     0.000 A 
ATOM     10  C   UNL d   1      33.210  22.833 -21.171  0.00  0.00     0.000 A 
ATOM     11  C   UNL d   1      33.143  22.118 -20.772  0.00  0.00     0.000 A 
ATOM     12  C   UNL d   1      33.028  20.709 -20.795  0.00  0.00     0.000 A 
ATOM     13  C   UNL d   1      32.978  19.994 -21.216  0.00  0.00     0.005 A 
ENDBRANCH   1   4
BRANCH   2  14
ATOM     14  C   UNL d   1      32.566  18.537 -23.616  0.00  0.00     0.085 A 
ATOM     15  C   UNL d   1      31.896  18.087 -23.583  0.00  0.00     0.022 A 
ATOM     16  C   UNL d   1      31.853  17.376 -23.991  0.00  0.00     0.041 A 
ATOM     17  C   UNL d   1      32.478  17.093 -24.445  0.00  0.00     0.003 A 
ATOM     18  C   UNL d   1      33.168  17.544 -24.487  0.00  0.00     0.002 A 
ATOM     19  C   UNL d   1      33.237  18.269 -24.082  0.00  0.00     0.019 A 
BRANCH  16  20
ATOM     20  C   UNL d   1      31.143  16.919 -23.944  0.00  0.00     0.196 C 
ATOM     21  O   UNL d   1      31.082  16.309 -23.402  0.00  0.00    -0.287 OA
ATOM     22  C   UNL d   1      30.520  17.098 -24.448  0.00  0.00     0.045 C 
ENDBRANCH  16  20
ENDBRANCH   2  14
TORSDOF 3
ENDMDL
MODEL 3
REMARK VINA RESULT:      -2.8      1.257      4.877
REMARK  3 active torsions:
REMARK  status: ('A' for Active; 'I' for Inactive)
REMARK       I    between atoms: N_2  and  C_1 
REMARK    1  A    between atoms: C_3  and  C_1 
REMARK    2  A    between atoms: C_8  and  N_2 
REMARK    3  A    between atoms: C_7  and  C_6 
ROOT
ATOM      1  C   UNL d   1      32.807  19.161 -23.017  0.00  0.00     0.279 C 
ATOM      2  N   UNL d   1      32.824  19.490 -22.263  0.00  0.00    -0.208 NA
ATOM      3  O   UNL d   1      32.828  19.665 -23.676  0.00  0.00    -0.265 OA
ENDROOT
BRANCH   1   4
ATOM      4  C   UNL d   1      32.771  18.342 -23.131  0.00  0.00     0.058 A 
ATOM      5  C   UNL d   1      32.270  18.023 -23.717  0.00  0.00     0.005 A 
ATOM      6  C   UNL d   1      32.252  17.214 -23.809  0.00  0.00     0.000 A 
ATOM      7  C   UNL d   1      31.755  16.886 -24.391  0.00  0.00     0.000 A 
ATOM      8  C   UNL d   1      32.719  16.712 -23.335  0.00  0.00     0.000 A 
ATOM      9  C   UNL d   1      31.736  16.059 -24.487  0.00  0.00     0.000 A 
ATOM     10  C   UNL d   1      32.203  15.573 -24.011  0.00  0.00     0.000 A 
ATOM     11  C   UNL d   1      32.692  15.899 -23.438  0.00  0.00     0.000 A 
ATOM     12  C   UNL d   1      33.205  17.032 -22.765  0.00  0.00     0.000 A 
ATOM     13  C   UNL d   1      33.237  17.855 -22.656  0.00  0.00     0.005 A 
ENDBRANCH   1   4
BRANCH   2  14
ATOM     14  C   UNL d   1      32.860  20.310 -22.153  0.00  0.00     0.085 A 
ATOM     15  C   UNL d   1      32.575  20.649 -21.477  0.00  0.00     0.022 A 
ATOM     16  C   UNL d   1      32.613  21.463 -21.372  0.00  0.00     0.041 A 
ATOM     17  C   UNL d   1      32.938  21.963 -21.939  0.00  0.00     0.003 A 
ATOM     18  C   UNL d   1      33.233  21.628 -22.634  0.00  0.00     0.002 A 
ATOM     19  C   UNL d   1      33.207  20.806 -22.765  0.00  0.00     0.019 A 
BRANCH  16  20
ATOM     20  C   UNL d   1      32.308  21.798 -20.658  0.00  0.00     0.196 C 
ATOM     21  O   UNL d   1      31.521  21.698 -20.460  0.00  0.00    -0.287 OA
ATOM     22  C   UNL d   1      32.815  22.223 -20.171  0.00  0.00     0.045 C 
ENDBRANCH  16  20
ENDBRANCH   2  14
TORSDOF 3
ENDMDL
MODEL 4
REMARK VINA RESULT:      -2.6      1.925      5.156
REMARK  3 active torsions:
REMARK  status: ('A' for Active; 'I' for Inactive)
REMARK       I    between atoms: N_2  and  C_1 
REMARK    1  A    between atoms: C_3  and  C_1 
REMARK    2  A    between atoms: C_8  and  N_2 
REMARK    3  A    between atoms: C_7  and  C_6 
ROOT
ATOM      1  C   UNL d   1      30.601  17.637 -24.503  0.00  0.00     0.279 C 
ATOM      2  N   UNL d   1      31.366  17.416 -24.293  0.00  0.00    -0.208 NA
ATOM      3  O   UNL d   1      30.456  18.424 -24.721  0.00  0.00    -0.265 OA
ENDROOT
BRANCH   1   4
ATOM      4  C   UNL d   1      29.977  17.093 -24.499  0.00  0.00     0.058 A 
ATOM      5  C   UNL d   1      29.384  17.141 -23.917  0.00  0.00     0.005 A 
ATOM      6  C   UNL d   1      28.781  16.593 -23.935  0.00  0.00     0.000 A 
ATOM      7  C   UNL d   1      28.183  16.633 -23.357  0.00  0.00     0.000 A 
ATOM      8  C   UNL d   1      28.752  15.999 -24.518  0.00  0.00     0.000 A 
ATOM      9  C   UNL d   1      27.566  16.074 -23.375  0.00  0.00     0.000 A 
ATOM     10  C   UNL d   1      27.548  15.490 -23.957  0.00  0.00     0.000 A 
ATOM     11  C   UNL d   1      28.139  15.453 -24.527  0.00  0.00     0.000 A 
ATOM     12  C   UNL d   1      29.336  15.959 -25.084  0.00  0.00     0.000 A 
ATOM     13  C   UNL d   1      29.959  16.509 -25.082  0.00  0.00     0.005 A 
ENDBRANCH   1   4
BRANCH   2  14
ATOM     14  C   UNL d   1      31.987  17.964 -24.298  0.00  0.00     0.085 A 
ATOM     15  C   UNL d   1      32.178  18.377 -23.630  0.00  0.00     0.022 A 
ATOM     16  C   UNL d   1      32.795  18.919 -23.639  0.00  0.00     0.041 A 
ATOM     17  C   UNL d   1      33.241  19.064 -24.316  0.00  0.00     0.003 A 
ATOM     18  C   UNL d   1      33.056  18.648 -25.004  0.00  0.00     0.002 A 
ATOM     19  C   UNL d   1      32.435  18.093 -25.021  0.00  0.00     0.019 A 
BRANCH  16  20
ATOM     20  C   UNL d   1      32.979  19.342 -22.930  0.00  0.00     0.196 C 
ATOM     21  O   UNL d   1      32.895  18.979 -22.202  0.00  0.00    -0.287 OA
ATOM     22  C   UNL d   1      33.241  20.118 -22.987  0.00  0.00     0.045 C 
ENDBRANCH  16  20
ENDBRANCH   2  14
TORSDOF 3
ENDMDL
MODEL 5
REMARK VINA RESULT:      -2.1      2.145      5.556
REMARK  3 active torsions:
REMARK  status: ('A' for Active; 'I' for Inactive)
REMARK       I    between atoms: N_2  and  C_1 
REMARK    1  A    between atoms: C_3  and  C_1 
REMARK    2  A    between atoms: C_8  and  N_2 
REMARK    3  A    between atoms: C_7  and  C_6 
ROOT
ATOM      1  C   UNL d   1      32.663  21.060 -21.463  0.00  0.00     0.279 C 
ATOM      2  N   UNL d   1      33.194  21.419 -20.946  0.00  0.00    -0.208 NA
ATOM      3  O   UNL d   1      31.974  21.467 -21.678  0.00  0.00    -0.265 OA
ENDROOT
BRANCH   1   4
ATOM      4  C   UNL d   1      32.804  20.305 -21.771  0.00  0.00     0.058 A 
ATOM      5  C   UNL d   1      32.650  20.146 -22.574  0.00  0.00     0.005 A 
ATOM      6  C   UNL d   1      32.797  19.394 -22.852  0.00  0.00     0.000 A 
ATOM      7  C   UNL d   1      32.647  19.225 -23.654  0.00  0.00     0.000 A 
ATOM      8  C   UNL d   1      33.093  18.796 -22.353  0.00  0.00     0.000 A 
ATOM      9  C   UNL d   1      32.796  18.458 -23.940  0.00  0.00     0.000 A 
ATOM     10  C   UNL d   1      33.089  17.874 -23.436  0.00  0.00     0.000 A 
ATOM     11  C   UNL d   1      33.237  18.043 -22.646  0.00  0.00     0.000 A 
ATOM     12  C   UNL d   1      33.241  18.960 -21.570  0.00  0.00     0.000 A 
ATOM     13  C   UNL d   1      33.097  19.721 -21.267  0.00  0.00     0.005 A 
ENDBRANCH   1   4
BRANCH   2  14
ATOM     14  C   UNL d   1      33.049  22.176 -20.640  0.00  0.00     0.085 A 
ATOM     15  C   UNL d   1      32.937  22.286 -19.847  0.00  0.00     0.022 A 
ATOM     16  C   UNL d   1      32.794  23.038 -19.549  0.00  0.00     0.041 A 
ATOM     17  C   UNL d   1      32.759  23.702 -20.033  0.00  0.00     0.003 A 
ATOM     18  C   UNL d   1      32.872  23.603 -20.844  0.00  0.00     0.002 A 
ATOM     19  C   UNL d   1      33.019  22.851 -21.173  0.00  0.00     0.019 A 
BRANCH  16  20
ATOM     20  C   UNL d   1      32.679  23.132 -18.716  0.00  0.00     0.196 C 
ATOM     21  O   UNL d   1      32.125  22.676 -18.323  0.00  0.00    -0.287 OA
ATOM     22  C   UNL d   1      33.131  23.687 -18.313  0.00  0.00     0.045 C 
ENDBRANCH  16  20
ENDBRANCH   2  14
TORSDOF 3
ENDMDL
MODEL 6
REMARK VINA RESULT:      -1.0      2.008      3.758
REMARK  3 active torsions:
REMARK  status: ('A' for Active; 'I' for Inactive)
REMARK       I    between atoms: N_2  and  C_1 
REMARK    1  A    between atoms: C_3  and  C_1 
REMARK    2  A    between atoms: C_8  and  N_2 
REMARK    3  A    between atoms: C_7  and  C_6 
ROOT
ATOM      1  C   UNL d   1      32.886  21.993 -21.159  0.00  0.00     0.279 C 
ATOM      2  N   UNL d   1      33.207  21.237 -21.223  0.00  0.00    -0.208 NA
ATOM      3  O   UNL d   1      32.532  22.337 -21.825  0.00  0.00    -0.265 OA
ENDROOT
BRANCH   1   4
ATOM      4  C   UNL d   1      32.908  22.412 -20.446  0.00  0.00     0.058 A 
ATOM      5  C   UNL d   1      33.041  22.010 -19.728  0.00  0.00     0.005 A 
ATOM      6  C   UNL d   1      33.058  22.446 -19.040  0.00  0.00     0.000 A 
ATOM      7  C   UNL d   1      33.190  22.053 -18.318  0.00  0.00     0.000 A 
ATOM      8  C   UNL d   1      32.948  23.272 -19.046  0.00  0.00     0.000 A 
ATOM      9  C   UNL d   1      33.208  22.497 -17.614  0.00  0.00     0.000 A 
ATOM     10  C   UNL d   1      33.097  23.315 -17.633  0.00  0.00     0.000 A 
ATOM     11  C   UNL d   1      32.968  23.700 -18.346  0.00  0.00     0.000 A 
ATOM     12  C   UNL d   1      32.819  23.657 -19.752  0.00  0.00     0.000 A 
ATOM     13  C   UNL d   1      32.797  23.230 -20.465  0.00  0.00     0.005 A 
ENDBRANCH   1   4
BRANCH   2  14
ATOM     14  C   UNL d   1      33.183  20.820 -21.939  0.00  0.00     0.085 A 
ATOM     15  C   UNL d   1      33.107  20.016 -21.946  0.00  0.00     0.022 A 
ATOM     16  C   UNL d   1      33.083  19.607 -22.657  0.00  0.00     0.041 A 
ATOM     17  C   UNL d   1      33.135  19.989 -23.384  0.00  0.00     0.003 A 
ATOM     18  C   UNL d   1      33.212  20.810 -23.391  0.00  0.00     0.002 A 
ATOM     19  C   UNL d   1      33.239  21.249 -22.683  0.00  0.00     0.019 A 
BRANCH  16  20
ATOM     20  C   UNL d   1      33.003  18.764 -22.643  0.00  0.00     0.196 C 
ATOM     21  O   UNL d   1      32.755  18.387 -21.961  0.00  0.00    -0.287 OA
ATOM     22  C   UNL d   1      33.179  18.337 -23.321  0.00  0.00     0.045 C 
ENDBRANCH  16  20
ENDBRANCH   2  14
TORSDOF 3
ENDMDL
