MODEL 1
REMARK VINA RESULT:      27.0      0.000      0.000
REMARK  2 active torsions:
REMARK  status: ('A' for Active; 'I' for Inactive)
REMARK    1  A    between atoms: N_2  and  S_1 
REMARK    2  A    between atoms: C_3  and  S_1 
ROOT
ATOM      1  S   UNL d   1      45.797 -17.222  43.726  0.00  0.00     0.274 S 
ATOM      2  O   UNL d   1      45.245 -17.076  43.120  0.00  0.00    -0.200 OA
ATOM      3  O   UNL d   1      46.351 -17.373  44.328  0.00  0.00    -0.200 OA
ENDROOT
BRANCH   1   4
ATOM      4  N   UNL d   1      45.506 -16.564  44.148  0.00  0.00    -0.212 N 
ATOM      5  C   UNL d   1      44.961 -16.496  44.754  0.00  0.00     0.193 A 
ATOM      6  N   UNL d   1      44.894 -15.691  44.955  0.00  0.00    -0.223 NA
ATOM      7  C   UNL d   1      45.410 -15.266  44.460  0.00  0.00     0.100 A 
ATOM      8  C   UNL d   1      45.778 -15.810  43.972  0.00  0.00     0.094 A 
ATOM      9  C   UNL d   1      45.576 -14.461  44.406  0.00  0.00     0.021 A 
ATOM     10  C   UNL d   1      46.336 -15.539  43.406  0.00  0.00     0.020 A 
ATOM     11  C   UNL d   1      46.511 -14.725  43.344  0.00  0.00     0.002 A 
ATOM     12  C   UNL d   1      46.121 -14.198  43.853  0.00  0.00     0.002 A 
ENDBRANCH   1   4
BRANCH   1  13
ATOM     13  C   UNL d   1      46.082 -17.876  43.300  0.00  0.00     0.122 A 
ATOM     14  C   UNL d   1      46.169 -18.600  43.665  0.00  0.00     0.093 A 
ATOM     15  N   UNL d   1      45.975 -18.688  44.463  0.00  0.00    -0.243 NA
ATOM     16  C   UNL d   1      46.454 -19.254  43.239  0.00  0.00     0.018 A 
ATOM     17  C   UNL d   1      46.062 -19.409  44.827  0.00  0.00     0.099 A 
ATOM     18  C   UNL d   1      46.347 -20.080  44.415  0.00  0.00     0.021 A 
ATOM     19  C   UNL d   1      46.539 -19.987  43.622  0.00  0.00     0.003 A 
ATOM     20  C   UNL d   1      46.647 -19.179  42.460  0.00  0.00     0.002 A 
ATOM     21  C   UNL d   1      46.562 -18.460  42.091  0.00  0.00     0.001 A 
ATOM     22  C   UNL d   1      46.277 -17.791  42.504  0.00  0.00     0.014 A 
ENDBRANCH   1  13
TORSDOF 2
ENDMDL
