MODEL 1
REMARK VINA RESULT:      -9.3      0.000      0.000
REMARK  3 active torsions:
REMARK  status: ('A' for Active; 'I' for Inactive)
REMARK    1  A    between atoms: C_9  and  C_2 
REMARK    2  A    between atoms: C_10  and  C_6 
REMARK    3  A    between atoms: O_18  and  C_9 
ROOT
ATOM      1  C   UNL d   1     -48.339  13.185  23.123  0.00  0.00     0.044 A 
ATOM      2  C   UNL d   1     -46.996  13.110  23.049  0.00  0.00     0.113 A 
ATOM      3  C   UNL d   1     -47.642  13.615  22.957  0.00  0.00     0.116 A 
ATOM      4  C   UNL d   1     -48.116  12.407  23.319  0.00  0.00     0.112 A 
ATOM      5  S   UNL d   1     -47.283  12.362  23.273  0.00  0.00    -0.061 SA
ATOM      6  C   UNL d   1     -49.132  13.392  23.122  0.00  0.00     0.011 A 
ATOM      7  N   UNL d   1     -48.685  11.860  23.508  0.00  0.00    -0.239 NA
ATOM      8  C   UNL d   1     -49.699  12.836  23.313  0.00  0.00     0.018 A 
ATOM      9  C   UNL d   1     -49.481  12.072  23.505  0.00  0.00     0.082 A 
ATOM     10  N   UNL d   1     -47.607  14.409  22.739  0.00  0.00    -0.147 N 
ATOM     11  C   UNL d   1     -50.496  13.057  23.308  0.00  0.00     0.002 A 
ATOM     12  C   UNL d   1     -50.055  11.515  23.697  0.00  0.00     0.019 A 
ATOM     13  C   UNL d   1     -51.064  12.493  23.502  0.00  0.00     0.000 A 
ATOM     14  C   UNL d   1     -50.843  11.722  23.696  0.00  0.00     0.002 A 
ENDROOT
BRANCH   6  15
ATOM     15  C   UNL d   1     -49.344  14.164  22.927  0.00  0.00     0.030 A 
ATOM     16  S   UNL d   1     -49.525  14.451  22.173  0.00  0.00    -0.086 SA
ATOM     17  C   UNL d   1     -49.705  15.254  22.249  0.00  0.00     0.035 A 
ATOM     18  C   UNL d   1     -49.636  15.465  23.043  0.00  0.00     0.007 A 
ATOM     19  C   UNL d   1     -49.413  14.790  23.463  0.00  0.00     0.007 A 
ENDBRANCH   6  15
BRANCH   2  20
ATOM     20  C   UNL d   1     -46.203  13.309  22.939  0.00  0.00     0.303 C 
ATOM     21  O   UNL d   1     -45.795  13.719  23.526  0.00  0.00    -0.259 OA
BRANCH  20  22
ATOM     22  O   UNL d   1     -45.824  13.097  22.244  0.00  0.00    -0.295 OA
ATOM     23  C   UNL d   1     -45.014  13.231  22.163  0.00  0.00     0.185 C 
ENDBRANCH  20  22
ENDBRANCH   2  20
TORSDOF 3
ENDMDL
MODEL 2
REMARK VINA RESULT:      -9.2      0.940      2.254
REMARK  3 active torsions:
REMARK  status: ('A' for Active; 'I' for Inactive)
REMARK    1  A    between atoms: C_9  and  C_2 
REMARK    2  A    between atoms: C_10  and  C_6 
REMARK    3  A    between atoms: O_18  and  C_9 
ROOT
ATOM      1  C   UNL d   1     -48.175  13.607  22.915  0.00  0.00     0.044 A 
ATOM      2  C   UNL d   1     -46.845  13.430  22.794  0.00  0.00     0.113 A 
ATOM      3  C   UNL d   1     -47.568  13.037  22.855  0.00  0.00     0.116 A 
ATOM      4  C   UNL d   1     -47.819  14.360  22.889  0.00  0.00     0.112 A 
ATOM      5  S   UNL d   1     -46.995  14.249  22.814  0.00  0.00    -0.061 SA
ATOM      6  C   UNL d   1     -48.989  13.547  22.987  0.00  0.00     0.011 A 
ATOM      7  N   UNL d   1     -48.280  15.027  22.937  0.00  0.00    -0.239 NA
ATOM      8  C   UNL d   1     -49.447  14.222  23.034  0.00  0.00     0.018 A 
ATOM      9  C   UNL d   1     -49.097  14.960  23.009  0.00  0.00     0.082 A 
ATOM     10  N   UNL d   1     -47.674  12.220  22.857  0.00  0.00    -0.147 N 
ATOM     11  C   UNL d   1     -50.267  14.146  23.107  0.00  0.00     0.002 A 
ATOM     12  C   UNL d   1     -49.562  15.637  23.057  0.00  0.00     0.019 A 
ATOM     13  C   UNL d   1     -50.724  14.830  23.154  0.00  0.00     0.000 A 
ATOM     14  C   UNL d   1     -50.371  15.576  23.129  0.00  0.00     0.002 A 
ENDROOT
BRANCH   6  15
ATOM     15  C   UNL d   1     -49.334  12.799  23.011  0.00  0.00     0.030 A 
ATOM     16  S   UNL d   1     -49.604  12.358  22.367  0.00  0.00    -0.086 SA
ATOM     17  C   UNL d   1     -49.905  11.646  22.659  0.00  0.00     0.035 A 
ATOM     18  C   UNL d   1     -49.823  11.644  23.480  0.00  0.00     0.007 A 
ATOM     19  C   UNL d   1     -49.469  12.357  23.698  0.00  0.00     0.007 A 
ENDBRANCH   6  15
BRANCH   2  20
ATOM     20  C   UNL d   1     -46.103  13.077  22.724  0.00  0.00     0.303 C 
ATOM     21  O   UNL d   1     -45.802  12.623  23.341  0.00  0.00    -0.259 OA
BRANCH  20  22
ATOM     22  O   UNL d   1     -45.668  13.180  22.036  0.00  0.00    -0.295 OA
ATOM     23  C   UNL d   1     -44.891  12.905  22.000  0.00  0.00     0.185 C 
ENDBRANCH  20  22
ENDBRANCH   2  20
TORSDOF 3
ENDMDL
MODEL 3
REMARK VINA RESULT:      -8.7      1.390      2.630
REMARK  3 active torsions:
REMARK  status: ('A' for Active; 'I' for Inactive)
REMARK    1  A    between atoms: C_9  and  C_2 
REMARK    2  A    between atoms: C_10  and  C_6 
REMARK    3  A    between atoms: O_18  and  C_9 
ROOT
ATOM      1  C   UNL d   1     -47.815  12.832  23.091  0.00  0.00     0.044 A 
ATOM      2  C   UNL d   1     -46.771  12.025  23.366  0.00  0.00     0.113 A 
ATOM      3  C   UNL d   1     -47.593  12.052  23.292  0.00  0.00     0.116 A 
ATOM      4  C   UNL d   1     -47.120  13.289  23.042  0.00  0.00     0.112 A 
ATOM      5  S   UNL d   1     -46.474  12.787  23.213  0.00  0.00    -0.061 SA
ATOM      6  C   UNL d   1     -48.541  13.183  22.948  0.00  0.00     0.011 A 
ATOM      7  N   UNL d   1     -47.167  14.077  22.853  0.00  0.00    -0.239 NA
ATOM      8  C   UNL d   1     -48.581  13.977  22.759  0.00  0.00     0.018 A 
ATOM      9  C   UNL d   1     -47.900  14.425  22.711  0.00  0.00     0.082 A 
ATOM     10  N   UNL d   1     -48.108  11.418  23.397  0.00  0.00    -0.147 N 
ATOM     11  C   UNL d   1     -49.321  14.319  22.617  0.00  0.00     0.002 A 
ATOM     12  C   UNL d   1     -47.945  15.224  22.520  0.00  0.00     0.019 A 
ATOM     13  C   UNL d   1     -49.356  15.119  22.427  0.00  0.00     0.000 A 
ATOM     14  C   UNL d   1     -48.668  15.572  22.378  0.00  0.00     0.002 A 
ENDROOT
BRANCH   6  15
ATOM     15  C   UNL d   1     -49.224  12.724  22.998  0.00  0.00     0.030 A 
ATOM     16  S   UNL d   1     -49.669  12.573  23.678  0.00  0.00    -0.086 SA
ATOM     17  C   UNL d   1     -50.302  12.089  23.460  0.00  0.00     0.035 A 
ATOM     18  C   UNL d   1     -50.251  11.939  22.650  0.00  0.00     0.007 A 
ATOM     19  C   UNL d   1     -49.584  12.332  22.364  0.00  0.00     0.007 A 
ENDBRANCH   6  15
BRANCH   2  20
ATOM     20  C   UNL d   1     -46.321  11.361  23.559  0.00  0.00     0.303 C 
ATOM     21  O   UNL d   1     -46.690  10.639  23.698  0.00  0.00    -0.259 OA
BRANCH  20  22
ATOM     22  O   UNL d   1     -45.505  11.426  23.612  0.00  0.00    -0.295 OA
ATOM     23  C   UNL d   1     -45.041  10.744  23.611  0.00  0.00     0.185 C 
ENDBRANCH  20  22
ENDBRANCH   2  20
TORSDOF 3
ENDMDL
MODEL 4
REMARK VINA RESULT:      -8.7      1.281      1.366
REMARK  3 active torsions:
REMARK  status: ('A' for Active; 'I' for Inactive)
REMARK    1  A    between atoms: C_9  and  C_2 
REMARK    2  A    between atoms: C_10  and  C_6 
REMARK    3  A    between atoms: O_18  and  C_9 
ROOT
ATOM      1  C   UNL d   1     -48.015  12.337  23.256  0.00  0.00     0.044 A 
ATOM      2  C   UNL d   1     -46.832  11.726  23.459  0.00  0.00     0.113 A 
ATOM      3  C   UNL d   1     -47.186  12.420  23.190  0.00  0.00     0.116 A 
ATOM      4  C   UNL d   1     -48.170  11.582  23.571  0.00  0.00     0.112 A 
ATOM      5  S   UNL d   1     -47.435  11.204  23.697  0.00  0.00    -0.061 SA
ATOM      6  C   UNL d   1     -48.639  12.837  23.077  0.00  0.00     0.011 A 
ATOM      7  N   UNL d   1     -48.936  11.346  23.698  0.00  0.00    -0.239 NA
ATOM      8  C   UNL d   1     -49.408  12.593  23.207  0.00  0.00     0.018 A 
ATOM      9  C   UNL d   1     -49.560  11.852  23.516  0.00  0.00     0.082 A 
ATOM     10  N   UNL d   1     -46.791  13.084  22.903  0.00  0.00    -0.147 N 
ATOM     11  C   UNL d   1     -50.029  13.107  23.022  0.00  0.00     0.002 A 
ATOM     12  C   UNL d   1     -50.335  11.611  23.645  0.00  0.00     0.019 A 
ATOM     13  C   UNL d   1     -50.802  12.857  23.155  0.00  0.00     0.000 A 
ATOM     14  C   UNL d   1     -50.955  12.108  23.466  0.00  0.00     0.002 A 
ENDROOT
BRANCH   6  15
ATOM     15  C   UNL d   1     -48.478  13.583  22.766  0.00  0.00     0.030 A 
ATOM     16  S   UNL d   1     -48.307  13.763  21.977  0.00  0.00    -0.086 SA
ATOM     17  C   UNL d   1     -48.186  14.579  21.928  0.00  0.00     0.035 A 
ATOM     18  C   UNL d   1     -48.279  14.904  22.681  0.00  0.00     0.007 A 
ATOM     19  C   UNL d   1     -48.461  14.287  23.199  0.00  0.00     0.007 A 
ENDBRANCH   6  15
BRANCH   2  20
ATOM     20  C   UNL d   1     -46.022  11.573  23.490  0.00  0.00     0.303 C 
ATOM     21  O   UNL d   1     -45.481  12.179  23.357  0.00  0.00    -0.259 OA
BRANCH  20  22
ATOM     22  O   UNL d   1     -45.759  10.813  23.653  0.00  0.00    -0.295 OA
ATOM     23  C   UNL d   1     -44.949  10.659  23.679  0.00  0.00     0.185 C 
ENDBRANCH  20  22
ENDBRANCH   2  20
TORSDOF 3
ENDMDL
MODEL 5
REMARK VINA RESULT:      -7.4      1.777      3.211
REMARK  3 active torsions:
REMARK  status: ('A' for Active; 'I' for Inactive)
REMARK    1  A    between atoms: C_9  and  C_2 
REMARK    2  A    between atoms: C_10  and  C_6 
REMARK    3  A    between atoms: O_18  and  C_9 
ROOT
ATOM      1  C   UNL d   1     -48.450  13.631  23.071  0.00  0.00     0.044 A 
ATOM      2  C   UNL d   1     -49.462  14.518  22.993  0.00  0.00     0.113 A 
ATOM      3  C   UNL d   1     -48.648  14.423  22.891  0.00  0.00     0.116 A 
ATOM      4  C   UNL d   1     -49.151  13.237  23.286  0.00  0.00     0.112 A 
ATOM      5  S   UNL d   1     -49.777  13.788  23.237  0.00  0.00    -0.061 SA
ATOM      6  C   UNL d   1     -47.740  13.223  23.069  0.00  0.00     0.011 A 
ATOM      7  N   UNL d   1     -49.126  12.452  23.491  0.00  0.00    -0.239 NA
ATOM      8  C   UNL d   1     -47.722  12.433  23.276  0.00  0.00     0.018 A 
ATOM      9  C   UNL d   1     -48.410  12.046  23.487  0.00  0.00     0.082 A 
ATOM     10  N   UNL d   1     -48.120  15.008  22.652  0.00  0.00    -0.147 N 
ATOM     11  C   UNL d   1     -46.998  12.032  23.270  0.00  0.00     0.002 A 
ATOM     12  C   UNL d   1     -48.388  11.251  23.696  0.00  0.00     0.019 A 
ATOM     13  C   UNL d   1     -46.986  11.236  23.480  0.00  0.00     0.000 A 
ATOM     14  C   UNL d   1     -47.680  10.845  23.693  0.00  0.00     0.002 A 
ENDROOT
BRANCH   6  15
ATOM     15  C   UNL d   1     -47.050  13.620  22.855  0.00  0.00     0.030 A 
ATOM     16  S   UNL d   1     -46.679  13.605  22.116  0.00  0.00    -0.086 SA
ATOM     17  C   UNL d   1     -46.008  14.085  22.163  0.00  0.00     0.035 A 
ATOM     18  C   UNL d   1     -45.961  14.397  22.925  0.00  0.00     0.007 A 
ATOM     19  C   UNL d   1     -46.606  14.109  23.353  0.00  0.00     0.007 A 
ENDBRANCH   6  15
BRANCH   2  20
ATOM     20  C   UNL d   1     -49.889  15.213  22.875  0.00  0.00     0.303 C 
ATOM     21  O   UNL d   1     -50.061  15.468  22.111  0.00  0.00    -0.259 OA
BRANCH  20  22
ATOM     22  O   UNL d   1     -50.142  15.649  23.522  0.00  0.00    -0.295 OA
ATOM     23  C   UNL d   1     -50.920  15.921  23.552  0.00  0.00     0.185 C 
ENDBRANCH  20  22
ENDBRANCH   2  20
TORSDOF 3
ENDMDL
