MODEL 1
REMARK VINA RESULT:      -3.1      0.000      0.000
REMARK  1 active torsions:
REMARK  status: ('A' for Active; 'I' for Inactive)
REMARK    1  A    between atoms: C_4  and  C_1 
REMARK       I    between atoms: N_5  and  C_1 
ROOT
ATOM      1  N   UNL d   1      24.474  11.846  -1.318  0.00  0.00    -0.242 NA
ATOM      2  C   UNL d   1      23.802  13.145  -0.544  0.00  0.00     0.062 A 
ATOM      3  C   UNL d   1      24.212  11.779  -0.537  0.00  0.00     0.099 A 
ATOM      4  C   UNL d   1      24.396  12.573  -1.709  0.00  0.00     0.099 A 
ATOM      5  C   UNL d   1      24.061  13.220  -1.323  0.00  0.00     0.025 A 
ATOM      6  C   UNL d   1      23.877  12.427  -0.151  0.00  0.00     0.025 A 
ENDROOT
BRANCH   2   7
ATOM      7  C   UNL d   1      23.609  13.458  -0.272  0.00  0.00     0.298 C 
ATOM      8  O   UNL d   1      22.930  13.513  -0.014  0.00  0.00    -0.264 OA
ATOM      9  N   UNL d   1      24.027  14.045  -0.015  0.00  0.00    -0.085 NA
ATOM     10  N   UNL d   1      24.493  13.920  -0.251  0.00  0.00    -0.019 N 
ENDBRANCH   2   7
TORSDOF 1
ENDMDL
MODEL 2
REMARK VINA RESULT:      -3.0      1.070      1.921
REMARK  1 active torsions:
REMARK  status: ('A' for Active; 'I' for Inactive)
REMARK    1  A    between atoms: C_4  and  C_1 
REMARK       I    between atoms: N_5  and  C_1 
ROOT
ATOM      1  N   UNL d   1      23.624  13.981  -0.014  0.00  0.00    -0.242 NA
ATOM      2  C   UNL d   1      24.294  12.805  -0.967  0.00  0.00     0.062 A 
ATOM      3  C   UNL d   1      23.155  13.375  -0.324  0.00  0.00     0.099 A 
ATOM      4  C   UNL d   1      24.435  13.992  -0.186  0.00  0.00     0.099 A 
ATOM      5  C   UNL d   1      24.768  13.406  -0.661  0.00  0.00     0.025 A 
ATOM      6  C   UNL d   1      23.489  12.789  -0.799  0.00  0.00     0.025 A 
ENDROOT
BRANCH   2   7
ATOM      7  C   UNL d   1      24.410  12.452  -1.233  0.00  0.00     0.298 C 
ATOM      8  O   UNL d   1      24.340  12.354  -1.952  0.00  0.00    -0.264 OA
ATOM      9  N   UNL d   1      24.737  11.834  -0.923  0.00  0.00    -0.085 NA
ATOM     10  N   UNL d   1      24.745  11.997  -0.411  0.00  0.00    -0.019 N 
ENDBRANCH   2   7
TORSDOF 1
ENDMDL
