MODEL 1
REMARK VINA RESULT:      -7.0      0.000      0.000
REMARK  2 active torsions:
REMARK  status: ('A' for Active; 'I' for Inactive)
REMARK    1  A    between atoms: C_5  and  C_1 
REMARK    2  A    between atoms: C_10  and  N_4 
ROOT
ATOM      1  N   UNL d   1     -46.294  13.228  22.570  0.00  0.00    -0.273 N 
ATOM      2  C   UNL d   1     -47.623  13.413  22.637  0.00  0.00     0.057 A 
ATOM      3  C   UNL d   1     -46.453  13.745  23.201  0.00  0.00     0.265 A 
ATOM      4  C   UNL d   1     -47.012  13.028  22.228  0.00  0.00     0.086 A 
ATOM      5  C   UNL d   1     -47.267  13.857  23.241  0.00  0.00     0.066 A 
ATOM      6  O   UNL d   1     -45.883  14.082  23.698  0.00  0.00    -0.267 OA
ENDROOT
BRANCH   2   7
ATOM      7  C   UNL d   1     -48.411  13.334  22.438  0.00  0.00     0.149 A 
ATOM      8  N   UNL d   1     -48.830  13.696  21.867  0.00  0.00    -0.227 NA
ATOM      9  C   UNL d   1     -49.611  13.422  21.894  0.00  0.00     0.099 A 
ATOM     10  C   UNL d   1     -50.266  13.605  21.442  0.00  0.00     0.021 A 
ATOM     11  C   UNL d   1     -49.657  12.879  22.500  0.00  0.00     0.083 A 
ATOM     12  C   UNL d   1     -50.986  13.226  21.612  0.00  0.00     0.002 A 
ATOM     13  C   UNL d   1     -51.032  12.683  22.218  0.00  0.00     0.002 A 
ATOM     14  C   UNL d   1     -50.361  12.503  22.673  0.00  0.00     0.019 A 
ATOM     15  N   UNL d   1     -48.905  12.824  22.840  0.00  0.00    -0.288 N 
ATOM     16  C   UNL d   1     -48.686  12.335  23.482  0.00  0.00     0.101 C 
ENDBRANCH   2   7
BRANCH   1  17
ATOM     17  C   UNL d   1     -45.548  12.992  22.365  0.00  0.00     0.067 A 
ATOM     18  C   UNL d   1     -45.228  12.320  22.702  0.00  0.00     0.018 A 
ATOM     19  C   UNL d   1     -44.463  12.065  22.503  0.00  0.00     0.001 A 
ATOM     20  C   UNL d   1     -44.160  11.397  22.846  0.00  0.00     0.000 C 
ATOM     21  C   UNL d   1     -44.019  12.505  21.949  0.00  0.00     0.000 A 
ATOM     22  C   UNL d   1     -44.339  13.176  21.612  0.00  0.00     0.002 A 
ATOM     23  C   UNL d   1     -43.235  12.254  21.736  0.00  0.00     0.000 C 
ATOM     24  C   UNL d   1     -45.106  13.423  21.819  0.00  0.00     0.018 A 
ENDBRANCH   1  17
TORSDOF 2
ENDMDL
MODEL 2
REMARK VINA RESULT:      -6.8      7.760      9.305
REMARK  2 active torsions:
REMARK  status: ('A' for Active; 'I' for Inactive)
REMARK    1  A    between atoms: C_5  and  C_1 
REMARK    2  A    between atoms: C_10  and  N_4 
ROOT
ATOM      1  N   UNL d   1     -39.698  14.736  20.466  0.00  0.00    -0.273 N 
ATOM      2  C   UNL d   1     -39.695  14.426  19.159  0.00  0.00     0.057 A 
ATOM      3  C   UNL d   1     -40.482  14.591  20.231  0.00  0.00     0.265 A 
ATOM      4  C   UNL d   1     -39.220  14.634  19.807  0.00  0.00     0.086 A 
ATOM      5  C   UNL d   1     -40.479  14.401  19.431  0.00  0.00     0.066 A 
ATOM      6  O   UNL d   1     -41.145  14.632  20.726  0.00  0.00    -0.267 OA
ENDROOT
BRANCH   2   7
ATOM      7  C   UNL d   1     -39.392  14.283  18.414  0.00  0.00     0.149 A 
ATOM      8  N   UNL d   1     -38.993  13.653  18.140  0.00  0.00    -0.227 NA
ATOM      9  C   UNL d   1     -38.808  13.779  17.343  0.00  0.00     0.099 A 
ATOM     10  C   UNL d   1     -38.410  13.319  16.798  0.00  0.00     0.021 A 
ATOM     11  C   UNL d   1     -39.108  14.508  17.136  0.00  0.00     0.083 A 
ATOM     12  C   UNL d   1     -38.314  13.609  16.025  0.00  0.00     0.002 A 
ATOM     13  C   UNL d   1     -38.614  14.339  15.819  0.00  0.00     0.002 A 
ATOM     14  C   UNL d   1     -39.018  14.800  16.379  0.00  0.00     0.019 A 
ATOM     15  N   UNL d   1     -39.474  14.824  17.808  0.00  0.00    -0.288 N 
ATOM     16  C   UNL d   1     -39.859  15.564  17.861  0.00  0.00     0.101 C 
ENDBRANCH   2   7
BRANCH   1  17
ATOM     17  C   UNL d   1     -39.490  14.939  21.221  0.00  0.00     0.067 A 
ATOM     18  C   UNL d   1     -39.195  14.371  21.728  0.00  0.00     0.018 A 
ATOM     19  C   UNL d   1     -38.978  14.563  22.506  0.00  0.00     0.001 A 
ATOM     20  C   UNL d   1     -38.687  13.989  22.996  0.00  0.00     0.000 C 
ATOM     21  C   UNL d   1     -39.063  15.352  22.769  0.00  0.00     0.000 A 
ATOM     22  C   UNL d   1     -39.358  15.920  22.262  0.00  0.00     0.002 A 
ATOM     23  C   UNL d   1     -38.844  15.562  23.563  0.00  0.00     0.000 C 
ATOM     24  C   UNL d   1     -39.573  15.716  21.485  0.00  0.00     0.018 A 
ENDBRANCH   1  17
TORSDOF 2
ENDMDL
MODEL 3
REMARK VINA RESULT:      -5.5      8.210      8.940
REMARK  2 active torsions:
REMARK  status: ('A' for Active; 'I' for Inactive)
REMARK    1  A    between atoms: C_5  and  C_1 
REMARK    2  A    between atoms: C_10  and  N_4 
ROOT
ATOM      1  N   UNL d   1     -38.808  14.806  20.982  0.00  0.00    -0.273 N 
ATOM      2  C   UNL d   1     -39.263  15.310  19.823  0.00  0.00     0.057 A 
ATOM      3  C   UNL d   1     -38.468  15.557  20.874  0.00  0.00     0.265 A 
ATOM      4  C   UNL d   1     -39.294  14.660  20.338  0.00  0.00     0.086 A 
ATOM      5  C   UNL d   1     -38.747  15.864  20.164  0.00  0.00     0.066 A 
ATOM      6  O   UNL d   1     -37.940  15.922  21.396  0.00  0.00    -0.267 OA
ENDROOT
BRANCH   2   7
ATOM      7  C   UNL d   1     -39.684  15.345  19.124  0.00  0.00     0.149 A 
ATOM      8  N   UNL d   1     -40.451  15.515  19.001  0.00  0.00    -0.227 NA
ATOM      9  C   UNL d   1     -40.606  15.476  18.189  0.00  0.00     0.099 A 
ATOM     10  C   UNL d   1     -41.290  15.599  17.760  0.00  0.00     0.021 A 
ATOM     11  C   UNL d   1     -39.909  15.277  17.817  0.00  0.00     0.083 A 
ATOM     12  C   UNL d   1     -41.264  15.515  16.934  0.00  0.00     0.002 A 
ATOM     13  C   UNL d   1     -40.566  15.316  16.562  0.00  0.00     0.002 A 
ATOM     14  C   UNL d   1     -39.874  15.193  17.006  0.00  0.00     0.019 A 
ATOM     15  N   UNL d   1     -39.331  15.195  18.404  0.00  0.00    -0.288 N 
ATOM     16  C   UNL d   1     -38.528  14.993  18.284  0.00  0.00     0.101 C 
ENDBRANCH   2   7
BRANCH   1  17
ATOM     17  C   UNL d   1     -38.659  14.339  21.626  0.00  0.00     0.067 A 
ATOM     18  C   UNL d   1     -39.042  14.483  22.332  0.00  0.00     0.018 A 
ATOM     19  C   UNL d   1     -38.900  14.013  23.000  0.00  0.00     0.001 A 
ATOM     20  C   UNL d   1     -39.288  14.169  23.693  0.00  0.00     0.000 C 
ATOM     21  C   UNL d   1     -38.354  13.382  22.945  0.00  0.00     0.000 A 
ATOM     22  C   UNL d   1     -37.970  13.237  22.239  0.00  0.00     0.002 A 
ATOM     23  C   UNL d   1     -38.199  12.892  23.622  0.00  0.00     0.000 C 
ATOM     24  C   UNL d   1     -38.121  13.715  21.575  0.00  0.00     0.018 A 
ENDBRANCH   1  17
TORSDOF 2
ENDMDL
