MODEL 1
REMARK VINA RESULT:      -4.9      0.000      0.000
REMARK  4 active torsions:
REMARK  status: ('A' for Active; 'I' for Inactive)
REMARK    1  A    between atoms: N_3  and  C_1 
REMARK       I    between atoms: C_7  and  N_3 
REMARK    2  A    between atoms: C_15  and  C_7 
REMARK    3  A    between atoms: C_10  and  S_11 
REMARK    4  A    between atoms: S_11  and  C_15 
ROOT
ATOM      1  C   UNL d   1     -41.179-122.606 -51.555  0.00  0.00     0.182 A 
ATOM      2  N   UNL d   1     -41.252-121.989 -52.101  0.00  0.00    -0.283 N 
ATOM      3  S   UNL d   1     -41.170-123.320 -51.979  0.00  0.00    -0.048 SA
ATOM      4  C   UNL d   1     -41.238-123.137 -52.786  0.00  0.00     0.051 A 
ATOM      5  C   UNL d   1     -41.288-122.316 -52.861  0.00  0.00     0.072 A 
ATOM      6  C   UNL d   1     -41.259-123.623 -53.456  0.00  0.00     0.038 A 
ATOM      7  C   UNL d   1     -41.360-121.982 -53.606  0.00  0.00     0.020 A 
ATOM      8  C   UNL d   1     -41.331-123.271 -54.195  0.00  0.00     0.141 A 
ATOM      9  C   UNL d   1     -41.382-122.450 -54.270  0.00  0.00     0.031 A 
ATOM     10  C   UNL d   1     -41.282-121.193 -51.915  0.00  0.00     0.101 C 
ATOM     11  F   UNL d   1     -41.354-123.746 -54.875  0.00  0.00    -0.204 F 
ENDROOT
BRANCH   1  12
ATOM     12  N   UNL d   1     -41.124-122.527 -50.735  0.00  0.00    -0.183 NA
ATOM     13  C   UNL d   1     -41.779-122.940 -50.439  0.00  0.00     0.288 C 
ATOM     14  O   UNL d   1     -42.305-123.312 -50.960  0.00  0.00    -0.265 OA
BRANCH  13  15
ATOM     15  C   UNL d   1     -41.911-122.985 -49.631  0.00  0.00     0.101 C 
BRANCH  15  16
ATOM     16  S   UNL d   1     -42.648-123.224 -49.338  0.00  0.00    -0.040 SA
BRANCH  16  17
ATOM     17  C   UNL d   1     -42.820-123.147 -48.528  0.00  0.00     0.226 C 
ATOM     18  O   UNL d   1     -42.854-122.395 -48.194  0.00  0.00    -0.279 OA
ATOM     19  C   UNL d   1     -42.951-123.814 -48.074  0.00  0.00     0.053 C 
ENDBRANCH  16  17
ENDBRANCH  15  16
ENDBRANCH  13  15
ENDBRANCH   1  12
TORSDOF 4
ENDMDL
MODEL 2
REMARK VINA RESULT:      -4.5      2.235      4.446
REMARK  4 active torsions:
REMARK  status: ('A' for Active; 'I' for Inactive)
REMARK    1  A    between atoms: N_3  and  C_1 
REMARK       I    between atoms: C_7  and  N_3 
REMARK    2  A    between atoms: C_15  and  C_7 
REMARK    3  A    between atoms: C_10  and  S_11 
REMARK    4  A    between atoms: S_11  and  C_15 
ROOT
ATOM      1  C   UNL d   1     -41.436-122.388 -51.858  0.00  0.00     0.182 A 
ATOM      2  N   UNL d   1     -41.431-123.135 -51.505  0.00  0.00    -0.283 N 
ATOM      3  S   UNL d   1     -41.800-121.860 -51.329  0.00  0.00    -0.048 SA
ATOM      4  C   UNL d   1     -42.017-122.289 -50.652  0.00  0.00     0.051 A 
ATOM      5  C   UNL d   1     -41.790-123.075 -50.761  0.00  0.00     0.072 A 
ATOM      6  C   UNL d   1     -42.394-122.052 -49.954  0.00  0.00     0.038 A 
ATOM      7  C   UNL d   1     -41.939-123.624 -50.171  0.00  0.00     0.020 A 
ATOM      8  C   UNL d   1     -42.536-122.615 -49.373  0.00  0.00     0.141 A 
ATOM      9  C   UNL d   1     -42.308-123.402 -49.482  0.00  0.00     0.031 A 
ATOM     10  C   UNL d   1     -41.123-123.815 -51.840  0.00  0.00     0.101 C 
ATOM     11  F   UNL d   1     -42.913-122.392 -48.668  0.00  0.00    -0.204 F 
ENDROOT
BRANCH   1  12
ATOM     12  N   UNL d   1     -41.134-122.198 -52.603  0.00  0.00    -0.183 NA
ATOM     13  C   UNL d   1     -41.797-121.983 -53.052  0.00  0.00     0.288 C 
ATOM     14  O   UNL d   1     -42.551-121.998 -52.709  0.00  0.00    -0.265 OA
BRANCH  13  15
ATOM     15  C   UNL d   1     -41.712-121.756 -53.834  0.00  0.00     0.101 C 
BRANCH  15  16
ATOM     16  S   UNL d   1     -41.992-122.240 -54.446  0.00  0.00    -0.040 SA
BRANCH  16  17
ATOM     17  C   UNL d   1     -41.896-122.008 -55.239  0.00  0.00     0.226 C 
ATOM     18  O   UNL d   1     -41.138-121.848 -55.521  0.00  0.00    -0.279 OA
ATOM     19  C   UNL d   1     -42.548-121.941 -55.726  0.00  0.00     0.053 C 
ENDBRANCH  16  17
ENDBRANCH  15  16
ENDBRANCH  13  15
ENDBRANCH   1  12
TORSDOF 4
ENDMDL
MODEL 3
REMARK VINA RESULT:      -4.3      2.098      4.339
REMARK  4 active torsions:
REMARK  status: ('A' for Active; 'I' for Inactive)
REMARK    1  A    between atoms: N_3  and  C_1 
REMARK       I    between atoms: C_7  and  N_3 
REMARK    2  A    between atoms: C_15  and  C_7 
REMARK    3  A    between atoms: C_10  and  S_11 
REMARK    4  A    between atoms: S_11  and  C_15 
ROOT
ATOM      1  C   UNL d   1     -41.917-122.281 -50.983  0.00  0.00     0.182 A 
ATOM      2  N   UNL d   1     -42.577-122.351 -50.490  0.00  0.00    -0.283 N 
ATOM      3  S   UNL d   1     -41.266-122.605 -50.583  0.00  0.00    -0.048 SA
ATOM      4  C   UNL d   1     -41.530-122.875 -49.843  0.00  0.00     0.051 A 
ATOM      5  C   UNL d   1     -42.339-122.718 -49.786  0.00  0.00     0.072 A 
ATOM      6  C   UNL d   1     -41.128-123.243 -49.220  0.00  0.00     0.038 A 
ATOM      7  C   UNL d   1     -42.744-122.929 -49.106  0.00  0.00     0.020 A 
ATOM      8  C   UNL d   1     -41.549-123.448 -48.546  0.00  0.00     0.141 A 
ATOM      9  C   UNL d   1     -42.358-123.291 -48.489  0.00  0.00     0.031 A 
ATOM     10  C   UNL d   1     -43.333-122.099 -50.673  0.00  0.00     0.101 C 
ATOM     11  F   UNL d   1     -41.159-123.817 -47.914  0.00  0.00    -0.204 F 
ENDROOT
BRANCH   1  12
ATOM     12  N   UNL d   1     -41.906-121.947 -51.738  0.00  0.00    -0.183 NA
ATOM     13  C   UNL d   1     -41.447-122.466 -52.193  0.00  0.00     0.288 C 
ATOM     14  O   UNL d   1     -41.123-123.145 -51.845  0.00  0.00    -0.265 OA
BRANCH  13  15
ATOM     15  C   UNL d   1     -41.310-122.315 -52.986  0.00  0.00     0.101 C 
BRANCH  15  16
ATOM     16  S   UNL d   1     -41.378-122.920 -53.548  0.00  0.00    -0.040 SA
BRANCH  16  17
ATOM     17  C   UNL d   1     -41.465-122.732 -54.354  0.00  0.00     0.226 C 
ATOM     18  O   UNL d   1     -41.259-121.978 -54.616  0.00  0.00    -0.279 OA
ATOM     19  C   UNL d   1     -41.751-123.293 -54.875  0.00  0.00     0.053 C 
ENDBRANCH  16  17
ENDBRANCH  15  16
ENDBRANCH  13  15
ENDBRANCH   1  12
TORSDOF 4
ENDMDL
MODEL 4
REMARK VINA RESULT:      -3.8      2.155      4.323
REMARK  4 active torsions:
REMARK  status: ('A' for Active; 'I' for Inactive)
REMARK    1  A    between atoms: N_3  and  C_1 
REMARK       I    between atoms: C_7  and  N_3 
REMARK    2  A    between atoms: C_15  and  C_7 
REMARK    3  A    between atoms: C_10  and  S_11 
REMARK    4  A    between atoms: S_11  and  C_15 
ROOT
ATOM      1  C   UNL d   1     -41.242-122.245 -52.442  0.00  0.00     0.182 A 
ATOM      2  N   UNL d   1     -41.384-121.708 -51.830  0.00  0.00    -0.283 N 
ATOM      3  S   UNL d   1     -41.241-123.008 -52.115  0.00  0.00    -0.048 SA
ATOM      4  C   UNL d   1     -41.383-122.935 -51.300  0.00  0.00     0.051 A 
ATOM      5  C   UNL d   1     -41.471-122.133 -51.124  0.00  0.00     0.072 A 
ATOM      6  C   UNL d   1     -41.441-123.506 -50.702  0.00  0.00     0.038 A 
ATOM      7  C   UNL d   1     -41.618-121.902 -50.352  0.00  0.00     0.020 A 
ATOM      8  C   UNL d   1     -41.589-123.257 -49.934  0.00  0.00     0.141 A 
ATOM      9  C   UNL d   1     -41.677-122.454 -49.758  0.00  0.00     0.031 A 
ATOM     10  C   UNL d   1     -41.430-120.896 -51.914  0.00  0.00     0.101 C 
ATOM     11  F   UNL d   1     -41.649-123.817 -49.325  0.00  0.00    -0.204 F 
ENDROOT
BRANCH   1  12
ATOM     12  N   UNL d   1     -41.123-122.058 -53.238  0.00  0.00    -0.183 NA
ATOM     13  C   UNL d   1     -41.666-122.528 -53.650  0.00  0.00     0.288 C 
ATOM     14  O   UNL d   1     -42.170-123.039 -53.235  0.00  0.00    -0.265 OA
BRANCH  13  15
ATOM     15  C   UNL d   1     -41.711-122.492 -54.467  0.00  0.00     0.101 C 
BRANCH  15  16
ATOM     16  S   UNL d   1     -42.406-122.241 -54.841  0.00  0.00    -0.040 SA
BRANCH  16  17
ATOM     17  C   UNL d   1     -42.392-122.013 -55.641  0.00  0.00     0.226 C 
ATOM     18  O   UNL d   1     -43.005-122.252 -56.137  0.00  0.00    -0.279 OA
ATOM     19  C   UNL d   1     -41.775-121.559 -55.924  0.00  0.00     0.053 C 
ENDBRANCH  16  17
ENDBRANCH  15  16
ENDBRANCH  13  15
ENDBRANCH   1  12
TORSDOF 4
ENDMDL
