MODEL 1
REMARK VINA RESULT:     -10.4      0.000      0.000
REMARK  1 active torsions:
REMARK  status: ('A' for Active; 'I' for Inactive)
REMARK       I    between atoms: C_8  and  N_9 
REMARK    1  A    between atoms: N_9  and  C_10 
ROOT
ATOM      1  N   UNL d   1      53.025  32.636  53.536  0.00  0.00    -0.304 N 
ATOM      2  C   UNL d   1      52.597  33.291  53.272  0.00  0.00     0.066 A 
ATOM      3  C   UNL d   1      52.860  33.955  53.690  0.00  0.00     0.018 A 
ATOM      4  C   UNL d   1      53.551  32.895  54.116  0.00  0.00     0.064 A 
ATOM      5  C   UNL d   1      53.449  33.708  54.211  0.00  0.00     0.018 A 
ATOM      6  C   UNL d   1      52.002  33.371  52.705  0.00  0.00     0.037 A 
ATOM      7  C   UNL d   1      52.528  34.693  53.540  0.00  0.00     0.003 A 
ATOM      8  C   UNL d   1      51.669  34.115  52.557  0.00  0.00     0.086 A 
ATOM      9  C   UNL d   1      51.939  34.773  52.980  0.00  0.00     0.019 A 
ATOM     10  C   UNL d   1      52.941  31.870  53.269  0.00  0.00     0.099 C 
ATOM     11  C   UNL d   1      54.112  32.496  54.572  0.00  0.00     0.018 A 
ATOM     12  C   UNL d   1      53.909  34.118  54.762  0.00  0.00     0.002 A 
ATOM     13  C   UNL d   1      54.465  33.718  55.212  0.00  0.00     0.000 A 
ATOM     14  C   UNL d   1      54.566  32.905  55.117  0.00  0.00     0.002 A 
ENDROOT
BRANCH   8  15
ATOM     15  N   UNL d   1      51.081  34.187  51.996  0.00  0.00    -0.208 NA
ATOM     16  C   UNL d   1      50.303  34.322  52.220  0.00  0.00     0.279 C 
ATOM     17  O   UNL d   1      49.716  34.394  51.649  0.00  0.00    -0.265 OA
ATOM     18  C   UNL d   1      50.117  34.384  53.014  0.00  0.00     0.068 C 
ENDBRANCH   8  15
TORSDOF 1
ENDMDL
MODEL 2
REMARK VINA RESULT:     -10.4      2.076      3.274
REMARK  1 active torsions:
REMARK  status: ('A' for Active; 'I' for Inactive)
REMARK       I    between atoms: C_8  and  N_9 
REMARK    1  A    between atoms: N_9  and  C_10 
ROOT
ATOM      1  N   UNL d   1      53.750  33.126  54.532  0.00  0.00    -0.304 N 
ATOM      2  C   UNL d   1      53.510  32.515  54.032  0.00  0.00     0.066 A 
ATOM      3  C   UNL d   1      53.006  32.834  53.458  0.00  0.00     0.018 A 
ATOM      4  C   UNL d   1      53.396  33.823  54.268  0.00  0.00     0.064 A 
ATOM      5  C   UNL d   1      52.938  33.643  53.606  0.00  0.00     0.018 A 
ATOM      6  C   UNL d   1      53.682  31.707  54.023  0.00  0.00     0.037 A 
ATOM      7  C   UNL d   1      52.679  32.348  52.881  0.00  0.00     0.003 A 
ATOM      8  C   UNL d   1      53.352  31.220  53.440  0.00  0.00     0.086 A 
ATOM      9  C   UNL d   1      52.849  31.549  52.871  0.00  0.00     0.019 A 
ATOM     10  C   UNL d   1      54.249  33.052  55.173  0.00  0.00     0.099 C 
ATOM     11  C   UNL d   1      53.431  34.600  54.544  0.00  0.00     0.018 A 
ATOM     12  C   UNL d   1      52.516  34.242  53.224  0.00  0.00     0.002 A 
ATOM     13  C   UNL d   1      52.553  35.012  53.501  0.00  0.00     0.000 A 
ATOM     14  C   UNL d   1      53.012  35.192  54.163  0.00  0.00     0.002 A 
ENDROOT
BRANCH   8  15
ATOM     15  N   UNL d   1      53.526  30.423  53.437  0.00  0.00    -0.208 NA
ATOM     16  C   UNL d   1      52.932  29.864  53.529  0.00  0.00     0.279 C 
ATOM     17  O   UNL d   1      53.115  29.063  53.525  0.00  0.00    -0.265 OA
ATOM     18  C   UNL d   1      52.158  30.110  53.626  0.00  0.00     0.068 C 
ENDBRANCH   8  15
TORSDOF 1
ENDMDL
MODEL 3
REMARK VINA RESULT:     -10.0      1.730      2.793
REMARK  1 active torsions:
REMARK  status: ('A' for Active; 'I' for Inactive)
REMARK       I    between atoms: C_8  and  N_9 
REMARK    1  A    between atoms: N_9  and  C_10 
ROOT
ATOM      1  N   UNL d   1      52.423  32.290  53.041  0.00  0.00    -0.304 N 
ATOM      2  C   UNL d   1      52.907  32.866  53.381  0.00  0.00     0.066 A 
ATOM      3  C   UNL d   1      53.564  32.488  53.715  0.00  0.00     0.018 A 
ATOM      4  C   UNL d   1      52.779  31.556  53.165  0.00  0.00     0.064 A 
ATOM      5  C   UNL d   1      53.482  31.678  53.579  0.00  0.00     0.018 A 
ATOM      6  C   UNL d   1      52.837  33.687  53.431  0.00  0.00     0.037 A 
ATOM      7  C   UNL d   1      54.144  32.929  54.095  0.00  0.00     0.003 A 
ATOM      8  C   UNL d   1      53.424  34.130  53.815  0.00  0.00     0.086 A 
ATOM      9  C   UNL d   1      54.076  33.742  54.145  0.00  0.00     0.019 A 
ATOM     10  C   UNL d   1      51.719  32.425  52.654  0.00  0.00     0.099 C 
ATOM     11  C   UNL d   1      52.556  30.790  52.953  0.00  0.00     0.018 A 
ATOM     12  C   UNL d   1      53.958  31.033  53.781  0.00  0.00     0.002 A 
ATOM     13  C   UNL d   1      53.732  30.274  53.568  0.00  0.00     0.000 A 
ATOM     14  C   UNL d   1      53.029  30.152  53.154  0.00  0.00     0.002 A 
ENDROOT
BRANCH   8  15
ATOM     15  N   UNL d   1      53.349  34.941  53.861  0.00  0.00    -0.208 NA
ATOM     16  C   UNL d   1      53.151  35.303  54.571  0.00  0.00     0.279 C 
ATOM     17  O   UNL d   1      53.077  36.121  54.610  0.00  0.00    -0.265 OA
ATOM     18  C   UNL d   1      53.027  34.845  55.237  0.00  0.00     0.068 C 
ENDBRANCH   8  15
TORSDOF 1
ENDMDL
MODEL 4
REMARK VINA RESULT:     -10.0      0.658      1.407
REMARK  1 active torsions:
REMARK  status: ('A' for Active; 'I' for Inactive)
REMARK       I    between atoms: C_8  and  N_9 
REMARK    1  A    between atoms: N_9  and  C_10 
ROOT
ATOM      1  N   UNL d   1      53.175  34.648  54.156  0.00  0.00    -0.304 N 
ATOM      2  C   UNL d   1      52.681  34.264  53.617  0.00  0.00     0.066 A 
ATOM      3  C   UNL d   1      52.846  33.454  53.647  0.00  0.00     0.018 A 
ATOM      4  C   UNL d   1      53.646  34.076  54.519  0.00  0.00     0.064 A 
ATOM      5  C   UNL d   1      53.443  33.340  54.205  0.00  0.00     0.018 A 
ATOM      6  C   UNL d   1      52.100  34.546  53.102  0.00  0.00     0.037 A 
ATOM      7  C   UNL d   1      52.433  32.931  53.165  0.00  0.00     0.003 A 
ATOM      8  C   UNL d   1      51.686  34.017  52.617  0.00  0.00     0.086 A 
ATOM      9  C   UNL d   1      51.859  33.209  52.655  0.00  0.00     0.019 A 
ATOM     10  C   UNL d   1      53.193  35.450  54.302  0.00  0.00     0.099 C 
ATOM     11  C   UNL d   1      54.234  34.127  55.096  0.00  0.00     0.018 A 
ATOM     12  C   UNL d   1      53.830  32.660  54.470  0.00  0.00     0.002 A 
ATOM     13  C   UNL d   1      54.414  32.716  55.043  0.00  0.00     0.000 A 
ATOM     14  C   UNL d   1      54.616  33.452  55.356  0.00  0.00     0.002 A 
ENDROOT
BRANCH   8  15
ATOM     15  N   UNL d   1      51.113  34.302  52.110  0.00  0.00    -0.208 NA
ATOM     16  C   UNL d   1      50.319  34.277  52.318  0.00  0.00     0.279 C 
ATOM     17  O   UNL d   1      49.748  34.565  51.803  0.00  0.00    -0.265 OA
ATOM     18  C   UNL d   1      50.102  33.962  53.042  0.00  0.00     0.068 C 
ENDBRANCH   8  15
TORSDOF 1
ENDMDL
MODEL 5
REMARK VINA RESULT:      -8.0      1.867      3.543
REMARK  1 active torsions:
REMARK  status: ('A' for Active; 'I' for Inactive)
REMARK       I    between atoms: C_8  and  N_9 
REMARK    1  A    between atoms: N_9  and  C_10 
ROOT
ATOM      1  N   UNL d   1      52.282  32.979  53.100  0.00  0.00    -0.304 N 
ATOM      2  C   UNL d   1      52.799  33.502  53.474  0.00  0.00     0.066 A 
ATOM      3  C   UNL d   1      52.415  34.231  53.555  0.00  0.00     0.018 A 
ATOM      4  C   UNL d   1      51.578  33.383  52.951  0.00  0.00     0.064 A 
ATOM      5  C   UNL d   1      51.660  34.154  53.231  0.00  0.00     0.018 A 
ATOM      6  C   UNL d   1      53.572  33.412  53.751  0.00  0.00     0.037 A 
ATOM      7  C   UNL d   1      52.802  34.863  53.912  0.00  0.00     0.003 A 
ATOM      8  C   UNL d   1      53.960  34.051  54.110  0.00  0.00     0.086 A 
ATOM      9  C   UNL d   1      53.566  34.775  54.186  0.00  0.00     0.019 A 
ATOM     10  C   UNL d   1      52.440  32.201  52.913  0.00  0.00     0.099 C 
ATOM     11  C   UNL d   1      50.870  33.149  52.595  0.00  0.00     0.018 A 
ATOM     12  C   UNL d   1      51.034  34.689  53.154  0.00  0.00     0.002 A 
ATOM     13  C   UNL d   1      50.334  34.452  52.801  0.00  0.00     0.000 A 
ATOM     14  C   UNL d   1      50.251  33.681  52.520  0.00  0.00     0.002 A 
ENDROOT
BRANCH   8  15
ATOM     15  N   UNL d   1      54.723  33.955  54.382  0.00  0.00    -0.208 NA
ATOM     16  C   UNL d   1      54.867  33.785  55.173  0.00  0.00     0.279 C 
ATOM     17  O   UNL d   1      55.638  33.690  55.440  0.00  0.00    -0.265 OA
ATOM     18  C   UNL d   1      54.238  33.711  55.691  0.00  0.00     0.068 C 
ENDBRANCH   8  15
TORSDOF 1
ENDMDL
