MODEL 1
REMARK VINA RESULT:      33.3      0.000      0.000
REMARK  3 active torsions:
REMARK  status: ('A' for Active; 'I' for Inactive)
REMARK    1  A    between atoms: C_10  and  C_4 
REMARK    2  A    between atoms: S_9  and  C_10 
REMARK    3  A    between atoms: C_11  and  S_9 
ROOT
ATOM      1  C   UNL d   1     -54.898-101.692 -41.913  0.00  0.00     0.056 C 
ENDROOT
BRANCH   1   2
ATOM      2  S   UNL d   1     -54.771-101.289 -41.228  0.00  0.00    -0.085 SA
BRANCH   2   3
ATOM      3  C   UNL d   1     -54.839-101.678 -40.504  0.00  0.00     0.030 A 
ATOM      4  C   UNL d   1     -54.717-101.265 -39.803  0.00  0.00     0.007 A 
ATOM      5  C   UNL d   1     -54.787-101.667 -39.086  0.00  0.00     0.012 A 
ATOM      6  C   UNL d   1     -54.975-102.467 -39.061  0.00  0.00     0.058 A 
ATOM      7  C   UNL d   1     -55.095-102.871 -39.769  0.00  0.00     0.012 A 
ATOM      8 CL   UNL d   1     -55.043-102.859 -38.334  0.00  0.00    -0.082 Cl
ATOM      9  C   UNL d   1     -55.028-102.484 -40.488  0.00  0.00     0.007 A 
ENDBRANCH   2   3
ENDBRANCH   1   2
BRANCH   1  10
ATOM     10  C   UNL d   1     -54.875-101.300 -42.622  0.00  0.00     0.107 A 
ATOM     11  N   UNL d   1     -54.950-100.467 -42.726  0.00  0.00    -0.220 NA
ATOM     12  C   UNL d   1     -54.894-100.300 -43.559  0.00  0.00     0.180 A 
ATOM     13  N   UNL d   1     -54.784-101.043 -43.966  0.00  0.00    -0.282 N 
ATOM     14  S   UNL d   1     -54.906 -99.682 -44.144  0.00  0.00    -0.048 SA
ATOM     15  C   UNL d   1     -54.773-101.653 -43.378  0.00  0.00     0.102 A 
ATOM     16  C   UNL d   1     -54.728-100.876 -44.799  0.00  0.00     0.089 A 
ATOM     17  C   UNL d   1     -54.803-100.035 -44.905  0.00  0.00     0.057 A 
ENDBRANCH   1  10
TORSDOF 3
ENDMDL
