MODEL 1
REMARK VINA RESULT:      -1.7      0.000      0.000
REMARK  6 active torsions:
REMARK  status: ('A' for Active; 'I' for Inactive)
REMARK    1  A    between atoms: S_2  and  C_1 
REMARK    2  A    between atoms: N_3  and  S_2 
REMARK    3  A    between atoms: C_17  and  N_3 
REMARK    4  A    between atoms: C_4  and  C_12 
REMARK    5  A    between atoms: O_20  and  C_4 
REMARK    6  A    between atoms: C_23  and  O_20 
ROOT
ATOM      1  S   UNL d   1      30.095  16.449 -24.208  0.00  0.00     0.153 S 
ATOM      2  O   UNL d   1      29.842  17.073 -23.764  0.00  0.00    -0.232 OA
ENDROOT
BRANCH   1   3
ATOM      3  C   UNL d   1      29.453  16.146 -24.227  0.00  0.00     0.108 A 
ATOM      4  C   UNL d   1      29.670  16.145 -23.522  0.00  0.00     0.023 A 
ATOM      5  C   UNL d   1      29.046  15.779 -23.056  0.00  0.00     0.024 A 
ATOM      6  C   UNL d   1      28.342  15.453 -23.124  0.00  0.00     0.009 A 
ATOM      7  C   UNL d   1      29.330  16.009 -23.697  0.00  0.00    -0.027 A 
ATOM      8  C   UNL d   1      28.093  15.453 -23.927  0.00  0.00     0.024 A 
ATOM      9  C   UNL d   1      28.582  15.747 -24.340  0.00  0.00     0.023 A 
ATOM     10  C   UNL d   1      28.392  15.701 -24.644  0.00  0.00    -0.027 A 
ATOM     11  C   UNL d   1      29.082  16.021 -24.577  0.00  0.00    -0.012 A 
ATOM     12  C   UNL d   1      29.707  16.391 -25.068  0.00  0.00    -0.013 A 
ENDBRANCH   1   3
BRANCH   1  13
ATOM     13  N   UNL d   1      30.894  16.404 -24.441  0.00  0.00    -0.185 NA
BRANCH  13  14
ATOM     14  C   UNL d   1      31.415  17.037 -24.267  0.00  0.00     0.091 A 
ATOM     15  C   UNL d   1      31.504  17.667 -24.831  0.00  0.00     0.020 A 
ATOM     16  C   UNL d   1      31.993  18.261 -24.668  0.00  0.00     0.007 A 
ATOM     17  C   UNL d   1      32.415  18.277 -23.960  0.00  0.00     0.064 A 
ATOM     18  C   UNL d   1      32.337  17.671 -23.404  0.00  0.00     0.007 A 
ATOM     19  C   UNL d   1      31.830  17.054 -23.573  0.00  0.00     0.020 A 
BRANCH  17  20
ATOM     20  C   UNL d   1      32.940  18.926 -23.797  0.00  0.00     0.300 C 
ATOM     21  O   UNL d   1      33.170  19.420 -24.412  0.00  0.00    -0.259 OA
BRANCH  20  22
ATOM     22  O   UNL d   1      33.200  19.038 -23.027  0.00  0.00    -0.271 OA
BRANCH  22  23
ATOM     23  C   UNL d   1      33.239  19.818 -22.742  0.00  0.00     0.126 C 
ATOM     24  C   UNL d   1      33.065  19.955 -21.941  0.00  0.00     0.029 C 
ENDBRANCH  22  23
ENDBRANCH  20  22
ENDBRANCH  17  20
ENDBRANCH  13  14
ENDBRANCH   1  13
TORSDOF 6
ENDMDL
MODEL 2
REMARK VINA RESULT:       0.1      0.750      1.233
REMARK  6 active torsions:
REMARK  status: ('A' for Active; 'I' for Inactive)
REMARK    1  A    between atoms: S_2  and  C_1 
REMARK    2  A    between atoms: N_3  and  S_2 
REMARK    3  A    between atoms: C_17  and  N_3 
REMARK    4  A    between atoms: C_4  and  C_12 
REMARK    5  A    between atoms: O_20  and  C_4 
REMARK    6  A    between atoms: C_23  and  O_20 
ROOT
ATOM      1  S   UNL d   1      29.282  16.327 -23.910  0.00  0.00     0.153 S 
ATOM      2  O   UNL d   1      29.330  16.875 -23.321  0.00  0.00    -0.232 OA
ENDROOT
BRANCH   1   3
ATOM      3  C   UNL d   1      28.668  16.061 -23.673  0.00  0.00     0.108 A 
ATOM      4  C   UNL d   1      28.631  16.061 -24.410  0.00  0.00     0.023 A 
ATOM      5  C   UNL d   1      27.865  15.741 -24.634  0.00  0.00     0.024 A 
ATOM      6  C   UNL d   1      27.208  15.455 -24.329  0.00  0.00     0.009 A 
ATOM      7  C   UNL d   1      28.363  15.941 -24.128  0.00  0.00    -0.027 A 
ATOM      8  C   UNL d   1      27.247  15.453 -23.489  0.00  0.00     0.024 A 
ATOM      9  C   UNL d   1      27.865  15.711 -23.269  0.00  0.00     0.023 A 
ATOM     10  C   UNL d   1      27.787  15.670 -22.917  0.00  0.00    -0.027 A 
ATOM     11  C   UNL d   1      28.432  15.950 -23.217  0.00  0.00    -0.012 A 
ATOM     12  C   UNL d   1      29.207  16.274 -22.969  0.00  0.00    -0.013 A 
ENDBRANCH   1   3
BRANCH   1  13
ATOM     13  N   UNL d   1      29.882  16.286 -24.488  0.00  0.00    -0.185 NA
BRANCH  13  14
ATOM     14  C   UNL d   1      30.567  16.763 -24.411  0.00  0.00     0.091 A 
ATOM     15  C   UNL d   1      30.528  17.583 -24.630  0.00  0.00     0.020 A 
ATOM     16  C   UNL d   1      31.172  18.030 -24.557  0.00  0.00     0.007 A 
ATOM     17  C   UNL d   1      31.876  17.711 -24.271  0.00  0.00     0.064 A 
ATOM     18  C   UNL d   1      31.926  16.915 -24.054  0.00  0.00     0.007 A 
ATOM     19  C   UNL d   1      31.259  16.451 -24.130  0.00  0.00     0.020 A 
BRANCH  17  20
ATOM     20  C   UNL d   1      32.563  18.206 -24.198  0.00  0.00     0.300 C 
ATOM     21  O   UNL d   1      33.241  18.018 -24.623  0.00  0.00    -0.259 OA
BRANCH  20  22
ATOM     22  O   UNL d   1      32.527  18.859 -23.701  0.00  0.00    -0.271 OA
BRANCH  22  23
ATOM     23  C   UNL d   1      33.075  18.900 -23.078  0.00  0.00     0.126 C 
ATOM     24  C   UNL d   1      32.930  19.437 -22.460  0.00  0.00     0.029 C 
ENDBRANCH  22  23
ENDBRANCH  20  22
ENDBRANCH  17  20
ENDBRANCH  13  14
ENDBRANCH   1  13
TORSDOF 6
ENDMDL
