MODEL 1
REMARK VINA RESULT:      65.0      0.000      0.000
REMARK  7 active torsions:
REMARK  status: ('A' for Active; 'I' for Inactive)
REMARK    1  A    between atoms: C_2  and  S_1 
REMARK    2  A    between atoms: N_3  and  S_1 
REMARK    3  A    between atoms: C_5  and  C_7 
REMARK       I    between atoms: N_9  and  C_5 
REMARK    4  A    between atoms: C_8  and  N_6 
REMARK    5  A    between atoms: C_21  and  N_9 
REMARK    6  A    between atoms: O_28  and  C_23 
REMARK    7  A    between atoms: C_31  and  O_28 
ROOT
ATOM      1  C   UNL d   1      46.078 -17.818  43.529  0.00  0.00     0.132 A 
ATOM      2  C   UNL d   1      46.162 -18.153  42.786  0.00  0.00     0.020 A 
ATOM      3  C   UNL d   1      46.256 -18.970  42.716  0.00  0.00     0.059 A 
ATOM      4  C   UNL d   1      46.087 -18.296  44.208  0.00  0.00     0.152 A 
ATOM      5  C   UNL d   1      46.265 -19.448  43.396  0.00  0.00     0.007 A 
ATOM      6  C   UNL d   1      46.180 -19.108  44.143  0.00  0.00     0.030 A 
ATOM      7  F   UNL d   1      46.002 -17.957  44.955  0.00  0.00    -0.203 F 
ENDROOT
BRANCH   1   8
ATOM      8  S   UNL d   1      45.984 -16.999  43.593  0.00  0.00     0.274 S 
ATOM      9  O   UNL d   1      46.571 -16.880  43.026  0.00  0.00    -0.200 OA
ATOM     10  O   UNL d   1      45.397 -17.116  44.160  0.00  0.00    -0.200 OA
BRANCH   8  11
ATOM     11  N   UNL d   1      45.886 -16.182  43.661  0.00  0.00    -0.226 N 
ATOM     12  C   UNL d   1      45.250 -15.880  44.084  0.00  0.00     0.111 A 
ATOM     13  C   UNL d   1      45.156 -15.062  44.149  0.00  0.00     0.101 A 
ATOM     14  N   UNL d   1      45.699 -14.553  43.792  0.00  0.00    -0.286 N 
ATOM     15  C   UNL d   1      46.328 -14.866  43.375  0.00  0.00     0.101 A 
ATOM     16  C   UNL d   1      46.429 -15.673  43.304  0.00  0.00     0.111 A 
BRANCH  14  17
ATOM     17  C   UNL d   1      45.600 -13.740  43.861  0.00  0.00     0.148 A 
ATOM     18  N   UNL d   1      45.666 -13.376  44.594  0.00  0.00    -0.227 NA
ATOM     19  C   UNL d   1      45.566 -12.559  44.661  0.00  0.00     0.101 A 
ATOM     20  C   UNL d   1      45.400 -12.112  43.986  0.00  0.00     0.021 A 
ATOM     21  C   UNL d   1      45.334 -12.479  43.248  0.00  0.00     0.005 A 
ATOM     22  C   UNL d   1      45.434 -13.290  43.189  0.00  0.00     0.037 A 
ENDBRANCH  14  17
ENDBRANCH   8  11
ENDBRANCH   1   8
BRANCH   3  23
ATOM     23  C   UNL d   1      46.342 -19.322  41.974  0.00  0.00     0.279 C 
ATOM     24  N   UNL d   1      46.190 -18.875  41.294  0.00  0.00    -0.208 NA
ATOM     25  O   UNL d   1      46.572 -20.101  41.906  0.00  0.00    -0.265 OA
BRANCH  24  26
ATOM     26  C   UNL d   1      46.274 -19.220  40.549  0.00  0.00     0.085 A 
ATOM     27  C   UNL d   1      46.564 -19.987  40.476  0.00  0.00     0.021 A 
ATOM     28  C   UNL d   1      46.647 -20.330  39.732  0.00  0.00     0.026 A 
ATOM     29  C   UNL d   1      46.438 -19.905  39.041  0.00  0.00     0.100 A 
ATOM     30  C   UNL d   1      46.146 -19.131  39.122  0.00  0.00     0.026 A 
ATOM     31  C   UNL d   1      46.062 -18.787  39.863  0.00  0.00     0.021 A 
BRANCH  29  32
ATOM     32  O   UNL d   1      46.522 -20.249  38.305  0.00  0.00    -0.305 OA
BRANCH  32  33
ATOM     33  C   UNL d   1      45.882 -20.285  37.786  0.00  0.00     0.123 C 
ATOM     34  C   UNL d   1      46.012 -20.312  36.969  0.00  0.00     0.029 C 
ENDBRANCH  32  33
ENDBRANCH  29  32
ENDBRANCH  24  26
ENDBRANCH   3  23
TORSDOF 7
ENDMDL
