MODEL 1
REMARK VINA RESULT:      -6.9      0.000      0.000
REMARK  5 active torsions:
REMARK  status: ('A' for Active; 'I' for Inactive)
REMARK    1  A    between atoms: C_5  and  C_1 
REMARK    2  A    between atoms: N_15  and  C_4 
REMARK       I    between atoms: N_9  and  C_5 
REMARK    3  A    between atoms: C_7  and  N_9 
REMARK    4  A    between atoms: C_18  and  N_15 
REMARK    5  A    between atoms: C_16  and  C_18 
ROOT
ATOM      1  C   UNL d   1      52.339  33.420  53.093  0.00  0.00     0.128 A 
ATOM      2  N   UNL d   1      53.596  32.529  53.651  0.00  0.00    -0.200 NA
ATOM      3  C   UNL d   1      52.920  33.771  53.555  0.00  0.00     0.196 A 
ATOM      4  C   UNL d   1      53.015  32.177  53.189  0.00  0.00     0.196 A 
ATOM      5  S   UNL d   1      52.396  32.615  52.914  0.00  0.00    -0.041 SA
ATOM      6  N   UNL d   1      52.871  34.571  53.738  0.00  0.00    -0.126 N 
ENDROOT
BRANCH   1   7
ATOM      7  C   UNL d   1      51.707  33.876  52.815  0.00  0.00     0.290 C 
ATOM      8  N   UNL d   1      50.929  33.698  53.065  0.00  0.00    -0.186 NA
ATOM      9  O   UNL d   1      51.834  34.505  52.293  0.00  0.00    -0.264 OA
BRANCH   8  10
ATOM     10  C   UNL d   1      50.290  34.153  52.789  0.00  0.00     0.194 A 
ATOM     11  N   UNL d   1      49.820  34.761  53.104  0.00  0.00    -0.107 NA
ATOM     12  O   UNL d   1      49.216  35.094  52.662  0.00  0.00    -0.210 OA
ATOM     13  C   UNL d   1      49.069  34.817  51.876  0.00  0.00     0.128 A 
ATOM     14  C   UNL d   1      49.537  34.213  51.564  0.00  0.00     0.068 A 
ATOM     15  C   UNL d   1      48.521  35.009  51.268  0.00  0.00     0.029 C 
ENDBRANCH   8  10
ENDBRANCH   1   7
BRANCH   4  16
ATOM     16  N   UNL d   1      53.070  31.378  53.009  0.00  0.00    -0.220 NA
BRANCH  16  17
ATOM     17  C   UNL d   1      53.286  30.842  53.598  0.00  0.00     0.101 C 
BRANCH  17  18
ATOM     18  C   UNL d   1      53.325  30.044  53.427  0.00  0.00     0.021 C 
ATOM     19  C   UNL d   1      53.326  29.492  54.041  0.00  0.00     0.002 C 
ENDBRANCH  17  18
ENDBRANCH  16  17
ENDBRANCH   4  16
TORSDOF 5
ENDMDL
MODEL 2
REMARK VINA RESULT:      -6.8      2.621      3.162
REMARK  5 active torsions:
REMARK  status: ('A' for Active; 'I' for Inactive)
REMARK    1  A    between atoms: C_5  and  C_1 
REMARK    2  A    between atoms: N_15  and  C_4 
REMARK       I    between atoms: N_9  and  C_5 
REMARK    3  A    between atoms: C_7  and  N_9 
REMARK    4  A    between atoms: C_18  and  N_15 
REMARK    5  A    between atoms: C_16  and  C_18 
ROOT
ATOM      1  C   UNL d   1      53.107  32.003  53.324  0.00  0.00     0.128 A 
ATOM      2  N   UNL d   1      52.675  30.495  52.852  0.00  0.00    -0.200 NA
ATOM      3  C   UNL d   1      52.501  31.900  52.780  0.00  0.00     0.196 A 
ATOM      4  C   UNL d   1      53.281  30.598  53.396  0.00  0.00     0.196 A 
ATOM      5  S   UNL d   1      53.495  31.340  53.629  0.00  0.00    -0.041 SA
ATOM      6  N   UNL d   1      52.110  32.554  52.472  0.00  0.00    -0.126 N 
ENDROOT
BRANCH   1   7
ATOM      7  C   UNL d   1      53.320  32.768  53.558  0.00  0.00     0.290 C 
ATOM      8  N   UNL d   1      52.993  33.092  54.255  0.00  0.00    -0.186 NA
ATOM      9  O   UNL d   1      53.853  33.216  53.110  0.00  0.00    -0.264 OA
BRANCH   8  10
ATOM     10  C   UNL d   1      53.202  33.860  54.496  0.00  0.00     0.194 A 
ATOM     11  N   UNL d   1      53.755  34.181  55.026  0.00  0.00    -0.107 NA
ATOM     12  O   UNL d   1      53.814  34.992  55.129  0.00  0.00    -0.210 OA
ATOM     13  C   UNL d   1      53.306  35.507  54.691  0.00  0.00     0.128 A 
ATOM     14  C   UNL d   1      52.757  35.187  54.165  0.00  0.00     0.068 A 
ATOM     15  C   UNL d   1      53.199  36.340  54.643  0.00  0.00     0.029 C 
ENDBRANCH   8  10
ENDBRANCH   1   7
BRANCH   4  16
ATOM     16  N   UNL d   1      53.668  29.941  53.701  0.00  0.00    -0.220 NA
BRANCH  16  17
ATOM     17  C   UNL d   1      53.251  29.402  54.166  0.00  0.00     0.101 C 
BRANCH  17  18
ATOM     18  C   UNL d   1      53.648  28.791  54.536  0.00  0.00     0.021 C 
ATOM     19  C   UNL d   1      53.324  28.439  55.209  0.00  0.00     0.002 C 
ENDBRANCH  17  18
ENDBRANCH  16  17
ENDBRANCH   4  16
TORSDOF 5
ENDMDL
MODEL 3
REMARK VINA RESULT:      -6.7      1.811      4.715
REMARK  5 active torsions:
REMARK  status: ('A' for Active; 'I' for Inactive)
REMARK    1  A    between atoms: C_5  and  C_1 
REMARK    2  A    between atoms: N_15  and  C_4 
REMARK       I    between atoms: N_9  and  C_5 
REMARK    3  A    between atoms: C_7  and  N_9 
REMARK    4  A    between atoms: C_18  and  N_15 
REMARK    5  A    between atoms: C_16  and  C_18 
ROOT
ATOM      1  C   UNL d   1      53.027  32.842  53.348  0.00  0.00     0.128 A 
ATOM      2  N   UNL d   1      52.634  34.426  53.204  0.00  0.00    -0.200 NA
ATOM      3  C   UNL d   1      53.495  33.416  53.703  0.00  0.00     0.196 A 
ATOM      4  C   UNL d   1      52.166  33.852  52.850  0.00  0.00     0.196 A 
ATOM      5  S   UNL d   1      52.359  33.072  52.920  0.00  0.00    -0.041 SA
ATOM      6  N   UNL d   1      54.162  33.196  54.130  0.00  0.00    -0.126 N 
ENDROOT
BRANCH   1   7
ATOM      7  C   UNL d   1      53.232  32.044  53.425  0.00  0.00     0.290 C 
ATOM      8  N   UNL d   1      52.632  31.475  53.552  0.00  0.00    -0.186 NA
ATOM      9  O   UNL d   1      54.021  31.801  53.378  0.00  0.00    -0.264 OA
BRANCH   8  10
ATOM     10  C   UNL d   1      52.831  30.672  53.631  0.00  0.00     0.194 A 
ATOM     11  N   UNL d   1      52.905  30.029  53.109  0.00  0.00    -0.107 NA
ATOM     12  O   UNL d   1      53.118  29.288  53.386  0.00  0.00    -0.210 OA
ATOM     13  C   UNL d   1      53.266  29.176  54.211  0.00  0.00     0.128 A 
ATOM     14  C   UNL d   1      53.193  29.815  54.728  0.00  0.00     0.068 A 
ATOM     15  C   UNL d   1      53.488  28.525  54.694  0.00  0.00     0.029 C 
ENDBRANCH   8  10
ENDBRANCH   1   7
BRANCH   4  16
ATOM     16  N   UNL d   1      51.501  34.078  52.424  0.00  0.00    -0.220 NA
BRANCH  16  17
ATOM     17  C   UNL d   1      50.843  34.374  52.824  0.00  0.00     0.101 C 
BRANCH  17  18
ATOM     18  C   UNL d   1      50.132  34.461  52.429  0.00  0.00     0.021 C 
ATOM     19  C   UNL d   1      49.501  34.841  52.799  0.00  0.00     0.002 C 
ENDBRANCH  17  18
ENDBRANCH  16  17
ENDBRANCH   4  16
TORSDOF 5
ENDMDL
MODEL 4
REMARK VINA RESULT:      -6.1      1.379      2.142
REMARK  5 active torsions:
REMARK  status: ('A' for Active; 'I' for Inactive)
REMARK    1  A    between atoms: C_5  and  C_1 
REMARK    2  A    between atoms: N_15  and  C_4 
REMARK       I    between atoms: N_9  and  C_5 
REMARK    3  A    between atoms: C_7  and  N_9 
REMARK    4  A    between atoms: C_18  and  N_15 
REMARK    5  A    between atoms: C_16  and  C_18 
ROOT
ATOM      1  C   UNL d   1      52.121  33.052  53.369  0.00  0.00     0.128 A 
ATOM      2  N   UNL d   1      53.613  32.492  53.747  0.00  0.00    -0.200 NA
ATOM      3  C   UNL d   1      52.382  32.337  53.062  0.00  0.00     0.196 A 
ATOM      4  C   UNL d   1      53.352  33.208  54.054  0.00  0.00     0.196 A 
ATOM      5  S   UNL d   1      52.617  33.484  53.868  0.00  0.00    -0.041 SA
ATOM      6  N   UNL d   1      51.894  31.901  52.564  0.00  0.00    -0.126 N 
ENDROOT
BRANCH   1   7
ATOM      7  C   UNL d   1      51.365  33.329  53.173  0.00  0.00     0.290 C 
ATOM      8  N   UNL d   1      51.286  34.041  52.742  0.00  0.00    -0.186 NA
ATOM      9  O   UNL d   1      50.688  32.911  53.399  0.00  0.00    -0.264 OA
BRANCH   8  10
ATOM     10  C   UNL d   1      50.530  34.324  52.543  0.00  0.00     0.194 A 
ATOM     11  N   UNL d   1      49.938  34.753  52.938  0.00  0.00    -0.107 NA
ATOM     12  O   UNL d   1      49.237  34.943  52.560  0.00  0.00    -0.210 OA
ATOM     13  C   UNL d   1      49.114  34.702  51.758  0.00  0.00     0.128 A 
ATOM     14  C   UNL d   1      49.703  34.277  51.367  0.00  0.00     0.068 A 
ATOM     15  C   UNL d   1      48.493  34.787  51.198  0.00  0.00     0.029 C 
ENDBRANCH   8  10
ENDBRANCH   1   7
BRANCH   4  16
ATOM     16  N   UNL d   1      53.844  33.639  54.550  0.00  0.00    -0.220 NA
BRANCH  16  17
ATOM     17  C   UNL d   1      54.556  33.309  54.805  0.00  0.00     0.101 C 
BRANCH  17  18
ATOM     18  C   UNL d   1      54.992  33.682  55.387  0.00  0.00     0.021 C 
ATOM     19  C   UNL d   1      55.707  34.046  55.193  0.00  0.00     0.002 C 
ENDBRANCH  17  18
ENDBRANCH  16  17
ENDBRANCH   4  16
TORSDOF 5
ENDMDL
MODEL 5
REMARK VINA RESULT:      -6.1      2.129      4.919
REMARK  5 active torsions:
REMARK  status: ('A' for Active; 'I' for Inactive)
REMARK    1  A    between atoms: C_5  and  C_1 
REMARK    2  A    between atoms: N_15  and  C_4 
REMARK       I    between atoms: N_9  and  C_5 
REMARK    3  A    between atoms: C_7  and  N_9 
REMARK    4  A    between atoms: C_18  and  N_15 
REMARK    5  A    between atoms: C_16  and  C_18 
ROOT
ATOM      1  C   UNL d   1      51.340  34.409  52.981  0.00  0.00     0.128 A 
ATOM      2  N   UNL d   1      49.886  34.279  52.238  0.00  0.00    -0.200 NA
ATOM      3  C   UNL d   1      51.272  33.985  52.282  0.00  0.00     0.196 A 
ATOM      4  C   UNL d   1      49.954  34.703  52.938  0.00  0.00     0.196 A 
ATOM      5  S   UNL d   1      50.670  34.768  53.304  0.00  0.00    -0.041 SA
ATOM      6  N   UNL d   1      51.934  33.625  51.953  0.00  0.00    -0.126 N 
ENDROOT
BRANCH   1   7
ATOM      7  C   UNL d   1      52.078  34.470  53.351  0.00  0.00     0.290 C 
ATOM      8  N   UNL d   1      52.202  34.096  54.088  0.00  0.00    -0.186 NA
ATOM      9  O   UNL d   1      52.695  34.897  53.001  0.00  0.00    -0.264 OA
BRANCH   8  10
ATOM     10  C   UNL d   1      52.941  34.154  54.465  0.00  0.00     0.194 A 
ATOM     11  N   UNL d   1      53.311  34.716  54.953  0.00  0.00    -0.107 NA
ATOM     12  O   UNL d   1      54.070  34.588  55.235  0.00  0.00    -0.210 OA
ATOM     13  C   UNL d   1      54.480  33.878  55.028  0.00  0.00     0.128 A 
ATOM     14  C   UNL d   1      54.111  33.321  54.544  0.00  0.00     0.068 A 
ATOM     15  C   UNL d   1      55.238  33.555  55.200  0.00  0.00     0.029 C 
ENDBRANCH   8  10
ENDBRANCH   1   7
BRANCH   4  16
ATOM     16  N   UNL d   1      49.289  35.061  53.261  0.00  0.00    -0.220 NA
BRANCH  16  17
ATOM     17  C   UNL d   1      48.747  35.435  52.765  0.00  0.00     0.101 C 
BRANCH  17  18
ATOM     18  C   UNL d   1      48.133  35.869  53.087  0.00  0.00     0.021 C 
ATOM     19  C   UNL d   1      47.579  36.227  52.592  0.00  0.00     0.002 C 
ENDBRANCH  17  18
ENDBRANCH  16  17
ENDBRANCH   4  16
TORSDOF 5
ENDMDL
MODEL 6
REMARK VINA RESULT:      -5.3      9.476     10.414
REMARK  5 active torsions:
REMARK  status: ('A' for Active; 'I' for Inactive)
REMARK    1  A    between atoms: C_5  and  C_1 
REMARK    2  A    between atoms: N_15  and  C_4 
REMARK       I    between atoms: N_9  and  C_5 
REMARK    3  A    between atoms: C_7  and  N_9 
REMARK    4  A    between atoms: C_18  and  N_15 
REMARK    5  A    between atoms: C_16  and  C_18 
ROOT
ATOM      1  C   UNL d   1      44.891  29.553  58.081  0.00  0.00     0.128 A 
ATOM      2  N   UNL d   1      44.969  30.932  58.962  0.00  0.00    -0.200 NA
ATOM      3  C   UNL d   1      44.898  30.282  57.704  0.00  0.00     0.196 A 
ATOM      4  C   UNL d   1      44.962  30.203  59.339  0.00  0.00     0.196 A 
ATOM      5  S   UNL d   1      44.924  29.523  58.906  0.00  0.00    -0.041 SA
ATOM      6  N   UNL d   1      44.866  30.321  56.883  0.00  0.00    -0.126 N 
ENDROOT
BRANCH   1   7
ATOM      7  C   UNL d   1      44.852  28.860  57.629  0.00  0.00     0.290 C 
ATOM      8  N   UNL d   1      45.357  28.220  57.812  0.00  0.00    -0.186 NA
ATOM      9  O   UNL d   1      44.319  28.793  57.000  0.00  0.00    -0.264 OA
BRANCH   8  10
ATOM     10  C   UNL d   1      45.323  27.522  57.362  0.00  0.00     0.194 A 
ATOM     11  N   UNL d   1      45.798  27.175  56.775  0.00  0.00    -0.107 NA
ATOM     12  O   UNL d   1      45.589  26.456  56.440  0.00  0.00    -0.210 OA
ATOM     13  C   UNL d   1      44.884  26.064  56.694  0.00  0.00     0.128 A 
ATOM     14  C   UNL d   1      44.414  26.410  57.276  0.00  0.00     0.068 A 
ATOM     15  C   UNL d   1      44.495  25.346  56.492  0.00  0.00     0.029 C 
ENDBRANCH   8  10
ENDBRANCH   1   7
BRANCH   4  16
ATOM     16  N   UNL d   1      44.995  30.170  60.159  0.00  0.00    -0.220 NA
BRANCH  16  17
ATOM     17  C   UNL d   1      44.741  30.818  60.602  0.00  0.00     0.101 C 
BRANCH  17  18
ATOM     18  C   UNL d   1      44.682  30.757  61.415  0.00  0.00     0.021 C 
ATOM     19  C   UNL d   1      44.392  31.391  61.855  0.00  0.00     0.002 C 
ENDBRANCH  17  18
ENDBRANCH  16  17
ENDBRANCH   4  16
TORSDOF 5
ENDMDL
MODEL 7
REMARK VINA RESULT:      -4.8      9.559     10.174
REMARK  5 active torsions:
REMARK  status: ('A' for Active; 'I' for Inactive)
REMARK    1  A    between atoms: C_5  and  C_1 
REMARK    2  A    between atoms: N_15  and  C_4 
REMARK       I    between atoms: N_9  and  C_5 
REMARK    3  A    between atoms: C_7  and  N_9 
REMARK    4  A    between atoms: C_18  and  N_15 
REMARK    5  A    between atoms: C_16  and  C_18 
ROOT
ATOM      1  C   UNL d   1      44.982  29.448  58.028  0.00  0.00     0.128 A 
ATOM      2  N   UNL d   1      44.894  28.589  56.635  0.00  0.00    -0.200 NA
ATOM      3  C   UNL d   1      44.812  29.828  57.321  0.00  0.00     0.196 A 
ATOM      4  C   UNL d   1      45.065  28.209  57.342  0.00  0.00     0.196 A 
ATOM      5  S   UNL d   1      45.108  28.631  58.029  0.00  0.00    -0.041 SA
ATOM      6  N   UNL d   1      44.685  30.640  57.311  0.00  0.00    -0.126 N 
ENDROOT
BRANCH   1   7
ATOM      7  C   UNL d   1      45.025  29.888  58.728  0.00  0.00     0.290 C 
ATOM      8  N   UNL d   1      44.376  29.889  59.254  0.00  0.00    -0.186 NA
ATOM      9  O   UNL d   1      45.702  30.326  58.913  0.00  0.00    -0.264 OA
BRANCH   8  10
ATOM     10  C   UNL d   1      44.412  30.329  59.959  0.00  0.00     0.194 A 
ATOM     11  N   UNL d   1      44.314  31.129  60.159  0.00  0.00    -0.107 NA
ATOM     12  O   UNL d   1      44.393  31.378  60.937  0.00  0.00    -0.210 OA
ATOM     13  C   UNL d   1      44.576  30.814  61.540  0.00  0.00     0.128 A 
ATOM     14  C   UNL d   1      44.673  30.020  61.339  0.00  0.00     0.068 A 
ATOM     15  C   UNL d   1      44.697  30.848  62.372  0.00  0.00     0.029 C 
ENDBRANCH   8  10
ENDBRANCH   1   7
BRANCH   4  16
ATOM     16  N   UNL d   1      45.191  27.398  57.346  0.00  0.00    -0.220 NA
BRANCH  16  17
ATOM     17  C   UNL d   1      44.995  26.953  56.679  0.00  0.00     0.101 C 
BRANCH  17  18
ATOM     18  C   UNL d   1      45.070  26.139  56.697  0.00  0.00     0.021 C 
ATOM     19  C   UNL d   1      44.619  25.673  56.187  0.00  0.00     0.002 C 
ENDBRANCH  17  18
ENDBRANCH  16  17
ENDBRANCH   4  16
TORSDOF 5
ENDMDL
MODEL 8
REMARK VINA RESULT:      -4.7      9.513     10.619
REMARK  5 active torsions:
REMARK  status: ('A' for Active; 'I' for Inactive)
REMARK    1  A    between atoms: C_5  and  C_1 
REMARK    2  A    between atoms: N_15  and  C_4 
REMARK       I    between atoms: N_9  and  C_5 
REMARK    3  A    between atoms: C_7  and  N_9 
REMARK    4  A    between atoms: C_18  and  N_15 
REMARK    5  A    between atoms: C_16  and  C_18 
ROOT
ATOM      1  C   UNL d   1      45.081  27.763  57.401  0.00  0.00     0.128 A 
ATOM      2  N   UNL d   1      45.040  29.047  58.419  0.00  0.00    -0.200 NA
ATOM      3  C   UNL d   1      45.388  27.697  58.160  0.00  0.00     0.196 A 
ATOM      4  C   UNL d   1      44.733  29.113  57.661  0.00  0.00     0.196 A 
ATOM      5  S   UNL d   1      44.753  28.482  57.159  0.00  0.00    -0.041 SA
ATOM      6  N   UNL d   1      45.716  26.985  58.410  0.00  0.00    -0.126 N 
ENDROOT
BRANCH   1   7
ATOM      7  C   UNL d   1      45.105  27.111  56.893  0.00  0.00     0.290 C 
ATOM      8  N   UNL d   1      44.409  26.667  56.759  0.00  0.00    -0.186 NA
ATOM      9  O   UNL d   1      45.807  26.892  56.515  0.00  0.00    -0.264 OA
BRANCH   8  10
ATOM     10  C   UNL d   1      44.426  26.010  56.250  0.00  0.00     0.194 A 
ATOM     11  N   UNL d   1      44.315  25.894  55.435  0.00  0.00    -0.107 NA
ATOM     12  O   UNL d   1      44.375  25.145  55.107  0.00  0.00    -0.210 OA
ATOM     13  C   UNL d   1      44.551  24.483  55.604  0.00  0.00     0.128 A 
ATOM     14  C   UNL d   1      44.662  24.600  56.413  0.00  0.00     0.068 A 
ATOM     15  C   UNL d   1      44.655  23.657  55.484  0.00  0.00     0.029 C 
ENDBRANCH   8  10
ENDBRANCH   1   7
BRANCH   4  16
ATOM     16  N   UNL d   1      44.407  29.826  57.417  0.00  0.00    -0.220 NA
BRANCH  16  17
ATOM     17  C   UNL d   1      44.797  30.532  57.590  0.00  0.00     0.101 C 
BRANCH  17  18
ATOM     18  C   UNL d   1      44.390  31.241  57.552  0.00  0.00     0.021 C 
ATOM     19  C   UNL d   1      44.740  31.896  57.194  0.00  0.00     0.002 C 
ENDBRANCH  17  18
ENDBRANCH  16  17
ENDBRANCH   4  16
TORSDOF 5
ENDMDL
MODEL 9
REMARK VINA RESULT:      -4.5     10.335     10.992
REMARK  5 active torsions:
REMARK  status: ('A' for Active; 'I' for Inactive)
REMARK    1  A    between atoms: C_5  and  C_1 
REMARK    2  A    between atoms: N_15  and  C_4 
REMARK       I    between atoms: N_9  and  C_5 
REMARK    3  A    between atoms: C_7  and  N_9 
REMARK    4  A    between atoms: C_18  and  N_15 
REMARK    5  A    between atoms: C_16  and  C_18 
ROOT
ATOM      1  C   UNL d   1      44.887  26.439  57.758  0.00  0.00     0.128 A 
ATOM      2  N   UNL d   1      44.479  24.918  57.309  0.00  0.00    -0.200 NA
ATOM      3  C   UNL d   1      44.838  26.245  56.962  0.00  0.00     0.196 A 
ATOM      4  C   UNL d   1      44.528  25.112  58.105  0.00  0.00     0.196 A 
ATOM      5  S   UNL d   1      44.729  25.862  58.327  0.00  0.00    -0.041 SA
ATOM      6  N   UNL d   1      44.994  26.814  56.390  0.00  0.00    -0.126 N 
ENDROOT
BRANCH   1   7
ATOM      7  C   UNL d   1      45.094  27.210  57.978  0.00  0.00     0.290 C 
ATOM      8  N   UNL d   1      44.501  27.736  58.243  0.00  0.00    -0.186 NA
ATOM      9  O   UNL d   1      45.879  27.467  57.938  0.00  0.00    -0.264 OA
BRANCH   8  10
ATOM     10  C   UNL d   1      44.702  28.512  58.466  0.00  0.00     0.194 A 
ATOM     11  N   UNL d   1      44.956  28.876  59.168  0.00  0.00    -0.107 NA
ATOM     12  O   UNL d   1      45.109  29.681  59.189  0.00  0.00    -0.210 OA
ATOM     13  C   UNL d   1      45.007  30.146  58.489  0.00  0.00     0.128 A 
ATOM     14  C   UNL d   1      44.754  29.782  57.793  0.00  0.00     0.068 A 
ATOM     15  C   UNL d   1      45.102  30.958  58.293  0.00  0.00     0.029 C 
ENDBRANCH   8  10
ENDBRANCH   1   7
BRANCH   4  16
ATOM     16  N   UNL d   1      44.371  24.540  58.672  0.00  0.00    -0.220 NA
BRANCH  16  17
ATOM     17  C   UNL d   1      44.505  23.745  58.496  0.00  0.00     0.101 C 
BRANCH  17  18
ATOM     18  C   UNL d   1      44.315  23.169  59.044  0.00  0.00     0.021 C 
ATOM     19  C   UNL d   1      44.534  22.386  58.910  0.00  0.00     0.002 C 
ENDBRANCH  17  18
ENDBRANCH  16  17
ENDBRANCH   4  16
TORSDOF 5
ENDMDL
