MODEL 1
REMARK VINA RESULT:      50.3      0.000      0.000
REMARK  4 active torsions:
REMARK  status: ('A' for Active; 'I' for Inactive)
REMARK    1  A    between atoms: C_8  and  C_1 
REMARK    2  A    between atoms: N_5  and  C_2 
REMARK       I    between atoms: C_6  and  N_5 
REMARK    3  A    between atoms: C_10  and  C_6 
REMARK    4  A    between atoms: N_9  and  C_8 
ROOT
ATOM      1  C   UNL d   1      13.748  13.083  -2.674  0.00  0.00     0.042 A 
ATOM      2  C   UNL d   1      14.429  13.532  -2.563  0.00  0.00     0.115 A 
ATOM      3  S   UNL d   1      14.922  13.107  -2.057  0.00  0.00    -0.068 SA
ATOM      4  C   UNL d   1      13.826  12.393  -2.241  0.00  0.00     0.009 A 
ATOM      5  C   UNL d   1      14.551  12.409  -1.861  0.00  0.00     0.031 A 
ATOM      6  C   UNL d   1      13.261  11.783  -2.200  0.00  0.00     0.001 C 
ATOM      7  C   UNL d   1      14.868  11.828  -1.362  0.00  0.00     0.007 C 
ENDROOT
BRANCH   2   8
ATOM      8  N   UNL d   1      14.594  14.271  -2.892  0.00  0.00    -0.201 NA
ATOM      9  C   UNL d   1      14.900  14.876  -2.417  0.00  0.00     0.282 C 
ATOM     10  O   UNL d   1      15.061  15.607  -2.750  0.00  0.00    -0.265 OA
BRANCH   9  11
ATOM     11  C   UNL d   1      15.039  14.739  -1.613  0.00  0.00     0.085 A 
ATOM     12  C   UNL d   1      14.610  15.164  -1.050  0.00  0.00     0.145 A 
ATOM     13  F   UNL d   1      14.035  15.733  -1.212  0.00  0.00    -0.204 F 
ATOM     14  C   UNL d   1      14.745  15.032  -0.246  0.00  0.00     0.030 A 
ATOM     15  C   UNL d   1      15.311  14.473  -0.016  0.00  0.00     0.002 A 
ATOM     16  C   UNL d   1      15.737  14.051  -0.579  0.00  0.00     0.000 A 
ATOM     17  C   UNL d   1      15.597  14.188  -1.383  0.00  0.00     0.007 A 
ENDBRANCH   9  11
ENDBRANCH   2   8
BRANCH   1  18
ATOM     18  C   UNL d   1      13.061  13.221  -3.121  0.00  0.00     0.082 C 
BRANCH  18  19
ATOM     19  N   UNL d   1      12.998  12.901  -3.874  0.00  0.00    -0.304 N 
ATOM     20  C   UNL d   1      12.851  13.404  -4.525  0.00  0.00     0.064 A 
ATOM     21  C   UNL d   1      12.772  14.214  -4.407  0.00  0.00     0.019 C 
ATOM     22  C   UNL d   1      12.787  13.088  -5.287  0.00  0.00     0.018 A 
ATOM     23  C   UNL d   1      12.867  12.280  -5.401  0.00  0.00     0.003 A 
ATOM     24  C   UNL d   1      13.011  11.782  -4.757  0.00  0.00     0.019 A 
ATOM     25  C   UNL d   1      13.076  12.093  -4.001  0.00  0.00     0.080 A 
ENDBRANCH  18  19
ENDBRANCH   1  18
TORSDOF 4
ENDMDL
