MODEL 1
REMARK VINA RESULT:      -4.0      0.000      0.000
REMARK  4 active torsions:
REMARK  status: ('A' for Active; 'I' for Inactive)
REMARK    1  A    between atoms: N_7  and  C_1 
REMARK    2  A    between atoms: S_3  and  N_7 
REMARK    3  A    between atoms: N_8  and  S_3 
REMARK    4  A    between atoms: C_12  and  N_5 
ROOT
ATOM      1  C   UNL d   1     -41.418-122.459 -52.103  0.00  0.00     0.170 A 
ATOM      2  C   UNL d   1     -41.735-123.011 -51.661  0.00  0.00     0.299 A 
ATOM      3  N   UNL d   1     -41.723-121.907 -51.055  0.00  0.00    -0.238 N 
ATOM      4  N   UNL d   1     -41.939-122.635 -50.957  0.00  0.00    -0.209 N 
ATOM      5  C   UNL d   1     -41.373-121.784 -51.821  0.00  0.00     0.105 A 
ATOM      6  O   UNL d   1     -41.849-123.817 -51.852  0.00  0.00    -0.263 OA
ATOM      7  C   UNL d   1     -41.821-121.303 -50.473  0.00  0.00     0.120 C 
ATOM      8  C   UNL d   1     -41.214-121.084 -51.799  0.00  0.00     0.022 C 
ENDROOT
BRANCH   1   9
ATOM      9  N   UNL d   1     -41.123-122.572 -52.875  0.00  0.00    -0.137 NA
BRANCH   9  10
ATOM     10  S   UNL d   1     -41.616-122.451 -53.548  0.00  0.00     0.351 S 
ATOM     11  O   UNL d   1     -42.111-123.109 -53.365  0.00  0.00    -0.180 OA
ATOM     12  O   UNL d   1     -41.123-121.799 -53.725  0.00  0.00    -0.180 OA
BRANCH  10  13
ATOM     13  N   UNL d   1     -42.043-122.253 -54.233  0.00  0.00    -0.215 N 
ATOM     14  C   UNL d   1     -42.882-122.186 -54.201  0.00  0.00     0.093 A 
ATOM     15  C   UNL d   1     -43.305-121.988 -54.889  0.00  0.00     0.020 A 
ATOM     16  C   UNL d   1     -42.902-121.854 -55.612  0.00  0.00     0.003 A 
ATOM     17  C   UNL d   1     -42.070-121.920 -55.643  0.00  0.00     0.020 A 
ATOM     18  C   UNL d   1     -41.634-122.121 -54.949  0.00  0.00     0.093 A 
ENDBRANCH  10  13
ENDBRANCH   9  10
ENDBRANCH   1   9
BRANCH   4  19
ATOM     19  C   UNL d   1     -42.303-122.909 -50.242  0.00  0.00     0.085 A 
ATOM     20  C   UNL d   1     -41.816-123.212 -49.650  0.00  0.00     0.019 A 
ATOM     21  C   UNL d   1     -42.163-123.482 -48.949  0.00  0.00     0.002 A 
ATOM     22  C   UNL d   1     -42.978-123.440 -48.865  0.00  0.00     0.000 A 
ATOM     23  C   UNL d   1     -43.412-123.141 -49.461  0.00  0.00     0.002 A 
ATOM     24  C   UNL d   1     -43.058-122.875 -50.154  0.00  0.00     0.019 A 
ENDBRANCH   4  19
TORSDOF 4
ENDMDL
