MODEL 1
REMARK VINA RESULT:       3.3      0.000      0.000
REMARK  5 active torsions:
REMARK  status: ('A' for Active; 'I' for Inactive)
REMARK    1  A    between atoms: C_13  and  N_2 
REMARK    2  A    between atoms: C_10  and  N_4 
REMARK    3  A    between atoms: C_11  and  C_10 
REMARK       I    between atoms: N_15  and  C_11 
REMARK    4  A    between atoms: C_16  and  N_15 
REMARK    5  A    between atoms: O_21  and  C_19 
ROOT
ATOM      1  C   UNL d   1      58.351   0.354  33.018  0.00  0.00     0.172 A 
ATOM      2  N   UNL d   1      56.954   0.197  32.709  0.00  0.00    -0.226 N 
ATOM      3  C   UNL d   1      57.151   0.223  31.887  0.00  0.00     0.342 A 
ATOM      4  N   UNL d   1      57.929   0.313  31.654  0.00  0.00    -0.252 N 
ATOM      5  C   UNL d   1      58.527   0.378  32.212  0.00  0.00     0.098 A 
ATOM      6  C   UNL d   1      57.560   0.263  33.264  0.00  0.00     0.292 A 
ATOM      7  O   UNL d   1      59.045   0.431  33.448  0.00  0.00    -0.301 OA
ATOM      8  C   UNL d   1      59.341   0.471  32.168  0.00  0.00     0.041 A 
ATOM      9  C   UNL d   1      59.643   0.502  32.928  0.00  0.00     0.102 A 
ATOM     10  O   UNL d   1      56.546   0.157  31.306  0.00  0.00    -0.245 OA
ATOM     11  O   UNL d   1      57.378   0.238  34.080  0.00  0.00    -0.264 OA
ATOM     12  C   UNL d   1      59.851   0.532  31.512  0.00  0.00     0.004 A 
ATOM     13  C   UNL d   1      60.459   0.594  33.048  0.00  0.00     0.025 A 
ATOM     14  C   UNL d   1      60.667   0.624  31.632  0.00  0.00     0.000 A 
ATOM     15  C   UNL d   1      60.953   0.653  32.397  0.00  0.00     0.002 A 
ENDROOT
BRANCH   4  16
ATOM     16  C   UNL d   1      58.125   0.339  30.834  0.00  0.00     0.147 C 
BRANCH  16  17
ATOM     17  C   UNL d   1      58.176  -0.388  30.397  0.00  0.00     0.297 C 
ATOM     18  N   UNL d   1      58.669  -0.437  29.755  0.00  0.00    -0.207 NA
ATOM     19  O   UNL d   1      57.719  -1.032  30.637  0.00  0.00    -0.264 OA
BRANCH  18  20
ATOM     20  C   UNL d   1      58.716  -1.134  29.338  0.00  0.00     0.087 A 
ATOM     21  C   UNL d   1      59.422  -1.577  29.364  0.00  0.00     0.043 A 
ATOM     22  C   UNL d   1      59.477  -2.286  28.943  0.00  0.00     0.096 A 
ATOM     23  C   UNL d   1      58.826  -2.553  28.494  0.00  0.00     0.024 A 
ATOM     24  C   UNL d   1      58.128  -2.108  28.472  0.00  0.00     0.004 A 
ATOM     25  C   UNL d   1      58.076  -1.405  28.892  0.00  0.00     0.019 A 
BRANCH  22  26
ATOM     26  O   UNL d   1      60.181  -2.738  28.962  0.00  0.00    -0.328 OA
ATOM     27  C   UNL d   1      60.169  -3.500  29.277  0.00  0.00     0.181 C 
ENDBRANCH  22  26
ENDBRANCH  18  20
ENDBRANCH  16  17
ENDBRANCH   4  16
BRANCH   2  28
ATOM     28  C   UNL d   1      56.165   0.106  32.962  0.00  0.00     0.071 A 
ATOM     29  C   UNL d   1      55.605   0.682  32.780  0.00  0.00     0.018 A 
ATOM     30  C   UNL d   1      54.818   0.583  33.036  0.00  0.00     0.002 A 
ATOM     31  C   UNL d   1      54.611  -0.075  33.460  0.00  0.00     0.000 A 
ATOM     32  C   UNL d   1      55.171  -0.652  33.642  0.00  0.00     0.002 A 
ATOM     33  C   UNL d   1      55.942  -0.555  33.391  0.00  0.00     0.018 A 
ENDBRANCH   2  28
TORSDOF 5
ENDMDL
MODEL 2
REMARK VINA RESULT:       3.8      1.421      2.124
REMARK  5 active torsions:
REMARK  status: ('A' for Active; 'I' for Inactive)
REMARK    1  A    between atoms: C_13  and  N_2 
REMARK    2  A    between atoms: C_10  and  N_4 
REMARK    3  A    between atoms: C_11  and  C_10 
REMARK       I    between atoms: N_15  and  C_11 
REMARK    4  A    between atoms: C_16  and  N_15 
REMARK    5  A    between atoms: O_21  and  C_19 
ROOT
ATOM      1  C   UNL d   1      58.724  -0.024  31.024  0.00  0.00     0.172 A 
ATOM      2  N   UNL d   1      57.457  -0.605  31.383  0.00  0.00    -0.226 N 
ATOM      3  C   UNL d   1      57.443  -0.994  30.633  0.00  0.00     0.342 A 
ATOM      4  N   UNL d   1      58.058  -0.890  30.105  0.00  0.00    -0.252 N 
ATOM      5  C   UNL d   1      58.695  -0.411  30.295  0.00  0.00     0.098 A 
ATOM      6  C   UNL d   1      58.101  -0.124  31.568  0.00  0.00     0.292 A 
ATOM      7  O   UNL d   1      59.415   0.415  31.069  0.00  0.00    -0.301 OA
ATOM      8  C   UNL d   1      59.383  -0.194  29.904  0.00  0.00     0.041 A 
ATOM      9  C   UNL d   1      59.812   0.309  30.388  0.00  0.00     0.102 A 
ATOM     10  O   UNL d   1      56.794  -1.489  30.427  0.00  0.00    -0.245 OA
ATOM     11  O   UNL d   1      58.127   0.266  32.307  0.00  0.00    -0.264 OA
ATOM     12  C   UNL d   1      59.674  -0.400  29.151  0.00  0.00     0.004 A 
ATOM     13  C   UNL d   1      60.538   0.615  30.129  0.00  0.00     0.025 A 
ATOM     14  C   UNL d   1      60.400  -0.094  28.892  0.00  0.00     0.000 A 
ATOM     15  C   UNL d   1      60.817   0.407  29.386  0.00  0.00     0.002 A 
ENDROOT
BRANCH   4  16
ATOM     16  C   UNL d   1      58.043  -1.279  29.356  0.00  0.00     0.147 C 
BRANCH  16  17
ATOM     17  C   UNL d   1      58.311  -2.083  29.300  0.00  0.00     0.297 C 
ATOM     18  N   UNL d   1      57.933  -2.600  28.803  0.00  0.00    -0.207 NA
ATOM     19  O   UNL d   1      58.955  -2.322  29.757  0.00  0.00    -0.264 OA
BRANCH  18  20
ATOM     20  C   UNL d   1      58.192  -3.369  28.752  0.00  0.00     0.087 A 
ATOM     21  C   UNL d   1      58.986  -3.544  28.935  0.00  0.00     0.043 A 
ATOM     22  C   UNL d   1      59.256  -4.324  28.884  0.00  0.00     0.096 A 
ATOM     23  C   UNL d   1      58.731  -4.929  28.651  0.00  0.00     0.024 A 
ATOM     24  C   UNL d   1      57.943  -4.749  28.471  0.00  0.00     0.004 A 
ATOM     25  C   UNL d   1      57.678  -3.974  28.521  0.00  0.00     0.019 A 
BRANCH  22  26
ATOM     26  O   UNL d   1      60.051  -4.511  29.066  0.00  0.00    -0.328 OA
ATOM     27  C   UNL d   1      60.569  -4.722  28.461  0.00  0.00     0.181 C 
ENDBRANCH  22  26
ENDBRANCH  18  20
ENDBRANCH  16  17
ENDBRANCH   4  16
BRANCH   2  28
ATOM     28  C   UNL d   1      56.838  -0.701  31.932  0.00  0.00     0.071 A 
ATOM     29  C   UNL d   1      56.246  -0.129  31.990  0.00  0.00     0.018 A 
ATOM     30  C   UNL d   1      55.630  -0.233  32.541  0.00  0.00     0.002 A 
ATOM     31  C   UNL d   1      55.617  -0.891  33.013  0.00  0.00     0.000 A 
ATOM     32  C   UNL d   1      56.207  -1.462  32.955  0.00  0.00     0.002 A 
ATOM     33  C   UNL d   1      56.812  -1.361  32.415  0.00  0.00     0.018 A 
ENDBRANCH   2  28
TORSDOF 5
ENDMDL
