MODEL 1
REMARK VINA RESULT:      -1.8      0.000      0.000
REMARK  4 active torsions:
REMARK  status: ('A' for Active; 'I' for Inactive)
REMARK    1  A    between atoms: N_2  and  C_1 
REMARK    2  A    between atoms: C_9  and  C_3 
REMARK    3  A    between atoms: O_15  and  C_9 
REMARK    4  A    between atoms: C_18  and  O_15 
ROOT
ATOM      1  C   UNL d   1      58.630   0.219  30.258  0.00  0.00     0.105 A 
ATOM      2  C   UNL d   1      58.173  -0.469  30.268  0.00  0.00     0.086 A 
ATOM      3  S   UNL d   1      58.403   0.665  30.909  0.00  0.00    -0.069 SA
ATOM      4  C   UNL d   1      57.675  -0.439  30.918  0.00  0.00     0.013 A 
ATOM      5  C   UNL d   1      57.814   0.259  31.316  0.00  0.00     0.031 A 
ATOM      6  C   UNL d   1      57.123  -1.010  31.142  0.00  0.00     0.001 C 
ATOM      7  C   UNL d   1      57.433   0.514  32.002  0.00  0.00     0.007 C 
ENDROOT
BRANCH   1   8
ATOM      8  N   UNL d   1      59.197   0.382  29.680  0.00  0.00    -0.236 N 
ATOM      9  C   UNL d   1      59.114   0.575  28.885  0.00  0.00     0.268 A 
ATOM     10  C   UNL d   1      59.877   0.679  28.574  0.00  0.00     0.066 A 
ATOM     11  O   UNL d   1      58.396   0.652  28.463  0.00  0.00    -0.267 OA
ATOM     12  C   UNL d   1      60.410   0.550  29.182  0.00  0.00     0.066 A 
ATOM     13  C   UNL d   1      59.996   0.368  29.859  0.00  0.00     0.268 A 
ATOM     14  O   UNL d   1      60.321   0.201  30.585  0.00  0.00    -0.267 OA
ENDBRANCH   1   8
BRANCH   2  15
ATOM     15  C   UNL d   1      58.214  -1.087  29.710  0.00  0.00     0.302 C 
ATOM     16  O   UNL d   1      57.758  -1.046  29.012  0.00  0.00    -0.259 OA
BRANCH  15  17
ATOM     17  O   UNL d   1      58.697  -1.724  29.851  0.00  0.00    -0.271 OA
BRANCH  17  18
ATOM     18  C   UNL d   1      58.538  -2.452  29.477  0.00  0.00     0.126 C 
ATOM     19  C   UNL d   1      59.161  -2.958  29.276  0.00  0.00     0.029 C 
ENDBRANCH  17  18
ENDBRANCH  15  17
ENDBRANCH   2  15
TORSDOF 4
ENDMDL
MODEL 2
REMARK VINA RESULT:      -1.5      0.997      2.333
REMARK  4 active torsions:
REMARK  status: ('A' for Active; 'I' for Inactive)
REMARK    1  A    between atoms: N_2  and  C_1 
REMARK    2  A    between atoms: C_9  and  C_3 
REMARK    3  A    between atoms: O_15  and  C_9 
REMARK    4  A    between atoms: C_18  and  O_15 
ROOT
ATOM      1  C   UNL d   1      59.112   0.205  29.722  0.00  0.00     0.105 A 
ATOM      2  C   UNL d   1      59.301  -0.424  29.222  0.00  0.00     0.086 A 
ATOM      3  S   UNL d   1      59.779   0.682  29.766  0.00  0.00    -0.069 SA
ATOM      4  C   UNL d   1      60.074  -0.330  28.966  0.00  0.00     0.013 A 
ATOM      5  C   UNL d   1      60.372   0.352  29.300  0.00  0.00     0.031 A 
ATOM      6  C   UNL d   1      60.490  -0.830  28.459  0.00  0.00     0.001 C 
ATOM      7  C   UNL d   1      61.131   0.658  29.191  0.00  0.00     0.007 C 
ENDROOT
BRANCH   1   8
ATOM      8  N   UNL d   1      58.376   0.295  30.086  0.00  0.00    -0.236 N 
ATOM      9  C   UNL d   1      57.645   0.502  29.775  0.00  0.00     0.268 A 
ATOM     10  C   UNL d   1      57.100   0.506  30.401  0.00  0.00     0.066 A 
ATOM     11  O   UNL d   1      57.475   0.678  28.975  0.00  0.00    -0.267 OA
ATOM     12  C   UNL d   1      57.507   0.301  31.082  0.00  0.00     0.066 A 
ATOM     13  C   UNL d   1      58.287   0.172  30.891  0.00  0.00     0.268 A 
ATOM     14  O   UNL d   1      58.875  -0.042  31.409  0.00  0.00    -0.267 OA
ENDBRANCH   1   8
BRANCH   2  15
ATOM     15  C   UNL d   1      58.790  -1.050  29.015  0.00  0.00     0.302 C 
ATOM     16  O   UNL d   1      58.184  -0.921  28.455  0.00  0.00    -0.259 OA
BRANCH  15  17
ATOM     17  O   UNL d   1      58.887  -1.778  29.359  0.00  0.00    -0.271 OA
BRANCH  17  18
ATOM     18  C   UNL d   1      58.525  -2.447  29.016  0.00  0.00     0.126 C 
ATOM     19  C   UNL d   1      58.784  -3.206  29.218  0.00  0.00     0.029 C 
ENDBRANCH  17  18
ENDBRANCH  15  17
ENDBRANCH   2  15
TORSDOF 4
ENDMDL
MODEL 3
REMARK VINA RESULT:       0.4      2.756      4.281
REMARK  4 active torsions:
REMARK  status: ('A' for Active; 'I' for Inactive)
REMARK    1  A    between atoms: N_2  and  C_1 
REMARK    2  A    between atoms: C_9  and  C_3 
REMARK    3  A    between atoms: O_15  and  C_9 
REMARK    4  A    between atoms: C_18  and  O_15 
ROOT
ATOM      1  C   UNL d   1      56.700  -0.195  33.321  0.00  0.00     0.105 A 
ATOM      2  C   UNL d   1      57.171   0.025  32.679  0.00  0.00     0.086 A 
ATOM      3  S   UNL d   1      57.105   0.028  34.000  0.00  0.00    -0.069 SA
ATOM      4  C   UNL d   1      57.853   0.377  32.967  0.00  0.00     0.013 A 
ATOM      5  C   UNL d   1      57.816   0.380  33.781  0.00  0.00     0.031 A 
ATOM      6  C   UNL d   1      58.477   0.680  32.520  0.00  0.00     0.001 C 
ATOM      7  C   UNL d   1      58.387   0.682  34.295  0.00  0.00     0.007 C 
ENDROOT
BRANCH   1   8
ATOM      8  N   UNL d   1      55.967  -0.567  33.244  0.00  0.00    -0.236 N 
ATOM      9  C   UNL d   1      55.776  -1.355  33.110  0.00  0.00     0.268 A 
ATOM     10  C   UNL d   1      54.948  -1.408  33.083  0.00  0.00     0.066 A 
ATOM     11  O   UNL d   1      56.313  -1.989  33.018  0.00  0.00    -0.267 OA
ATOM     12  C   UNL d   1      54.649  -0.655  33.200  0.00  0.00     0.066 A 
ATOM     13  C   UNL d   1      55.271  -0.139  33.298  0.00  0.00     0.268 A 
ATOM     14  O   UNL d   1      55.210   0.660  33.428  0.00  0.00    -0.267 OA
ENDBRANCH   1   8
BRANCH   2  15
ATOM     15  C   UNL d   1      56.981  -0.091  31.876  0.00  0.00     0.302 C 
ATOM     16  O   UNL d   1      56.371   0.358  31.524  0.00  0.00    -0.259 OA
BRANCH  15  17
ATOM     17  O   UNL d   1      57.392  -0.640  31.443  0.00  0.00    -0.271 OA
BRANCH  17  18
ATOM     18  C   UNL d   1      57.551  -0.495  30.637  0.00  0.00     0.126 C 
ATOM     19  C   UNL d   1      57.802  -1.112  30.147  0.00  0.00     0.029 C 
ENDBRANCH  17  18
ENDBRANCH  15  17
ENDBRANCH   2  15
TORSDOF 4
ENDMDL
