MODEL 1
REMARK VINA RESULT:      -2.7      0.000      0.000
REMARK  4 active torsions:
REMARK  status: ('A' for Active; 'I' for Inactive)
REMARK    1  A    between atoms: C_9  and  C_4 
REMARK    2  A    between atoms: C_7  and  C_11 
REMARK    3  A    between atoms: O_12  and  C_7 
REMARK    4  A    between atoms: C_11  and  C_9 
ROOT
ATOM      1  N   UNL d   1      30.526  16.929 -24.069  0.00  0.00    -0.239 NA
ATOM      2  N   UNL d   1      30.633  15.546 -23.168  0.00  0.00    -0.205 NA
ATOM      3  C   UNL d   1      31.318  15.941 -23.406  0.00  0.00     0.297 A 
ATOM      4  C   UNL d   1      31.265  16.637 -23.860  0.00  0.00     0.139 A 
ATOM      5  C   UNL d   1      29.844  16.534 -23.831  0.00  0.00     0.099 A 
ATOM      6  C   UNL d   1      29.896  15.844 -23.382  0.00  0.00     0.102 A 
ATOM      7  O   UNL d   1      32.062  15.649 -23.196  0.00  0.00    -0.264 OA
ATOM      8  C   UNL d   1      29.103  16.833 -24.045  0.00  0.00     0.021 A 
ATOM      9  C   UNL d   1      29.207  15.453 -23.147  0.00  0.00     0.021 A 
ATOM     10  C   UNL d   1      28.470  15.751 -23.361  0.00  0.00     0.002 A 
ATOM     11  C   UNL d   1      28.419  16.441 -23.810  0.00  0.00     0.002 A 
ENDROOT
BRANCH   4  12
ATOM     12  C   UNL d   1      31.951  17.028 -24.095  0.00  0.00     0.029 C 
BRANCH  12  13
ATOM     13  C   UNL d   1      31.943  17.841 -24.212  0.00  0.00     0.070 C 
BRANCH  13  14
ATOM     14  C   UNL d   1      32.643  18.231 -24.421  0.00  0.00     0.296 C 
ATOM     15  O   UNL d   1      33.061  18.008 -25.096  0.00  0.00    -0.259 OA
BRANCH  14  16
ATOM     16  O   UNL d   1      32.924  18.852 -23.946  0.00  0.00    -0.296 OA
ATOM     17  C   UNL d   1      33.241  19.529 -24.296  0.00  0.00     0.185 C 
ENDBRANCH  14  16
ENDBRANCH  13  14
ENDBRANCH  12  13
ENDBRANCH   4  12
TORSDOF 4
ENDMDL
MODEL 2
REMARK VINA RESULT:      -2.4      2.608      4.887
REMARK  4 active torsions:
REMARK  status: ('A' for Active; 'I' for Inactive)
REMARK    1  A    between atoms: C_9  and  C_4 
REMARK    2  A    between atoms: C_7  and  C_11 
REMARK    3  A    between atoms: O_12  and  C_7 
REMARK    4  A    between atoms: C_11  and  C_9 
ROOT
ATOM      1  N   UNL d   1      33.022  19.469 -22.255  0.00  0.00    -0.239 NA
ATOM      2  N   UNL d   1      33.235  20.839 -23.157  0.00  0.00    -0.205 NA
ATOM      3  C   UNL d   1      33.179  20.103 -23.526  0.00  0.00     0.297 A 
ATOM      4  C   UNL d   1      33.072  19.412 -23.073  0.00  0.00     0.139 A 
ATOM      5  C   UNL d   1      33.079  20.203 -21.888  0.00  0.00     0.099 A 
ATOM      6  C   UNL d   1      33.185  20.887 -22.336  0.00  0.00     0.102 A 
ATOM      7  O   UNL d   1      33.228  20.045 -24.349  0.00  0.00    -0.264 OA
ATOM      8  C   UNL d   1      33.028  20.253 -21.064  0.00  0.00     0.021 A 
ATOM      9  C   UNL d   1      33.240  21.622 -21.960  0.00  0.00     0.021 A 
ATOM     10  C   UNL d   1      33.190  21.669 -21.140  0.00  0.00     0.002 A 
ATOM     11  C   UNL d   1      33.084  20.985 -20.692  0.00  0.00     0.002 A 
ENDROOT
BRANCH   4  12
ATOM     12  C   UNL d   1      33.016  18.680 -23.446  0.00  0.00     0.029 C 
BRANCH  12  13
ATOM     13  C   UNL d   1      32.681  18.042 -23.054  0.00  0.00     0.070 C 
BRANCH  13  14
ATOM     14  C   UNL d   1      32.584  17.322 -23.452  0.00  0.00     0.296 C 
ATOM     15  O   UNL d   1      33.239  16.904 -23.728  0.00  0.00    -0.259 OA
BRANCH  14  16
ATOM     16  O   UNL d   1      31.820  17.020 -23.574  0.00  0.00    -0.296 OA
ATOM     17  C   UNL d   1      31.698  16.204 -23.604  0.00  0.00     0.185 C 
ENDBRANCH  14  16
ENDBRANCH  13  14
ENDBRANCH  12  13
ENDBRANCH   4  12
TORSDOF 4
ENDMDL
MODEL 3
REMARK VINA RESULT:      -2.2      6.394      8.000
REMARK  4 active torsions:
REMARK  status: ('A' for Active; 'I' for Inactive)
REMARK    1  A    between atoms: C_9  and  C_4 
REMARK    2  A    between atoms: C_7  and  C_11 
REMARK    3  A    between atoms: O_12  and  C_7 
REMARK    4  A    between atoms: C_11  and  C_9 
ROOT
ATOM      1  N   UNL d   1      33.104  22.283 -18.853  0.00  0.00    -0.239 NA
ATOM      2  N   UNL d   1      32.259  23.702 -18.770  0.00  0.00    -0.205 NA
ATOM      3  C   UNL d   1      32.402  23.347 -19.500  0.00  0.00     0.297 A 
ATOM      4  C   UNL d   1      32.828  22.632 -19.544  0.00  0.00     0.139 A 
ATOM      5  C   UNL d   1      32.960  22.638 -18.126  0.00  0.00     0.099 A 
ATOM      6  C   UNL d   1      32.539  23.346 -18.082  0.00  0.00     0.102 A 
ATOM      7  O   UNL d   1      32.125  23.697 -20.196  0.00  0.00    -0.264 OA
ATOM      8  C   UNL d   1      33.241  22.281 -17.434  0.00  0.00     0.021 A 
ATOM      9  C   UNL d   1      32.399  23.698 -17.347  0.00  0.00     0.021 A 
ATOM     10  C   UNL d   1      32.679  23.342 -16.660  0.00  0.00     0.002 A 
ATOM     11  C   UNL d   1      33.100  22.633 -16.703  0.00  0.00     0.002 A 
ENDROOT
BRANCH   4  12
ATOM     12  C   UNL d   1      32.968  22.281 -20.276  0.00  0.00     0.029 C 
BRANCH  12  13
ATOM     13  C   UNL d   1      32.815  21.482 -20.386  0.00  0.00     0.070 C 
BRANCH  13  14
ATOM     14  C   UNL d   1      32.976  21.132 -21.119  0.00  0.00     0.296 C 
ATOM     15  O   UNL d   1      33.104  21.597 -21.788  0.00  0.00    -0.259 OA
BRANCH  14  16
ATOM     16  O   UNL d   1      33.009  20.304 -21.180  0.00  0.00    -0.296 OA
ATOM     17  C   UNL d   1      33.101  19.947 -21.918  0.00  0.00     0.185 C 
ENDBRANCH  14  16
ENDBRANCH  13  14
ENDBRANCH  12  13
ENDBRANCH   4  12
TORSDOF 4
ENDMDL
MODEL 4
REMARK VINA RESULT:      -2.1      1.973      2.978
REMARK  4 active torsions:
REMARK  status: ('A' for Active; 'I' for Inactive)
REMARK    1  A    between atoms: C_9  and  C_4 
REMARK    2  A    between atoms: C_7  and  C_11 
REMARK    3  A    between atoms: O_12  and  C_7 
REMARK    4  A    between atoms: C_11  and  C_9 
ROOT
ATOM      1  N   UNL d   1      32.341  17.852 -23.359  0.00  0.00    -0.239 NA
ATOM      2  N   UNL d   1      32.391  17.850 -25.012  0.00  0.00    -0.205 NA
ATOM      3  C   UNL d   1      32.727  18.472 -24.588  0.00  0.00     0.297 A 
ATOM      4  C   UNL d   1      32.703  18.475 -23.755  0.00  0.00     0.139 A 
ATOM      5  C   UNL d   1      32.007  17.232 -23.784  0.00  0.00     0.099 A 
ATOM      6  C   UNL d   1      32.031  17.229 -24.608  0.00  0.00     0.102 A 
ATOM      7  O   UNL d   1      33.092  19.100 -24.984  0.00  0.00    -0.264 OA
ATOM      8  C   UNL d   1      31.644  16.608 -23.379  0.00  0.00     0.021 A 
ATOM      9  C   UNL d   1      31.692  16.603 -25.028  0.00  0.00     0.021 A 
ATOM     10  C   UNL d   1      31.332  15.983 -24.624  0.00  0.00     0.002 A 
ATOM     11  C   UNL d   1      31.308  15.986 -23.800  0.00  0.00     0.002 A 
ENDROOT
BRANCH   4  12
ATOM     12  C   UNL d   1      33.040  19.099 -23.335  0.00  0.00     0.029 C 
BRANCH  12  13
ATOM     13  C   UNL d   1      32.871  19.198 -22.538  0.00  0.00     0.070 C 
BRANCH  13  14
ATOM     14  C   UNL d   1      33.114  19.889 -22.151  0.00  0.00     0.296 C 
ATOM     15  O   UNL d   1      33.241  20.585 -22.576  0.00  0.00    -0.259 OA
BRANCH  14  16
ATOM     16  O   UNL d   1      33.232  19.879 -21.329  0.00  0.00    -0.296 OA
ATOM     17  C   UNL d   1      33.178  20.579 -20.895  0.00  0.00     0.185 C 
ENDBRANCH  14  16
ENDBRANCH  13  14
ENDBRANCH  12  13
ENDBRANCH   4  12
TORSDOF 4
ENDMDL
MODEL 5
REMARK VINA RESULT:      -2.0      4.150      6.339
REMARK  4 active torsions:
REMARK  status: ('A' for Active; 'I' for Inactive)
REMARK    1  A    between atoms: C_9  and  C_4 
REMARK    2  A    between atoms: C_7  and  C_11 
REMARK    3  A    between atoms: O_12  and  C_7 
REMARK    4  A    between atoms: C_11  and  C_9 
ROOT
ATOM      1  N   UNL d   1      32.976  21.559 -21.366  0.00  0.00    -0.239 NA
ATOM      2  N   UNL d   1      32.883  23.019 -22.137  0.00  0.00    -0.205 NA
ATOM      3  C   UNL d   1      33.038  22.332 -22.567  0.00  0.00     0.297 A 
ATOM      4  C   UNL d   1      33.086  21.595 -22.180  0.00  0.00     0.139 A 
ATOM      5  C   UNL d   1      32.821  22.245 -20.939  0.00  0.00     0.099 A 
ATOM      6  C   UNL d   1      32.774  22.974 -21.322  0.00  0.00     0.102 A 
ATOM      7  O   UNL d   1      33.149  22.367 -23.385  0.00  0.00    -0.264 OA
ATOM      8  C   UNL d   1      32.712  22.201 -20.120  0.00  0.00     0.021 A 
ATOM      9  C   UNL d   1      32.618  23.659 -20.887  0.00  0.00     0.021 A 
ATOM     10  C   UNL d   1      32.510  23.614 -20.072  0.00  0.00     0.002 A 
ATOM     11  C   UNL d   1      32.557  22.885 -19.689  0.00  0.00     0.002 A 
ENDROOT
BRANCH   4  12
ATOM     12  C   UNL d   1      33.241  20.912 -22.612  0.00  0.00     0.029 C 
BRANCH  12  13
ATOM     13  C   UNL d   1      33.064  20.175 -22.297  0.00  0.00     0.070 C 
BRANCH  13  14
ATOM     14  C   UNL d   1      33.180  19.495 -22.755  0.00  0.00     0.296 C 
ATOM     15  O   UNL d   1      33.241  19.548 -23.576  0.00  0.00    -0.259 OA
BRANCH  14  16
ATOM     16  O   UNL d   1      33.234  18.754 -22.384  0.00  0.00    -0.296 OA
ATOM     17  C   UNL d   1      33.145  18.063 -22.825  0.00  0.00     0.185 C 
ENDBRANCH  14  16
ENDBRANCH  13  14
ENDBRANCH  12  13
ENDBRANCH   4  12
TORSDOF 4
ENDMDL
MODEL 6
REMARK VINA RESULT:      -1.9      1.750      3.930
REMARK  4 active torsions:
REMARK  status: ('A' for Active; 'I' for Inactive)
REMARK    1  A    between atoms: C_9  and  C_4 
REMARK    2  A    between atoms: C_7  and  C_11 
REMARK    3  A    between atoms: O_12  and  C_7 
REMARK    4  A    between atoms: C_11  and  C_9 
ROOT
ATOM      1  N   UNL d   1      31.243  16.565 -23.893  0.00  0.00    -0.239 NA
ATOM      2  N   UNL d   1      31.427  18.130 -24.394  0.00  0.00    -0.205 NA
ATOM      3  C   UNL d   1      30.762  17.698 -24.619  0.00  0.00     0.297 A 
ATOM      4  C   UNL d   1      30.667  16.909 -24.368  0.00  0.00     0.139 A 
ATOM      5  C   UNL d   1      31.906  16.997 -23.669  0.00  0.00     0.099 A 
ATOM      6  C   UNL d   1      32.000  17.778 -23.918  0.00  0.00     0.102 A 
ATOM      7  O   UNL d   1      30.181  18.043 -25.097  0.00  0.00    -0.264 OA
ATOM      8  C   UNL d   1      32.482  16.644 -23.191  0.00  0.00     0.021 A 
ATOM      9  C   UNL d   1      32.669  18.206 -23.690  0.00  0.00     0.021 A 
ATOM     10  C   UNL d   1      33.241  17.854 -23.214  0.00  0.00     0.002 A 
ATOM     11  C   UNL d   1      33.147  17.073 -22.965  0.00  0.00     0.002 A 
ENDROOT
BRANCH   4  12
ATOM     12  C   UNL d   1      30.001  16.481 -24.594  0.00  0.00     0.029 C 
BRANCH  12  13
ATOM     13  C   UNL d   1      29.662  15.942 -24.078  0.00  0.00     0.070 C 
BRANCH  13  14
ATOM     14  C   UNL d   1      28.862  15.744 -24.159  0.00  0.00     0.296 C 
ATOM     15  O   UNL d   1      28.572  15.454 -24.875  0.00  0.00    -0.259 OA
BRANCH  14  16
ATOM     16  O   UNL d   1      28.347  15.839 -23.514  0.00  0.00    -0.296 OA
ATOM     17  C   UNL d   1      27.567  15.578 -23.565  0.00  0.00     0.185 C 
ENDBRANCH  14  16
ENDBRANCH  13  14
ENDBRANCH  12  13
ENDBRANCH   4  12
TORSDOF 4
ENDMDL
MODEL 7
REMARK VINA RESULT:      -1.7      1.604      4.175
REMARK  4 active torsions:
REMARK  status: ('A' for Active; 'I' for Inactive)
REMARK    1  A    between atoms: C_9  and  C_4 
REMARK    2  A    between atoms: C_7  and  C_11 
REMARK    3  A    between atoms: O_12  and  C_7 
REMARK    4  A    between atoms: C_11  and  C_9 
ROOT
ATOM      1  N   UNL d   1      32.616  18.209 -22.889  0.00  0.00    -0.239 NA
ATOM      2  N   UNL d   1      32.938  19.209 -24.168  0.00  0.00    -0.205 NA
ATOM      3  C   UNL d   1      32.730  18.421 -24.298  0.00  0.00     0.297 A 
ATOM      4  C   UNL d   1      32.568  17.916 -23.656  0.00  0.00     0.139 A 
ATOM      5  C   UNL d   1      32.824  18.995 -22.761  0.00  0.00     0.099 A 
ATOM      6  C   UNL d   1      32.985  19.495 -23.397  0.00  0.00     0.102 A 
ATOM      7  O   UNL d   1      32.681  18.124 -25.069  0.00  0.00    -0.264 OA
ATOM      8  C   UNL d   1      32.871  19.283 -21.986  0.00  0.00     0.021 A 
ATOM      9  C   UNL d   1      33.192  20.283 -23.259  0.00  0.00     0.021 A 
ATOM     10  C   UNL d   1      33.239  20.569 -22.489  0.00  0.00     0.002 A 
ATOM     11  C   UNL d   1      33.078  20.069 -21.853  0.00  0.00     0.002 A 
ENDROOT
BRANCH   4  12
ATOM     12  C   UNL d   1      32.361  17.131 -23.791  0.00  0.00     0.029 C 
BRANCH  12  13
ATOM     13  C   UNL d   1      31.655  16.834 -23.496  0.00  0.00     0.070 C 
BRANCH  13  14
ATOM     14  C   UNL d   1      31.516  16.018 -23.512  0.00  0.00     0.296 C 
ATOM     15  O   UNL d   1      32.014  15.515 -23.937  0.00  0.00    -0.259 OA
BRANCH  14  16
ATOM     16  O   UNL d   1      30.869  15.703 -23.097  0.00  0.00    -0.296 OA
ATOM     17  C   UNL d   1      30.187  15.477 -23.503  0.00  0.00     0.185 C 
ENDBRANCH  14  16
ENDBRANCH  13  14
ENDBRANCH  12  13
ENDBRANCH   4  12
TORSDOF 4
ENDMDL
