MODEL 1
REMARK VINA RESULT:      36.6      0.000      0.000
REMARK  2 active torsions:
REMARK  status: ('A' for Active; 'I' for Inactive)
REMARK    1  A    between atoms: N_2  and  S_1 
REMARK    2  A    between atoms: C_3  and  S_1 
ROOT
ATOM      1  C   UNL d   1     -51.720  26.016  33.427  0.00  0.00     0.104 A 
ATOM      2  O   UNL d   1     -50.428  28.122  33.446  0.00  0.00    -0.273 OA
ATOM      3  C   UNL d   1     -49.603  28.106  33.571  0.00  0.00     0.300 A 
ATOM      4  C   UNL d   1     -50.476  26.696  33.557  0.00  0.00     0.024 A 
ATOM      5  C   UNL d   1     -50.859  27.420  33.439  0.00  0.00     0.103 A 
ATOM      6  C   UNL d   1     -49.651  26.672  33.684  0.00  0.00     0.007 A 
ATOM      7  C   UNL d   1     -50.907  25.995  33.551  0.00  0.00     0.015 A 
ATOM      8  C   UNL d   1     -49.220  27.382  33.689  0.00  0.00     0.069 A 
ATOM      9  C   UNL d   1     -52.103  26.741  33.308  0.00  0.00     0.015 A 
ATOM     10  O   UNL d   1     -49.176  28.814  33.577  0.00  0.00    -0.259 OA
ATOM     11  C   UNL d   1     -51.672  27.442  33.315  0.00  0.00     0.025 A 
ENDROOT
BRANCH   1  12
ATOM     12  S   UNL d   1     -52.154  25.320  33.419  0.00  0.00     0.272 S 
ATOM     13  O   UNL d   1     -52.856  25.747  33.488  0.00  0.00    -0.200 OA
ATOM     14  O   UNL d   1     -51.457  24.884  33.351  0.00  0.00    -0.200 OA
BRANCH  12  15
ATOM     15  N   UNL d   1     -52.589  24.616  33.412  0.00  0.00    -0.225 N 
ATOM     16  C   UNL d   1     -52.201  23.890  33.313  0.00  0.00     0.118 A 
ATOM     17  C   UNL d   1     -52.632  23.190  33.306  0.00  0.00     0.142 A 
ATOM     18  O   UNL d   1     -53.453  23.200  33.396  0.00  0.00    -0.300 OA
ATOM     19  C   UNL d   1     -53.843  23.930  33.495  0.00  0.00     0.142 A 
ATOM     20  C   UNL d   1     -53.414  24.634  33.503  0.00  0.00     0.118 A 
ENDBRANCH  12  15
ENDBRANCH   1  12
TORSDOF 2
ENDMDL
MODEL 2
REMARK VINA RESULT:      38.0      1.246      4.289
REMARK  2 active torsions:
REMARK  status: ('A' for Active; 'I' for Inactive)
REMARK    1  A    between atoms: N_2  and  S_1 
REMARK    2  A    between atoms: C_3  and  S_1 
ROOT
ATOM      1  C   UNL d   1     -51.099  25.850  33.450  0.00  0.00     0.104 A 
ATOM      2  O   UNL d   1     -52.495  23.814  33.361  0.00  0.00    -0.273 OA
ATOM      3  C   UNL d   1     -53.327  23.876  33.336  0.00  0.00     0.300 A 
ATOM      4  C   UNL d   1     -52.384  25.240  33.396  0.00  0.00     0.024 A 
ATOM      5  C   UNL d   1     -52.029  24.492  33.391  0.00  0.00     0.103 A 
ATOM      6  C   UNL d   1     -53.216  25.311  33.372  0.00  0.00     0.007 A 
ATOM      7  C   UNL d   1     -51.919  25.918  33.426  0.00  0.00     0.015 A 
ATOM      8  C   UNL d   1     -53.682  24.624  33.342  0.00  0.00     0.069 A 
ATOM      9  C   UNL d   1     -50.744  25.102  33.444  0.00  0.00     0.015 A 
ATOM     10  O   UNL d   1     -53.789  23.191  33.307  0.00  0.00    -0.259 OA
ATOM     11  C   UNL d   1     -51.209  24.424  33.415  0.00  0.00     0.025 A 
ENDROOT
BRANCH   1  12
ATOM     12  S   UNL d   1     -50.631  26.523  33.479  0.00  0.00     0.272 S 
ATOM     13  O   UNL d   1     -49.949  26.062  33.425  0.00  0.00    -0.200 OA
ATOM     14  O   UNL d   1     -51.307  26.993  33.534  0.00  0.00    -0.200 OA
BRANCH  12  15
ATOM     15  N   UNL d   1     -50.161  27.203  33.509  0.00  0.00    -0.225 N 
ATOM     16  C   UNL d   1     -49.367  27.148  33.741  0.00  0.00     0.118 A 
ATOM     17  C   UNL d   1     -48.898  27.823  33.772  0.00  0.00     0.142 A 
ATOM     18  O   UNL d   1     -49.210  28.561  33.573  0.00  0.00    -0.300 OA
ATOM     19  C   UNL d   1     -50.008  28.617  33.340  0.00  0.00     0.142 A 
ATOM     20  C   UNL d   1     -50.481  27.942  33.308  0.00  0.00     0.118 A 
ENDBRANCH  12  15
ENDBRANCH   1  12
TORSDOF 2
ENDMDL
MODEL 3
REMARK VINA RESULT:      39.5      1.171      4.183
REMARK  2 active torsions:
REMARK  status: ('A' for Active; 'I' for Inactive)
REMARK    1  A    between atoms: N_2  and  S_1 
REMARK    2  A    between atoms: C_3  and  S_1 
ROOT
ATOM      1  C   UNL d   1     -51.500  26.065  33.553  0.00  0.00     0.104 A 
ATOM      2  O   UNL d   1     -53.425  24.521  33.442  0.00  0.00    -0.273 OA
ATOM      3  C   UNL d   1     -53.300  23.701  33.356  0.00  0.00     0.300 A 
ATOM      4  C   UNL d   1     -52.012  24.742  33.431  0.00  0.00     0.024 A 
ATOM      5  C   UNL d   1     -52.784  25.036  33.479  0.00  0.00     0.103 A 
ATOM      6  C   UNL d   1     -51.878  23.922  33.345  0.00  0.00     0.007 A 
ATOM      7  C   UNL d   1     -51.370  25.256  33.468  0.00  0.00     0.015 A 
ATOM      8  C   UNL d   1     -52.528  23.406  33.308  0.00  0.00     0.069 A 
ATOM      9  C   UNL d   1     -52.272  26.359  33.600  0.00  0.00     0.015 A 
ATOM     10  O   UNL d   1     -53.949  23.189  33.320  0.00  0.00    -0.259 OA
ATOM     11  C   UNL d   1     -52.913  25.844  33.563  0.00  0.00     0.025 A 
ENDROOT
BRANCH   1  12
ATOM     12  S   UNL d   1     -50.863  26.581  33.590  0.00  0.00     0.272 S 
ATOM     13  O   UNL d   1     -51.345  27.205  33.347  0.00  0.00    -0.200 OA
ATOM     14  O   UNL d   1     -50.373  25.964  33.833  0.00  0.00    -0.200 OA
BRANCH  12  15
ATOM     15  N   UNL d   1     -50.220  27.101  33.628  0.00  0.00    -0.225 N 
ATOM     16  C   UNL d   1     -50.311  27.890  33.390  0.00  0.00     0.118 A 
ATOM     17  C   UNL d   1     -49.673  28.407  33.427  0.00  0.00     0.142 A 
ATOM     18  O   UNL d   1     -48.938  28.150  33.701  0.00  0.00    -0.300 OA
ATOM     19  C   UNL d   1     -48.846  27.357  33.940  0.00  0.00     0.142 A 
ATOM     20  C   UNL d   1     -49.484  26.835  33.904  0.00  0.00     0.118 A 
ENDBRANCH  12  15
ENDBRANCH   1  12
TORSDOF 2
ENDMDL
