MODEL 1
REMARK VINA RESULT:      -6.6      0.000      0.000
REMARK  7 active torsions:
REMARK  status: ('A' for Active; 'I' for Inactive)
REMARK    1  A    between atoms: C_13  and  C_4 
REMARK    2  A    between atoms: N_16  and  C_6 
REMARK    3  A    between atoms: C_17  and  C_9 
REMARK    4  A    between atoms: N_11  and  C_19 
REMARK    5  A    between atoms: C_21  and  N_16 
REMARK    6  A    between atoms: C_19  and  C_20 
REMARK    7  A    between atoms: C_20  and  C_21 
ROOT
ATOM      1  C   UNL d   1     -48.191  13.178  23.069  0.00  0.00     0.168 A 
ATOM      2  N   UNL d   1     -47.609  12.619  23.261  0.00  0.00    -0.184 N 
ATOM      3  N   UNL d   1     -46.621  13.638  23.230  0.00  0.00    -0.162 NA
ATOM      4  C   UNL d   1     -47.986  13.950  22.962  0.00  0.00     0.055 A 
ATOM      5  N   UNL d   1     -48.968  12.937  22.992  0.00  0.00    -0.227 NA
ATOM      6  C   UNL d   1     -47.826  11.841  23.368  0.00  0.00     0.218 A 
ATOM      7  C   UNL d   1     -47.202  14.197  23.039  0.00  0.00     0.104 A 
ATOM      8  C   UNL d   1     -48.631  11.603  23.286  0.00  0.00     0.071 A 
ATOM      9  C   UNL d   1     -49.177  12.162  23.100  0.00  0.00     0.087 A 
ATOM     10  C   UNL d   1     -47.000  14.966  22.931  0.00  0.00     0.023 C 
ENDROOT
BRANCH   6  11
ATOM     11  N   UNL d   1     -47.232  11.265  23.564  0.00  0.00    -0.380 NA
BRANCH  11  12
ATOM     12  C   UNL d   1     -46.657  10.656  23.698  0.00  0.00     0.164 C 
BRANCH  12  13
ATOM     13  C   UNL d   1     -45.913  10.701  23.309  0.00  0.00     0.054 C 
BRANCH  13  14
ATOM     14  C   UNL d   1     -45.227  10.380  23.684  0.00  0.00     0.084 C 
BRANCH  14  15
ATOM     15  N   UNL d   1     -44.451  10.590  23.401  0.00  0.00    -0.285 N 
ATOM     16  C   UNL d   1     -44.230  11.322  23.048  0.00  0.00     0.183 A 
ATOM     17  N   UNL d   1     -43.402  11.285  22.853  0.00  0.00    -0.222 NA
ATOM     18  C   UNL d   1     -43.116  10.523  23.089  0.00  0.00     0.120 A 
ATOM     19  C   UNL d   1     -43.760  10.095  23.427  0.00  0.00     0.102 A 
ENDBRANCH  14  15
ENDBRANCH  13  14
ENDBRANCH  12  13
ENDBRANCH  11  12
ENDBRANCH   6  11
BRANCH   9  20
ATOM     20  C   UNL d   1     -49.996  11.914  23.018  0.00  0.00     0.018 C 
ATOM     21  C   UNL d   1     -50.524  11.972  23.697  0.00  0.00     0.002 C 
ATOM     22  C   UNL d   1     -50.284  11.614  22.268  0.00  0.00     0.002 C 
ENDBRANCH   9  20
BRANCH   4  23
ATOM     23  C   UNL d   1     -48.573  14.514  22.769  0.00  0.00     0.004 A 
ATOM     24  C   UNL d   1     -48.953  14.924  23.363  0.00  0.00     0.000 A 
ATOM     25  C   UNL d   1     -49.532  15.480  23.173  0.00  0.00     0.000 A 
ATOM     26  C   UNL d   1     -49.719  15.614  22.392  0.00  0.00     0.000 A 
ATOM     27  C   UNL d   1     -49.332  15.197  21.795  0.00  0.00     0.000 A 
ATOM     28  C   UNL d   1     -48.764  14.652  21.992  0.00  0.00     0.000 A 
ENDBRANCH   4  23
TORSDOF 7
ENDMDL
MODEL 2
REMARK VINA RESULT:      -6.1      0.976      2.263
REMARK  7 active torsions:
REMARK  status: ('A' for Active; 'I' for Inactive)
REMARK    1  A    between atoms: C_13  and  C_4 
REMARK    2  A    between atoms: N_16  and  C_6 
REMARK    3  A    between atoms: C_17  and  C_9 
REMARK    4  A    between atoms: N_11  and  C_19 
REMARK    5  A    between atoms: C_21  and  N_16 
REMARK    6  A    between atoms: C_19  and  C_20 
REMARK    7  A    between atoms: C_20  and  C_21 
ROOT
ATOM      1  C   UNL d   1     -48.890  12.970  23.108  0.00  0.00     0.168 A 
ATOM      2  N   UNL d   1     -48.430  12.309  23.307  0.00  0.00    -0.184 N 
ATOM      3  N   UNL d   1     -49.610  11.571  23.587  0.00  0.00    -0.162 NA
ATOM      4  C   UNL d   1     -49.693  12.926  23.150  0.00  0.00     0.055 A 
ATOM      5  N   UNL d   1     -48.521  13.659  22.872  0.00  0.00    -0.227 NA
ATOM      6  C   UNL d   1     -47.617  12.363  23.262  0.00  0.00     0.218 A 
ATOM      7  C   UNL d   1     -50.070  12.231  23.389  0.00  0.00     0.104 A 
ATOM      8  C   UNL d   1     -47.246  13.079  23.016  0.00  0.00     0.071 A 
ATOM      9  C   UNL d   1     -47.713  13.706  22.829  0.00  0.00     0.087 A 
ATOM     10  C   UNL d   1     -50.870  12.189  23.430  0.00  0.00     0.023 C 
ENDROOT
BRANCH   6  11
ATOM     11  N   UNL d   1     -47.142  11.689  23.465  0.00  0.00    -0.380 NA
BRANCH  11  12
ATOM     12  C   UNL d   1     -46.728  10.986  23.698  0.00  0.00     0.164 C 
BRANCH  12  13
ATOM     13  C   UNL d   1     -46.049  10.746  23.264  0.00  0.00     0.054 C 
BRANCH  13  14
ATOM     14  C   UNL d   1     -45.421  10.342  23.661  0.00  0.00     0.084 C 
BRANCH  14  15
ATOM     15  N   UNL d   1     -44.611  10.515  23.461  0.00  0.00    -0.285 N 
ATOM     16  C   UNL d   1     -44.339  11.162  22.996  0.00  0.00     0.183 A 
ATOM     17  N   UNL d   1     -43.491  11.113  22.941  0.00  0.00    -0.222 NA
ATOM     18  C   UNL d   1     -43.244  10.430  23.378  0.00  0.00     0.120 A 
ATOM     19  C   UNL d   1     -43.932  10.062  23.698  0.00  0.00     0.102 A 
ENDBRANCH  14  15
ENDBRANCH  13  14
ENDBRANCH  12  13
ENDBRANCH  11  12
ENDBRANCH   6  11
BRANCH   9  20
ATOM     20  C   UNL d   1     -47.330  14.434  22.579  0.00  0.00     0.018 C 
ATOM     21  C   UNL d   1     -46.804  14.843  23.127  0.00  0.00     0.002 C 
ATOM     22  C   UNL d   1     -47.469  14.749  21.794  0.00  0.00     0.002 C 
ENDBRANCH   9  20
BRANCH   4  23
ATOM     23  C   UNL d   1     -50.158  13.592  22.949  0.00  0.00     0.004 A 
ATOM     24  C   UNL d   1     -50.456  13.667  22.193  0.00  0.00     0.000 A 
ATOM     25  C   UNL d   1     -50.914  14.324  21.995  0.00  0.00     0.000 A 
ATOM     26  C   UNL d   1     -51.064  14.892  22.558  0.00  0.00     0.000 A 
ATOM     27  C   UNL d   1     -50.762  14.812  23.320  0.00  0.00     0.000 A 
ATOM     28  C   UNL d   1     -50.312  14.163  23.506  0.00  0.00     0.000 A 
ENDBRANCH   4  23
TORSDOF 7
ENDMDL
MODEL 3
REMARK VINA RESULT:      -5.2      1.139      1.410
REMARK  7 active torsions:
REMARK  status: ('A' for Active; 'I' for Inactive)
REMARK    1  A    between atoms: C_13  and  C_4 
REMARK    2  A    between atoms: N_16  and  C_6 
REMARK    3  A    between atoms: C_17  and  C_9 
REMARK    4  A    between atoms: N_11  and  C_19 
REMARK    5  A    between atoms: C_21  and  N_16 
REMARK    6  A    between atoms: C_19  and  C_20 
REMARK    7  A    between atoms: C_20  and  C_21 
ROOT
ATOM      1  C   UNL d   1     -48.560  13.585  22.836  0.00  0.00     0.168 A 
ATOM      2  N   UNL d   1     -47.788  13.317  22.977  0.00  0.00    -0.184 N 
ATOM      3  N   UNL d   1     -47.305  14.647  22.855  0.00  0.00    -0.162 NA
ATOM      4  C   UNL d   1     -48.696  14.369  22.708  0.00  0.00     0.055 A 
ATOM      5  N   UNL d   1     -49.176  13.048  22.829  0.00  0.00    -0.227 NA
ATOM      6  C   UNL d   1     -47.661  12.522  23.105  0.00  0.00     0.218 A 
ATOM      7  C   UNL d   1     -48.077  14.915  22.714  0.00  0.00     0.104 A 
ATOM      8  C   UNL d   1     -48.303  11.976  23.096  0.00  0.00     0.071 A 
ATOM      9  C   UNL d   1     -49.042  12.259  22.958  0.00  0.00     0.087 A 
ATOM     10  C   UNL d   1     -48.214  15.695  22.586  0.00  0.00     0.023 C 
ENDROOT
BRANCH   6  11
ATOM     11  N   UNL d   1     -46.871  12.244  23.250  0.00  0.00    -0.380 NA
BRANCH  11  12
ATOM     12  C   UNL d   1     -46.060  12.012  23.342  0.00  0.00     0.164 C 
BRANCH  12  13
ATOM     13  C   UNL d   1     -45.541  12.063  22.683  0.00  0.00     0.054 C 
BRANCH  13  14
ATOM     14  C   UNL d   1     -44.716  11.910  22.789  0.00  0.00     0.084 C 
BRANCH  14  15
ATOM     15  N   UNL d   1     -44.151  12.225  22.234  0.00  0.00    -0.285 N 
ATOM     16  C   UNL d   1     -43.343  11.999  22.163  0.00  0.00     0.183 A 
ATOM     17  N   UNL d   1     -42.992  12.458  21.538  0.00  0.00    -0.222 NA
ATOM     18  C   UNL d   1     -43.592  12.968  21.225  0.00  0.00     0.120 A 
ATOM     19  C   UNL d   1     -44.305  12.825  21.653  0.00  0.00     0.102 A 
ENDBRANCH  14  15
ENDBRANCH  13  14
ENDBRANCH  12  13
ENDBRANCH  11  12
ENDBRANCH   6  11
BRANCH   9  20
ATOM     20  C   UNL d   1     -49.694  11.699  22.949  0.00  0.00     0.018 C 
ATOM     21  C   UNL d   1     -50.033  11.435  23.698  0.00  0.00     0.002 C 
ATOM     22  C   UNL d   1     -50.003  11.405  22.206  0.00  0.00     0.002 C 
ENDBRANCH   9  20
BRANCH   4  23
ATOM     23  C   UNL d   1     -49.475  14.639  22.566  0.00  0.00     0.004 A 
ATOM     24  C   UNL d   1     -49.923  14.929  23.184  0.00  0.00     0.000 A 
ATOM     25  C   UNL d   1     -50.691  15.195  23.044  0.00  0.00     0.000 A 
ATOM     26  C   UNL d   1     -50.995  15.166  22.289  0.00  0.00     0.000 A 
ATOM     27  C   UNL d   1     -50.539  14.874  21.669  0.00  0.00     0.000 A 
ATOM     28  C   UNL d   1     -49.783  14.613  21.816  0.00  0.00     0.000 A 
ENDBRANCH   4  23
TORSDOF 7
ENDMDL
MODEL 4
REMARK VINA RESULT:      -4.8      1.492      2.921
REMARK  7 active torsions:
REMARK  status: ('A' for Active; 'I' for Inactive)
REMARK    1  A    between atoms: C_13  and  C_4 
REMARK    2  A    between atoms: N_16  and  C_6 
REMARK    3  A    between atoms: C_17  and  C_9 
REMARK    4  A    between atoms: N_11  and  C_19 
REMARK    5  A    between atoms: C_21  and  N_16 
REMARK    6  A    between atoms: C_19  and  C_20 
REMARK    7  A    between atoms: C_20  and  C_21 
ROOT
ATOM      1  C   UNL d   1     -48.123  12.876  22.847  0.00  0.00     0.168 A 
ATOM      2  N   UNL d   1     -47.304  12.744  22.843  0.00  0.00    -0.184 N 
ATOM      3  N   UNL d   1     -47.524  11.372  23.136  0.00  0.00    -0.162 NA
ATOM      4  C   UNL d   1     -48.627  12.264  22.993  0.00  0.00     0.055 A 
ATOM      5  N   UNL d   1     -48.408  13.627  22.701  0.00  0.00    -0.227 NA
ATOM      6  C   UNL d   1     -46.802  13.368  22.694  0.00  0.00     0.218 A 
ATOM      7  C   UNL d   1     -48.343  11.504  23.140  0.00  0.00     0.104 A 
ATOM      8  C   UNL d   1     -47.107  14.140  22.546  0.00  0.00     0.071 A 
ATOM      9  C   UNL d   1     -47.904  14.244  22.554  0.00  0.00     0.087 A 
ATOM     10  C   UNL d   1     -48.846  10.896  23.285  0.00  0.00     0.023 C 
ENDROOT
BRANCH   6  11
ATOM     11  N   UNL d   1     -45.962  13.237  22.690  0.00  0.00    -0.380 NA
BRANCH  11  12
ATOM     12  C   UNL d   1     -45.137  13.043  22.721  0.00  0.00     0.164 C 
BRANCH  12  13
ATOM     13  C   UNL d   1     -44.715  12.926  22.003  0.00  0.00     0.054 C 
BRANCH  13  14
ATOM     14  C   UNL d   1     -43.995  12.484  22.010  0.00  0.00     0.084 C 
BRANCH  14  15
ATOM     15  N   UNL d   1     -43.337  12.736  21.531  0.00  0.00    -0.285 N 
ATOM     16  C   UNL d   1     -43.343  12.853  20.697  0.00  0.00     0.183 A 
ATOM     17  N   UNL d   1     -42.566  13.104  20.456  0.00  0.00    -0.222 NA
ATOM     18  C   UNL d   1     -42.082  13.140  21.151  0.00  0.00     0.120 A 
ATOM     19  C   UNL d   1     -42.554  12.914  21.812  0.00  0.00     0.102 A 
ENDBRANCH  14  15
ENDBRANCH  13  14
ENDBRANCH  12  13
ENDBRANCH  11  12
ENDBRANCH   6  11
BRANCH   9  20
ATOM     20  C   UNL d   1     -48.210  15.032  22.402  0.00  0.00     0.018 C 
ATOM     21  C   UNL d   1     -48.516  15.500  23.059  0.00  0.00     0.002 C 
ATOM     22  C   UNL d   1     -48.210  15.350  21.606  0.00  0.00     0.002 C 
ENDBRANCH   9  20
BRANCH   4  23
ATOM     23  C   UNL d   1     -49.453  12.397  22.996  0.00  0.00     0.004 A 
ATOM     24  C   UNL d   1     -49.831  12.589  23.694  0.00  0.00     0.000 A 
ATOM     25  C   UNL d   1     -50.645  12.721  23.698  0.00  0.00     0.000 A 
ATOM     26  C   UNL d   1     -51.064  12.657  23.003  0.00  0.00     0.000 A 
ATOM     27  C   UNL d   1     -50.680  12.463  22.302  0.00  0.00     0.000 A 
ATOM     28  C   UNL d   1     -49.878  12.335  22.307  0.00  0.00     0.000 A 
ENDBRANCH   4  23
TORSDOF 7
ENDMDL
MODEL 5
REMARK VINA RESULT:      -4.1      6.408      9.269
REMARK  7 active torsions:
REMARK  status: ('A' for Active; 'I' for Inactive)
REMARK    1  A    between atoms: C_13  and  C_4 
REMARK    2  A    between atoms: N_16  and  C_6 
REMARK    3  A    between atoms: C_17  and  C_9 
REMARK    4  A    between atoms: N_11  and  C_19 
REMARK    5  A    between atoms: C_21  and  N_16 
REMARK    6  A    between atoms: C_19  and  C_20 
REMARK    7  A    between atoms: C_20  and  C_21 
ROOT
ATOM      1  C   UNL d   1     -39.902  14.614  18.555  0.00  0.00     0.168 A 
ATOM      2  N   UNL d   1     -40.579  14.569  19.031  0.00  0.00    -0.184 N 
ATOM      3  N   UNL d   1     -41.386  14.924  17.918  0.00  0.00    -0.162 NA
ATOM      4  C   UNL d   1     -39.971  14.810  17.777  0.00  0.00     0.055 A 
ATOM      5  N   UNL d   1     -39.170  14.457  18.884  0.00  0.00    -0.227 NA
ATOM      6  C   UNL d   1     -40.499  14.370  19.818  0.00  0.00     0.218 A 
ATOM      7  C   UNL d   1     -40.708  14.968  17.442  0.00  0.00     0.104 A 
ATOM      8  C   UNL d   1     -39.740  14.210  20.147  0.00  0.00     0.071 A 
ATOM      9  C   UNL d   1     -39.098  14.260  19.666  0.00  0.00     0.087 A 
ATOM     10  C   UNL d   1     -40.775  15.164  16.666  0.00  0.00     0.023 C 
ENDROOT
BRANCH   6  11
ATOM     11  N   UNL d   1     -41.192  14.323  20.309  0.00  0.00    -0.380 NA
BRANCH  11  12
ATOM     12  C   UNL d   1     -41.840  14.295  20.856  0.00  0.00     0.164 C 
BRANCH  12  13
ATOM     13  C   UNL d   1     -42.312  13.601  20.899  0.00  0.00     0.054 C 
BRANCH  13  14
ATOM     14  C   UNL d   1     -43.106  13.653  21.184  0.00  0.00     0.084 C 
BRANCH  14  15
ATOM     15  N   UNL d   1     -43.452  12.996  21.601  0.00  0.00    -0.285 N 
ATOM     16  C   UNL d   1     -43.080  12.258  21.765  0.00  0.00     0.183 A 
ATOM     17  N   UNL d   1     -43.632  11.770  22.193  0.00  0.00    -0.222 NA
ATOM     18  C   UNL d   1     -44.346  12.216  22.290  0.00  0.00     0.120 A 
ATOM     19  C   UNL d   1     -44.237  12.969  21.927  0.00  0.00     0.102 A 
ENDBRANCH  14  15
ENDBRANCH  13  14
ENDBRANCH  12  13
ENDBRANCH  11  12
ENDBRANCH   6  11
BRANCH   9  20
ATOM     20  C   UNL d   1     -38.326  14.096  20.006  0.00  0.00     0.018 C 
ATOM     21  C   UNL d   1     -37.940  13.344  19.833  0.00  0.00     0.002 C 
ATOM     22  C   UNL d   1     -37.944  14.674  20.510  0.00  0.00     0.002 C 
ENDBRANCH   9  20
BRANCH   4  23
ATOM     23  C   UNL d   1     -39.288  14.855  17.296  0.00  0.00     0.004 A 
ATOM     24  C   UNL d   1     -38.843  15.540  17.285  0.00  0.00     0.000 A 
ATOM     25  C   UNL d   1     -38.170  15.584  16.812  0.00  0.00     0.000 A 
ATOM     26  C   UNL d   1     -37.954  14.943  16.359  0.00  0.00     0.000 A 
ATOM     27  C   UNL d   1     -38.406  14.254  16.373  0.00  0.00     0.000 A 
ATOM     28  C   UNL d   1     -39.068  14.219  16.842  0.00  0.00     0.000 A 
ENDBRANCH   4  23
TORSDOF 7
ENDMDL
