MODEL 1
REMARK VINA RESULT:      26.3      0.000      0.000
REMARK  4 active torsions:
REMARK  status: ('A' for Active; 'I' for Inactive)
REMARK    1  A    between atoms: C_6  and  N_1 
REMARK    2  A    between atoms: N_7  and  C_5 
REMARK    3  A    between atoms: C_8  and  C_6 
REMARK    4  A    between atoms: C_12  and  N_7 
ROOT
ATOM      1  N   UNL d   1      13.202  13.885  -4.621  0.00  0.00    -0.227 N 
ATOM      2  C   UNL d   1      13.039  13.893  -3.813  0.00  0.00     0.300 A 
ATOM      3  S   UNL d   1      13.059  13.195  -3.382  0.00  0.00    -0.003 SA
ATOM      4  C   UNL d   1      13.405  12.476  -4.566  0.00  0.00     0.292 A 
ATOM      5  C   UNL d   1      13.242  12.483  -3.758  0.00  0.00     0.172 A 
ATOM      6  O   UNL d   1      12.856  14.603  -3.437  0.00  0.00    -0.259 OA
ATOM      7  O   UNL d   1      13.622  11.839  -5.166  0.00  0.00    -0.264 OA
ENDROOT
BRANCH   5   8
ATOM      8  N   UNL d   1      13.262  11.780  -3.327  0.00  0.00    -0.234 NA
BRANCH   8   9
ATOM      9  C   UNL d   1      13.544  11.781  -2.551  0.00  0.00     0.082 A 
ATOM     10  C   UNL d   1      14.365  11.782  -2.411  0.00  0.00     0.019 A 
ATOM     11  C   UNL d   1      14.644  11.783  -1.640  0.00  0.00     0.002 A 
ATOM     12  C   UNL d   1      14.114  11.781  -1.004  0.00  0.00     0.000 A 
ATOM     13  C   UNL d   1      13.292  11.780  -1.150  0.00  0.00     0.002 A 
ATOM     14  C   UNL d   1      14.386  11.782  -0.226  0.00  0.00     0.000 C 
ATOM     15  C   UNL d   1      13.019  11.779  -1.929  0.00  0.00     0.019 A 
ENDBRANCH   8   9
ENDBRANCH   5   8
BRANCH   1  16
ATOM     16  C   UNL d   1      13.236  14.517  -5.270  0.00  0.00     0.157 C 
BRANCH  16  17
ATOM     17  C   UNL d   1      13.981  15.049  -5.353  0.00  0.00     0.230 C 
ATOM     18  O   UNL d   1      14.423  15.066  -6.146  0.00  0.00    -0.643 OA
ATOM     19  O   UNL d   1      14.261  15.543  -4.658  0.00  0.00    -0.643 OA
ENDBRANCH  16  17
ENDBRANCH   1  16
TORSDOF 4
ENDMDL
MODEL 2
REMARK VINA RESULT:      27.3      3.091      3.951
REMARK  4 active torsions:
REMARK  status: ('A' for Active; 'I' for Inactive)
REMARK    1  A    between atoms: C_6  and  N_1 
REMARK    2  A    between atoms: N_7  and  C_5 
REMARK    3  A    between atoms: C_8  and  C_6 
REMARK    4  A    between atoms: C_12  and  N_7 
ROOT
ATOM      1  N   UNL d   1      15.260  15.115  -0.146  0.00  0.00    -0.227 N 
ATOM      2  C   UNL d   1      15.853  14.550  -0.240  0.00  0.00     0.300 A 
ATOM      3  S   UNL d   1      15.656  13.761  -0.352  0.00  0.00    -0.003 SA
ATOM      4  C   UNL d   1      14.270  14.098  -0.278  0.00  0.00     0.292 A 
ATOM      5  C   UNL d   1      14.863  13.534  -0.372  0.00  0.00     0.172 A 
ATOM      6  O   UNL d   1      16.645  14.778  -0.220  0.00  0.00    -0.259 OA
ATOM      7  O   UNL d   1      13.370  14.080  -0.265  0.00  0.00    -0.264 OA
ENDROOT
BRANCH   5   8
ATOM      8  N   UNL d   1      14.663  12.741  -0.485  0.00  0.00    -0.234 NA
BRANCH   8   9
ATOM      9  C   UNL d   1      14.311  12.502  -1.192  0.00  0.00     0.082 A 
ATOM     10  C   UNL d   1      13.621  12.036  -1.171  0.00  0.00     0.019 A 
ATOM     11  C   UNL d   1      13.271  11.798  -1.874  0.00  0.00     0.002 A 
ATOM     12  C   UNL d   1      13.601  12.020  -2.600  0.00  0.00     0.000 A 
ATOM     13  C   UNL d   1      14.293  12.487  -2.615  0.00  0.00     0.002 A 
ATOM     14  C   UNL d   1      13.256  11.785  -3.310  0.00  0.00     0.000 C 
ATOM     15  C   UNL d   1      14.638  12.721  -1.904  0.00  0.00     0.019 A 
ENDBRANCH   8   9
ENDBRANCH   5   8
BRANCH   1  16
ATOM     16  C   UNL d   1      15.250  16.012  -0.014  0.00  0.00     0.157 C 
BRANCH  16  17
ATOM     17  C   UNL d   1      15.260  16.582  -0.735  0.00  0.00     0.230 C 
ATOM     18  O   UNL d   1      14.842  16.331  -1.500  0.00  0.00    -0.643 OA
ATOM     19  O   UNL d   1      15.680  17.373  -0.676  0.00  0.00    -0.643 OA
ENDBRANCH  16  17
ENDBRANCH   1  16
TORSDOF 4
ENDMDL
