MODEL 1
REMARK VINA RESULT:      -8.9      0.000      0.000
REMARK  3 active torsions:
REMARK  status: ('A' for Active; 'I' for Inactive)
REMARK    1  A    between atoms: S_2  and  N_1 
REMARK    2  A    between atoms: C_6  and  S_2 
REMARK    3  A    between atoms: O_17  and  C_11 
ROOT
ATOM      1  S   UNL d   1     -47.928  13.708  22.757  0.00  0.00     0.273 S 
ATOM      2  O   UNL d   1     -48.001  13.914  23.552  0.00  0.00    -0.200 OA
ATOM      3  O   UNL d   1     -47.853  13.500  21.958  0.00  0.00    -0.200 OA
ENDROOT
BRANCH   1   4
ATOM      4  N   UNL d   1     -47.226  13.308  22.923  0.00  0.00    -0.214 N 
ATOM      5  C   UNL d   1     -46.461  13.619  22.860  0.00  0.00     0.157 A 
ATOM      6  N   UNL d   1     -45.920  13.027  23.081  0.00  0.00    -0.226 NA
ATOM      7  C   UNL d   1     -46.270  14.377  22.621  0.00  0.00     0.041 C 
ATOM      8  C   UNL d   1     -46.360  12.349  23.280  0.00  0.00     0.100 A 
ATOM      9  C   UNL d   1     -47.158  12.520  23.184  0.00  0.00     0.094 A 
ATOM     10  C   UNL d   1     -46.123  11.603  23.536  0.00  0.00     0.021 A 
ATOM     11  C   UNL d   1     -47.729  11.939  23.346  0.00  0.00     0.020 A 
ATOM     12  C   UNL d   1     -47.494  11.195  23.601  0.00  0.00     0.002 A 
ATOM     13  C   UNL d   1     -46.694  11.021  23.698  0.00  0.00     0.002 A 
ENDBRANCH   1   4
BRANCH   1  14
ATOM     14  C   UNL d   1     -48.629  14.107  22.587  0.00  0.00     0.106 A 
ATOM     15  C   UNL d   1     -49.183  13.770  22.068  0.00  0.00     0.039 A 
ATOM     16  C   UNL d   1     -49.886  14.168  21.897  0.00  0.00     0.122 A 
ATOM     17  C   UNL d   1     -50.040  14.907  22.244  0.00  0.00     0.162 A 
ATOM     18  C   UNL d   1     -49.489  15.241  22.760  0.00  0.00     0.032 A 
ATOM     19  F   UNL d   1     -50.736  15.297  22.072  0.00  0.00    -0.202 F 
ATOM     20  C   UNL d   1     -48.788  14.843  22.931  0.00  0.00     0.015 A 
BRANCH  16  21
ATOM     21  O   UNL d   1     -50.428  13.834  21.386  0.00  0.00    -0.326 OA
ATOM     22  C   UNL d   1     -50.824  13.156  21.600  0.00  0.00     0.181 C 
ENDBRANCH  16  21
ENDBRANCH   1  14
TORSDOF 3
ENDMDL
MODEL 2
REMARK VINA RESULT:      -8.9      1.848      4.057
REMARK  3 active torsions:
REMARK  status: ('A' for Active; 'I' for Inactive)
REMARK    1  A    between atoms: S_2  and  N_1 
REMARK    2  A    between atoms: C_6  and  S_2 
REMARK    3  A    between atoms: O_17  and  C_11 
ROOT
ATOM      1  S   UNL d   1     -48.660  13.219  22.747  0.00  0.00     0.273 S 
ATOM      2  O   UNL d   1     -48.261  13.579  22.123  0.00  0.00    -0.200 OA
ATOM      3  O   UNL d   1     -49.061  12.856  23.376  0.00  0.00    -0.200 OA
ENDROOT
BRANCH   1   4
ATOM      4  N   UNL d   1     -49.362  13.583  22.513  0.00  0.00    -0.214 N 
ATOM      5  C   UNL d   1     -49.881  13.310  21.927  0.00  0.00     0.157 A 
ATOM      6  N   UNL d   1     -50.515  13.844  21.873  0.00  0.00    -0.226 NA
ATOM      7  C   UNL d   1     -49.785  12.631  21.481  0.00  0.00     0.041 C 
ATOM      8  C   UNL d   1     -50.382  14.448  22.429  0.00  0.00     0.100 A 
ATOM      9  C   UNL d   1     -49.677  14.288  22.821  0.00  0.00     0.094 A 
ATOM     10  C   UNL d   1     -50.821  15.119  22.621  0.00  0.00     0.021 A 
ATOM     11  C   UNL d   1     -49.406  14.805  23.412  0.00  0.00     0.020 A 
ATOM     12  C   UNL d   1     -49.842  15.474  23.603  0.00  0.00     0.002 A 
ATOM     13  C   UNL d   1     -50.549  15.635  23.212  0.00  0.00     0.002 A 
ENDBRANCH   1   4
BRANCH   1  14
ATOM     14  C   UNL d   1     -47.960  12.853  22.985  0.00  0.00     0.106 A 
ATOM     15  C   UNL d   1     -47.231  13.233  22.862  0.00  0.00     0.039 A 
ATOM     16  C   UNL d   1     -46.530  12.868  23.099  0.00  0.00     0.122 A 
ATOM     17  C   UNL d   1     -46.551  12.121  23.461  0.00  0.00     0.162 A 
ATOM     18  C   UNL d   1     -47.276  11.743  23.583  0.00  0.00     0.032 A 
ATOM     19  F   UNL d   1     -45.855  11.764  23.694  0.00  0.00    -0.202 F 
ATOM     20  C   UNL d   1     -47.976  12.108  23.346  0.00  0.00     0.015 A 
BRANCH  16  21
ATOM     21  O   UNL d   1     -45.814  13.244  22.977  0.00  0.00    -0.326 OA
ATOM     22  C   UNL d   1     -45.527  13.333  22.222  0.00  0.00     0.181 C 
ENDBRANCH  16  21
ENDBRANCH   1  14
TORSDOF 3
ENDMDL
MODEL 3
REMARK VINA RESULT:      -8.6      1.940      3.634
REMARK  3 active torsions:
REMARK  status: ('A' for Active; 'I' for Inactive)
REMARK    1  A    between atoms: S_2  and  N_1 
REMARK    2  A    between atoms: C_6  and  S_2 
REMARK    3  A    between atoms: O_17  and  C_11 
ROOT
ATOM      1  S   UNL d   1     -48.173  13.512  22.802  0.00  0.00     0.273 S 
ATOM      2  O   UNL d   1     -48.043  13.836  23.549  0.00  0.00    -0.200 OA
ATOM      3  O   UNL d   1     -48.305  13.185  22.051  0.00  0.00    -0.200 OA
ENDROOT
BRANCH   1   4
ATOM      4  N   UNL d   1     -48.975  13.698  22.858  0.00  0.00    -0.214 N 
ATOM      5  C   UNL d   1     -49.308  14.450  22.759  0.00  0.00     0.157 A 
ATOM      6  N   UNL d   1     -50.131  14.385  22.863  0.00  0.00    -0.226 NA
ATOM      7  C   UNL d   1     -48.899  15.137  22.589  0.00  0.00     0.041 C 
ATOM      8  C   UNL d   1     -50.299  13.588  23.026  0.00  0.00     0.100 A 
ATOM      9  C   UNL d   1     -49.593  13.167  23.024  0.00  0.00     0.094 A 
ATOM     10  C   UNL d   1     -51.012  13.201  23.176  0.00  0.00     0.021 A 
ATOM     11  C   UNL d   1     -49.597  12.350  23.172  0.00  0.00     0.020 A 
ATOM     12  C   UNL d   1     -50.307  11.964  23.321  0.00  0.00     0.002 A 
ATOM     13  C   UNL d   1     -51.016  12.384  23.325  0.00  0.00     0.002 A 
ENDBRANCH   1   4
BRANCH   1  14
ATOM     14  C   UNL d   1     -47.373  13.324  22.743  0.00  0.00     0.106 A 
ATOM     15  C   UNL d   1     -47.041  12.755  23.250  0.00  0.00     0.039 A 
ATOM     16  C   UNL d   1     -46.239  12.566  23.192  0.00  0.00     0.122 A 
ATOM     17  C   UNL d   1     -45.763  12.944  22.626  0.00  0.00     0.162 A 
ATOM     18  C   UNL d   1     -46.093  13.508  22.122  0.00  0.00     0.032 A 
ATOM     19  F   UNL d   1     -44.972  12.753  22.572  0.00  0.00    -0.202 F 
ATOM     20  C   UNL d   1     -46.893  13.697  22.181  0.00  0.00     0.015 A 
BRANCH  16  21
ATOM     21  O   UNL d   1     -45.916  12.006  23.692  0.00  0.00    -0.326 OA
ATOM     22  C   UNL d   1     -46.186  11.239  23.671  0.00  0.00     0.181 C 
ENDBRANCH  16  21
ENDBRANCH   1  14
TORSDOF 3
ENDMDL
MODEL 4
REMARK VINA RESULT:      -8.0      1.907      3.950
REMARK  3 active torsions:
REMARK  status: ('A' for Active; 'I' for Inactive)
REMARK    1  A    between atoms: S_2  and  N_1 
REMARK    2  A    between atoms: C_6  and  S_2 
REMARK    3  A    between atoms: O_17  and  C_11 
ROOT
ATOM      1  S   UNL d   1     -48.236  12.717  22.739  0.00  0.00     0.273 S 
ATOM      2  O   UNL d   1     -48.175  12.189  22.109  0.00  0.00    -0.200 OA
ATOM      3  O   UNL d   1     -48.298  13.247  23.374  0.00  0.00    -0.200 OA
ENDROOT
BRANCH   1   4
ATOM      4  N   UNL d   1     -49.048  12.578  22.781  0.00  0.00    -0.214 N 
ATOM      5  C   UNL d   1     -49.419  11.984  23.225  0.00  0.00     0.157 A 
ATOM      6  N   UNL d   1     -50.240  12.045  23.106  0.00  0.00    -0.226 NA
ATOM      7  C   UNL d   1     -49.042  11.434  23.698  0.00  0.00     0.041 C 
ATOM      8  C   UNL d   1     -50.370  12.681  22.585  0.00  0.00     0.100 A 
ATOM      9  C   UNL d   1     -49.642  13.007  22.387  0.00  0.00     0.094 A 
ATOM     10  C   UNL d   1     -51.064  12.996  22.273  0.00  0.00     0.021 A 
ATOM     11  C   UNL d   1     -49.606  13.656  21.869  0.00  0.00     0.020 A 
ATOM     12  C   UNL d   1     -50.298  13.970  21.558  0.00  0.00     0.002 A 
ATOM     13  C   UNL d   1     -51.028  13.645  21.756  0.00  0.00     0.002 A 
ENDBRANCH   1   4
BRANCH   1  14
ATOM     14  C   UNL d   1     -47.425  12.858  22.701  0.00  0.00     0.106 A 
ATOM     15  C   UNL d   1     -46.898  12.376  23.127  0.00  0.00     0.039 A 
ATOM     16  C   UNL d   1     -46.086  12.517  23.089  0.00  0.00     0.122 A 
ATOM     17  C   UNL d   1     -45.793  13.140  22.625  0.00  0.00     0.162 A 
ATOM     18  C   UNL d   1     -46.316  13.619  22.201  0.00  0.00     0.032 A 
ATOM     19  F   UNL d   1     -44.989  13.276  22.590  0.00  0.00    -0.202 F 
ATOM     20  C   UNL d   1     -47.127  13.478  22.240  0.00  0.00     0.015 A 
BRANCH  16  21
ATOM     21  O   UNL d   1     -45.571  12.042  23.509  0.00  0.00    -0.326 OA
ATOM     22  C   UNL d   1     -45.527  11.246  23.344  0.00  0.00     0.181 C 
ENDBRANCH  16  21
ENDBRANCH   1  14
TORSDOF 3
ENDMDL
MODEL 5
REMARK VINA RESULT:      -7.1      1.403      2.453
REMARK  3 active torsions:
REMARK  status: ('A' for Active; 'I' for Inactive)
REMARK    1  A    between atoms: S_2  and  N_1 
REMARK    2  A    between atoms: C_6  and  S_2 
REMARK    3  A    between atoms: O_17  and  C_11 
ROOT
ATOM      1  S   UNL d   1     -47.992  12.601  23.078  0.00  0.00     0.273 S 
ATOM      2  O   UNL d   1     -48.182  13.111  23.697  0.00  0.00    -0.200 OA
ATOM      3  O   UNL d   1     -47.802  12.088  22.455  0.00  0.00    -0.200 OA
ENDROOT
BRANCH   1   4
ATOM      4  N   UNL d   1     -47.225  12.903  23.060  0.00  0.00    -0.214 N 
ATOM      5  C   UNL d   1     -46.532  12.484  23.234  0.00  0.00     0.157 A 
ATOM      6  N   UNL d   1     -45.887  13.001  23.147  0.00  0.00    -0.226 NA
ATOM      7  C   UNL d   1     -46.491  11.697  23.453  0.00  0.00     0.041 C 
ATOM      8  C   UNL d   1     -46.189  13.741  22.918  0.00  0.00     0.100 A 
ATOM      9  C   UNL d   1     -47.007  13.682  22.865  0.00  0.00     0.094 A 
ATOM     10  C   UNL d   1     -45.813  14.456  22.753  0.00  0.00     0.021 A 
ATOM     11  C   UNL d   1     -47.457  14.345  22.645  0.00  0.00     0.020 A 
ATOM     12  C   UNL d   1     -47.083  15.057  22.481  0.00  0.00     0.002 A 
ATOM     13  C   UNL d   1     -46.264  15.119  22.533  0.00  0.00     0.002 A 
ENDBRANCH   1   4
BRANCH   1  14
ATOM     14  C   UNL d   1     -48.759  12.297  23.093  0.00  0.00     0.106 A 
ATOM     15  C   UNL d   1     -49.320  12.557  22.538  0.00  0.00     0.039 A 
ATOM     16  C   UNL d   1     -50.087  12.253  22.552  0.00  0.00     0.122 A 
ATOM     17  C   UNL d   1     -50.299  11.686  23.121  0.00  0.00     0.162 A 
ATOM     18  C   UNL d   1     -49.742  11.427  23.672  0.00  0.00     0.032 A 
ATOM     19  F   UNL d   1     -51.059  11.388  23.131  0.00  0.00    -0.202 F 
ATOM     20  C   UNL d   1     -48.976  11.731  23.658  0.00  0.00     0.015 A 
BRANCH  16  21
ATOM     21  O   UNL d   1     -50.637  12.512  22.006  0.00  0.00    -0.326 OA
ATOM     22  C   UNL d   1     -50.476  13.162  21.545  0.00  0.00     0.181 C 
ENDBRANCH  16  21
ENDBRANCH   1  14
TORSDOF 3
ENDMDL
MODEL 6
REMARK VINA RESULT:      -6.5      8.287      9.640
REMARK  3 active torsions:
REMARK  status: ('A' for Active; 'I' for Inactive)
REMARK    1  A    between atoms: S_2  and  N_1 
REMARK    2  A    between atoms: C_6  and  S_2 
REMARK    3  A    between atoms: O_17  and  C_11 
ROOT
ATOM      1  S   UNL d   1     -39.951  14.711  18.532  0.00  0.00     0.273 S 
ATOM      2  O   UNL d   1     -39.322  15.232  18.644  0.00  0.00    -0.200 OA
ATOM      3  O   UNL d   1     -40.583  14.186  18.420  0.00  0.00    -0.200 OA
ENDROOT
BRANCH   1   4
ATOM      4  N   UNL d   1     -39.628  14.471  17.812  0.00  0.00    -0.214 N 
ATOM      5  C   UNL d   1     -39.810  14.785  17.067  0.00  0.00     0.157 A 
ATOM      6  N   UNL d   1     -39.358  14.381  16.498  0.00  0.00    -0.226 NA
ATOM      7  C   UNL d   1     -40.341  15.388  16.919  0.00  0.00     0.041 C 
ATOM      8  C   UNL d   1     -38.898  13.817  16.899  0.00  0.00     0.100 A 
ATOM      9  C   UNL d   1     -39.062  13.871  17.702  0.00  0.00     0.094 A 
ATOM     10  C   UNL d   1     -38.352  13.264  16.623  0.00  0.00     0.021 A 
ATOM     11  C   UNL d   1     -38.677  13.367  18.239  0.00  0.00     0.020 A 
ATOM     12  C   UNL d   1     -38.133  12.816  17.965  0.00  0.00     0.002 A 
ATOM     13  C   UNL d   1     -37.966  12.760  17.160  0.00  0.00     0.002 A 
ENDBRANCH   1   4
BRANCH   1  14
ATOM     14  C   UNL d   1     -40.277  14.948  19.251  0.00  0.00     0.106 A 
ATOM     15  C   UNL d   1     -40.235  14.446  19.912  0.00  0.00     0.039 A 
ATOM     16  C   UNL d   1     -40.560  14.683  20.633  0.00  0.00     0.122 A 
ATOM     17  C   UNL d   1     -40.931  15.423  20.698  0.00  0.00     0.162 A 
ATOM     18  C   UNL d   1     -40.973  15.922  20.042  0.00  0.00     0.032 A 
ATOM     19  F   UNL d   1     -41.252  15.653  21.413  0.00  0.00    -0.202 F 
ATOM     20  C   UNL d   1     -40.648  15.685  19.323  0.00  0.00     0.015 A 
BRANCH  16  21
ATOM     21  O   UNL d   1     -40.517  14.187  21.281  0.00  0.00    -0.326 OA
ATOM     22  C   UNL d   1     -39.797  14.031  21.626  0.00  0.00     0.181 C 
ENDBRANCH  16  21
ENDBRANCH   1  14
TORSDOF 3
ENDMDL
MODEL 7
REMARK VINA RESULT:      -6.4      8.375      9.275
REMARK  3 active torsions:
REMARK  status: ('A' for Active; 'I' for Inactive)
REMARK    1  A    between atoms: S_2  and  N_1 
REMARK    2  A    between atoms: C_6  and  S_2 
REMARK    3  A    between atoms: O_17  and  C_11 
ROOT
ATOM      1  S   UNL d   1     -40.002  15.121  19.313  0.00  0.00     0.273 S 
ATOM      2  O   UNL d   1     -39.599  15.833  19.413  0.00  0.00    -0.200 OA
ATOM      3  O   UNL d   1     -40.408  14.405  19.212  0.00  0.00    -0.200 OA
ENDROOT
BRANCH   1   4
ATOM      4  N   UNL d   1     -40.046  15.027  20.131  0.00  0.00    -0.214 N 
ATOM      5  C   UNL d   1     -40.588  15.398  20.636  0.00  0.00     0.157 A 
ATOM      6  N   UNL d   1     -40.434  15.145  21.413  0.00  0.00    -0.226 NA
ATOM      7  C   UNL d   1     -41.173  15.922  20.409  0.00  0.00     0.041 C 
ATOM      8  C   UNL d   1     -39.793  14.617  21.381  0.00  0.00     0.100 A 
ATOM      9  C   UNL d   1     -39.555  14.544  20.598  0.00  0.00     0.094 A 
ATOM     10  C   UNL d   1     -39.403  14.197  21.974  0.00  0.00     0.021 A 
ATOM     11  C   UNL d   1     -38.919  14.046  20.402  0.00  0.00     0.020 A 
ATOM     12  C   UNL d   1     -38.530  13.628  20.992  0.00  0.00     0.002 A 
ATOM     13  C   UNL d   1     -38.767  13.699  21.778  0.00  0.00     0.002 A 
ENDBRANCH   1   4
BRANCH   1  14
ATOM     14  C   UNL d   1     -39.960  15.212  18.494  0.00  0.00     0.106 A 
ATOM     15  C   UNL d   1     -40.651  15.164  18.035  0.00  0.00     0.039 A 
ATOM     16  C   UNL d   1     -40.611  15.255  17.216  0.00  0.00     0.122 A 
ATOM     17  C   UNL d   1     -39.879  15.393  16.849  0.00  0.00     0.162 A 
ATOM     18  C   UNL d   1     -39.192  15.440  17.304  0.00  0.00     0.032 A 
ATOM     19  F   UNL d   1     -39.844  15.482  16.038  0.00  0.00    -0.202 F 
ATOM     20  C   UNL d   1     -39.233  15.350  18.123  0.00  0.00     0.015 A 
BRANCH  16  21
ATOM     21  O   UNL d   1     -41.292  15.208  16.767  0.00  0.00    -0.326 OA
ATOM     22  C   UNL d   1     -41.737  15.875  16.634  0.00  0.00     0.181 C 
ENDBRANCH  16  21
ENDBRANCH   1  14
TORSDOF 3
ENDMDL
MODEL 8
REMARK VINA RESULT:      -6.1      8.931      9.693
REMARK  3 active torsions:
REMARK  status: ('A' for Active; 'I' for Inactive)
REMARK    1  A    between atoms: S_2  and  N_1 
REMARK    2  A    between atoms: C_6  and  S_2 
REMARK    3  A    between atoms: O_17  and  C_11 
ROOT
ATOM      1  S   UNL d   1     -39.656  14.821  19.450  0.00  0.00     0.273 S 
ATOM      2  O   UNL d   1     -40.308  14.337  19.593  0.00  0.00    -0.200 OA
ATOM      3  O   UNL d   1     -39.000  15.307  19.305  0.00  0.00    -0.200 OA
ENDROOT
BRANCH   1   4
ATOM      4  N   UNL d   1     -39.712  14.662  18.642  0.00  0.00    -0.214 N 
ATOM      5  C   UNL d   1     -39.277  14.094  18.225  0.00  0.00     0.157 A 
ATOM      6  N   UNL d   1     -39.509  14.123  17.427  0.00  0.00    -0.226 NA
ATOM      7  C   UNL d   1     -38.715  13.593  18.544  0.00  0.00     0.041 C 
ATOM      8  C   UNL d   1     -40.091  14.713  17.358  0.00  0.00     0.100 A 
ATOM      9  C   UNL d   1     -40.216  15.043  18.100  0.00  0.00     0.094 A 
ATOM     10  C   UNL d   1     -40.517  14.983  16.706  0.00  0.00     0.021 A 
ATOM     11  C   UNL d   1     -40.774  15.651  18.194  0.00  0.00     0.020 A 
ATOM     12  C   UNL d   1     -41.199  15.921  17.545  0.00  0.00     0.002 A 
ATOM     13  C   UNL d   1     -41.075  15.592  16.801  0.00  0.00     0.002 A 
ENDBRANCH   1   4
BRANCH   1  14
ATOM     14  C   UNL d   1     -39.597  14.981  20.256  0.00  0.00     0.106 A 
ATOM     15  C   UNL d   1     -39.595  14.357  20.805  0.00  0.00     0.039 A 
ATOM     16  C   UNL d   1     -39.535  14.517  21.613  0.00  0.00     0.122 A 
ATOM     17  C   UNL d   1     -39.477  15.302  21.878  0.00  0.00     0.162 A 
ATOM     18  C   UNL d   1     -39.479  15.922  21.333  0.00  0.00     0.032 A 
ATOM     19  F   UNL d   1     -39.418  15.455  22.678  0.00  0.00    -0.202 F 
ATOM     20  C   UNL d   1     -39.538  15.762  20.527  0.00  0.00     0.015 A 
BRANCH  16  21
ATOM     21  O   UNL d   1     -39.534  13.901  22.150  0.00  0.00    -0.326 OA
ATOM     22  C   UNL d   1     -38.868  13.443  22.240  0.00  0.00     0.181 C 
ENDBRANCH  16  21
ENDBRANCH   1  14
TORSDOF 3
ENDMDL
