MODEL 1
REMARK VINA RESULT:      13.0      0.000      0.000
REMARK  1 active torsions:
REMARK  status: ('A' for Active; 'I' for Inactive)
REMARK    1  A    between atoms: C_12  and  N_4 
ROOT
ATOM      1  C   UNL d   1     -51.811  24.840  33.307  0.00  0.00     0.081 A 
ATOM      2  C   UNL d   1     -51.259  24.235  33.308  0.00  0.00     0.118 A 
ATOM      3  C   UNL d   1     -51.547  25.637  33.306  0.00  0.00     0.268 A 
ATOM      4  N   UNL d   1     -50.742  25.808  33.306  0.00  0.00    -0.249 N 
ATOM      5  N   UNL d   1     -50.450  24.381  33.308  0.00  0.00    -0.212 NA
ATOM      6  C   UNL d   1     -50.187  25.179  33.307  0.00  0.00     0.209 A 
ATOM      7  S   UNL d   1     -51.709  23.517  33.308  0.00  0.00    -0.068 SA
ATOM      8  C   UNL d   1     -52.566  24.509  33.307  0.00  0.00     0.013 A 
ATOM      9  C   UNL d   1     -52.469  23.676  33.308  0.00  0.00     0.031 A 
ATOM     10  S   UNL d   1     -49.361  25.313  33.307  0.00  0.00    -0.038 SA
ATOM     11  O   UNL d   1     -52.100  26.282  33.306  0.00  0.00    -0.267 OA
ATOM     12  C   UNL d   1     -53.320  24.843  33.307  0.00  0.00     0.001 A 
ATOM     13  C   UNL d   1     -53.145  23.189  33.308  0.00  0.00     0.006 A 
ATOM     14  C   UNL d   1     -53.979  24.357  33.307  0.00  0.00     0.000 A 
ATOM     15  C   UNL d   1     -53.898  23.538  33.308  0.00  0.00     0.001 A 
ENDROOT
BRANCH   4  16
ATOM     16  C   UNL d   1     -50.494  26.603  33.306  0.00  0.00     0.085 C 
ATOM     17  C   UNL d   1     -51.045  27.210  33.313  0.00  0.00     0.021 C 
ENDBRANCH   4  16
TORSDOF 1
ENDMDL
