MODEL 1
REMARK VINA RESULT:     106.4      0.000      0.000
REMARK  8 active torsions:
REMARK  status: ('A' for Active; 'I' for Inactive)
REMARK    1  A    between atoms: C_5  and  C_1 
REMARK       I    between atoms: C_2  and  N_4 
REMARK    2  A    between atoms: C_7  and  C_2 
REMARK    3  A    between atoms: N_4  and  C_3 
REMARK    4  A    between atoms: N_6  and  C_5 
REMARK    5  A    between atoms: C_13  and  C_5 
REMARK    6  A    between atoms: C_15  and  N_6 
REMARK    7  A    between atoms: C_9  and  C_15 
REMARK    8  A    between atoms: O_19  and  C_9 
ROOT
ATOM      1  C   UNL d   1      60.442  48.731  51.667  0.00  0.00     0.035 A 
ATOM      2  C   UNL d   1      60.849  48.007  51.745  0.00  0.00     0.086 A 
ATOM      3  C   UNL d   1      60.487  49.288  52.275  0.00  0.00     0.003 A 
ATOM      4  C   UNL d   1      61.295  47.850  52.429  0.00  0.00     0.019 A 
ATOM      5  C   UNL d   1      60.933  49.131  52.959  0.00  0.00     0.000 A 
ATOM      6  C   UNL d   1      61.332  48.418  53.033  0.00  0.00     0.002 A 
ATOM      7  C   UNL d   1      60.970  49.695  53.561  0.00  0.00     0.000 C 
ENDROOT
BRANCH   1   8
ATOM      8  C   UNL d   1      60.002  48.887  50.990  0.00  0.00     0.083 C 
BRANCH   8   9
ATOM      9  N   UNL d   1      59.173  48.910  51.027  0.00  0.00    -0.238 NA
BRANCH   9  10
ATOM     10  C   UNL d   1      58.763  49.475  50.592  0.00  0.00     0.167 C 
BRANCH  10  11
ATOM     11  C   UNL d   1      57.963  49.610  50.737  0.00  0.00     0.315 C 
ATOM     12  O   UNL d   1      57.671  49.652  51.515  0.00  0.00    -0.257 OA
BRANCH  11  13
ATOM     13  O   UNL d   1      57.431  49.707  50.100  0.00  0.00    -0.295 OA
ATOM     14  C   UNL d   1      56.584  49.582  50.271  0.00  0.00     0.185 C 
ENDBRANCH  11  13
ENDBRANCH  10  11
ENDBRANCH   9  10
ENDBRANCH   8   9
BRANCH   8  15
ATOM     15  C   UNL d   1      60.383  49.019  50.276  0.00  0.00     0.018 A 
ATOM     16  C   UNL d   1      60.991  49.574  50.224  0.00  0.00     0.002 A 
ATOM     17  C   UNL d   1      61.370  49.708  49.516  0.00  0.00     0.000 A 
ATOM     18  C   UNL d   1      61.145  49.280  48.832  0.00  0.00     0.000 A 
ATOM     19  C   UNL d   1      60.540  48.727  48.882  0.00  0.00     0.000 A 
ATOM     20  C   UNL d   1      60.155  48.592  49.599  0.00  0.00     0.002 A 
ENDBRANCH   8  15
ENDBRANCH   1   8
BRANCH   2  21
ATOM     21  N   UNL d   1      60.804  47.454  51.138  0.00  0.00    -0.208 NA
ATOM     22  C   UNL d   1      61.149  46.695  51.239  0.00  0.00     0.279 C 
ATOM     23  O   UNL d   1      61.532  46.511  51.948  0.00  0.00    -0.265 OA
BRANCH  22  24
ATOM     24  C   UNL d   1      61.104  46.137  50.631  0.00  0.00     0.059 A 
ATOM     25  C   UNL d   1      61.710  46.089  50.073  0.00  0.00     0.016 A 
ATOM     26  C   UNL d   1      61.667  45.533  49.465  0.00  0.00     0.058 A 
ATOM     27 CL   UNL d   1      62.276  45.494  48.916  0.00  0.00    -0.082 Cl
ATOM     28  C   UNL d   1      61.020  45.026  49.416  0.00  0.00     0.011 A 
ATOM     29  C   UNL d   1      60.414  45.075  49.973  0.00  0.00     0.001 A 
ATOM     30  C   UNL d   1      60.458  45.632  50.581  0.00  0.00     0.005 A 
ENDBRANCH  22  24
ENDBRANCH   2  21
TORSDOF 8
ENDMDL
MODEL 2
REMARK VINA RESULT:     109.0      2.134      3.810
REMARK  8 active torsions:
REMARK  status: ('A' for Active; 'I' for Inactive)
REMARK    1  A    between atoms: C_5  and  C_1 
REMARK       I    between atoms: C_2  and  N_4 
REMARK    2  A    between atoms: C_7  and  C_2 
REMARK    3  A    between atoms: N_4  and  C_3 
REMARK    4  A    between atoms: N_6  and  C_5 
REMARK    5  A    between atoms: C_13  and  C_5 
REMARK    6  A    between atoms: C_15  and  N_6 
REMARK    7  A    between atoms: C_9  and  C_15 
REMARK    8  A    between atoms: O_19  and  C_9 
ROOT
ATOM      1  C   UNL d   1      57.392  47.612  51.172  0.00  0.00     0.035 A 
ATOM      2  C   UNL d   1      58.207  47.433  51.200  0.00  0.00     0.086 A 
ATOM      3  C   UNL d   1      56.841  47.000  51.229  0.00  0.00     0.003 A 
ATOM      4  C   UNL d   1      58.459  46.644  51.283  0.00  0.00     0.019 A 
ATOM      5  C   UNL d   1      57.093  46.211  51.312  0.00  0.00     0.000 A 
ATOM      6  C   UNL d   1      57.894  46.038  51.339  0.00  0.00     0.002 A 
ATOM      7  C   UNL d   1      56.534  45.607  51.368  0.00  0.00     0.000 C 
ENDROOT
BRANCH   1   8
ATOM      8  C   UNL d   1      57.143  48.391  51.090  0.00  0.00     0.083 C 
BRANCH   8   9
ATOM      9  N   UNL d   1      57.213  48.922  51.724  0.00  0.00    -0.238 NA
BRANCH   9  10
ATOM     10  C   UNL d   1      56.558  49.079  52.196  0.00  0.00     0.167 C 
BRANCH  10  11
ATOM     11  C   UNL d   1      56.658  49.301  52.983  0.00  0.00     0.315 C 
ATOM     12  O   UNL d   1      57.365  49.656  53.240  0.00  0.00    -0.257 OA
BRANCH  11  13
ATOM     13  O   UNL d   1      56.047  49.170  53.537  0.00  0.00    -0.295 OA
ATOM     14  C   UNL d   1      56.112  49.587  54.301  0.00  0.00     0.185 C 
ENDBRANCH  11  13
ENDBRANCH  10  11
ENDBRANCH   9  10
ENDBRANCH   8   9
BRANCH   8  15
ATOM     15  C   UNL d   1      56.825  48.645  50.378  0.00  0.00     0.018 A 
ATOM     16  C   UNL d   1      56.459  48.108  49.869  0.00  0.00     0.002 A 
ATOM     17  C   UNL d   1      56.142  48.359  49.162  0.00  0.00     0.000 A 
ATOM     18  C   UNL d   1      56.185  49.166  48.945  0.00  0.00     0.000 A 
ATOM     19  C   UNL d   1      56.549  49.702  49.450  0.00  0.00     0.000 A 
ATOM     20  C   UNL d   1      56.870  49.448  50.167  0.00  0.00     0.002 A 
ENDBRANCH   8  15
ENDBRANCH   1   8
BRANCH   2  21
ATOM     21  N   UNL d   1      58.754  48.043  51.143  0.00  0.00    -0.208 NA
ATOM     22  C   UNL d   1      59.575  47.868  51.115  0.00  0.00     0.279 C 
ATOM     23  O   UNL d   1      59.824  47.080  51.145  0.00  0.00    -0.265 OA
BRANCH  22  24
ATOM     24  C   UNL d   1      60.127  48.480  51.058  0.00  0.00     0.059 A 
ATOM     25  C   UNL d   1      60.386  48.730  50.317  0.00  0.00     0.016 A 
ATOM     26  C   UNL d   1      60.937  49.342  50.259  0.00  0.00     0.058 A 
ATOM     27 CL   UNL d   1      61.188  49.584  49.515  0.00  0.00    -0.082 Cl
ATOM     28  C   UNL d   1      61.228  49.701  50.940  0.00  0.00     0.011 A 
ATOM     29  C   UNL d   1      60.968  49.450  51.681  0.00  0.00     0.001 A 
ATOM     30  C   UNL d   1      60.417  48.838  51.739  0.00  0.00     0.005 A 
ENDBRANCH  22  24
ENDBRANCH   2  21
TORSDOF 8
ENDMDL
