MODEL 1
REMARK VINA RESULT:      -6.5      0.000      0.000
REMARK  7 active torsions:
REMARK  status: ('A' for Active; 'I' for Inactive)
REMARK    1  A    between atoms: C_6  and  C_2 
REMARK    2  A    between atoms: S_7  and  C_4 
REMARK    3  A    between atoms: C_12  and  S_7 
REMARK    4  A    between atoms: C_8  and  C_12 
REMARK    5  A    between atoms: O_16  and  C_8 
REMARK    6  A    between atoms: O_17  and  C_13 
REMARK    7  A    between atoms: C_18  and  O_16 
ROOT
ATOM      1  N   UNL d   1     -47.647  13.018  23.350  0.00  0.00    -0.212 NA
ATOM      2  C   UNL d   1     -47.708  13.765  23.020  0.00  0.00     0.171 A 
ATOM      3  N   UNL d   1     -46.949  14.017  22.806  0.00  0.00    -0.188 NA
ATOM      4  C   UNL d   1     -46.852  12.794  23.348  0.00  0.00     0.160 A 
ATOM      5  S   UNL d   1     -46.420  13.417  23.009  0.00  0.00     0.041 SA
ENDROOT
BRANCH   2   6
ATOM      6  C   UNL d   1     -48.403  14.201  22.914  0.00  0.00     0.037 A 
ATOM      7  C   UNL d   1     -49.138  13.910  23.180  0.00  0.00     0.005 A 
ATOM      8  C   UNL d   1     -49.821  14.343  23.073  0.00  0.00     0.024 A 
ATOM      9  C   UNL d   1     -49.784  15.075  22.699  0.00  0.00     0.094 A 
ATOM     10  C   UNL d   1     -49.056  15.371  22.432  0.00  0.00     0.024 A 
ATOM     11  C   UNL d   1     -48.376  14.928  22.545  0.00  0.00     0.005 A 
BRANCH   9  12
ATOM     12  O   UNL d   1     -50.468  15.519  22.587  0.00  0.00    -0.328 OA
ATOM     13  C   UNL d   1     -50.954  15.689  23.225  0.00  0.00     0.181 C 
ENDBRANCH   9  12
ENDBRANCH   2   6
BRANCH   4  14
ATOM     14  S   UNL d   1     -46.536  12.082  23.628  0.00  0.00    -0.054 SA
BRANCH  14  15
ATOM     15  C   UNL d   1     -45.902  11.736  23.245  0.00  0.00     0.106 C 
BRANCH  15  16
ATOM     16  C   UNL d   1     -45.584  11.023  23.516  0.00  0.00     0.307 C 
ATOM     17  O   UNL d   1     -46.090  10.392  23.698  0.00  0.00    -0.258 OA
BRANCH  16  18
ATOM     18  O   UNL d   1     -44.766  10.936  23.606  0.00  0.00    -0.271 OA
BRANCH  18  19
ATOM     19  C   UNL d   1     -44.416  10.184  23.547  0.00  0.00     0.126 C 
ATOM     20  C   UNL d   1     -43.602  10.098  23.645  0.00  0.00     0.029 C 
ENDBRANCH  18  19
ENDBRANCH  16  18
ENDBRANCH  15  16
ENDBRANCH  14  15
ENDBRANCH   4  14
TORSDOF 7
ENDMDL
MODEL 2
REMARK VINA RESULT:      -4.6      8.637     10.026
REMARK  7 active torsions:
REMARK  status: ('A' for Active; 'I' for Inactive)
REMARK    1  A    between atoms: C_6  and  C_2 
REMARK    2  A    between atoms: S_7  and  C_4 
REMARK    3  A    between atoms: C_12  and  S_7 
REMARK    4  A    between atoms: C_8  and  C_12 
REMARK    5  A    between atoms: O_16  and  C_8 
REMARK    6  A    between atoms: O_17  and  C_13 
REMARK    7  A    between atoms: C_18  and  O_16 
ROOT
ATOM      1  N   UNL d   1     -39.535  15.061  18.684  0.00  0.00    -0.212 NA
ATOM      2  C   UNL d   1     -39.990  14.822  19.321  0.00  0.00     0.171 A 
ATOM      3  N   UNL d   1     -40.629  14.382  19.034  0.00  0.00    -0.188 NA
ATOM      4  C   UNL d   1     -39.882  14.775  17.992  0.00  0.00     0.160 A 
ATOM      5  S   UNL d   1     -40.562  14.353  18.211  0.00  0.00     0.041 SA
ENDROOT
BRANCH   2   6
ATOM      6  C   UNL d   1     -39.845  14.987  20.119  0.00  0.00     0.037 A 
ATOM      7  C   UNL d   1     -40.049  15.725  20.450  0.00  0.00     0.005 A 
ATOM      8  C   UNL d   1     -39.904  15.883  21.237  0.00  0.00     0.024 A 
ATOM      9  C   UNL d   1     -39.553  15.308  21.710  0.00  0.00     0.094 A 
ATOM     10  C   UNL d   1     -39.348  14.571  21.387  0.00  0.00     0.024 A 
ATOM     11  C   UNL d   1     -39.498  14.423  20.595  0.00  0.00     0.005 A 
BRANCH   9  12
ATOM     12  O   UNL d   1     -39.403  15.458  22.505  0.00  0.00    -0.328 OA
ATOM     13  C   UNL d   1     -38.676  15.262  22.827  0.00  0.00     0.181 C 
ENDBRANCH   9  12
ENDBRANCH   2   6
BRANCH   4  14
ATOM     14  S   UNL d   1     -39.609  14.884  17.218  0.00  0.00    -0.054 SA
BRANCH  14  15
ATOM     15  C   UNL d   1     -38.958  14.466  16.950  0.00  0.00     0.106 C 
BRANCH  15  16
ATOM     16  C   UNL d   1     -38.689  14.558  16.174  0.00  0.00     0.307 C 
ATOM     17  O   UNL d   1     -38.714  15.306  15.818  0.00  0.00    -0.258 OA
BRANCH  16  18
ATOM     18  O   UNL d   1     -38.396  13.910  15.753  0.00  0.00    -0.271 OA
BRANCH  18  19
ATOM     19  C   UNL d   1     -37.976  14.025  15.044  0.00  0.00     0.126 C 
ATOM     20  C   UNL d   1     -37.940  13.424  14.482  0.00  0.00     0.029 C 
ENDBRANCH  18  19
ENDBRANCH  16  18
ENDBRANCH  15  16
ENDBRANCH  14  15
ENDBRANCH   4  14
TORSDOF 7
ENDMDL
MODEL 3
REMARK VINA RESULT:      -4.4      8.478      9.555
REMARK  7 active torsions:
REMARK  status: ('A' for Active; 'I' for Inactive)
REMARK    1  A    between atoms: C_6  and  C_2 
REMARK    2  A    between atoms: S_7  and  C_4 
REMARK    3  A    between atoms: C_12  and  S_7 
REMARK    4  A    between atoms: C_8  and  C_12 
REMARK    5  A    between atoms: O_16  and  C_8 
REMARK    6  A    between atoms: O_17  and  C_13 
REMARK    7  A    between atoms: C_18  and  O_16 
ROOT
ATOM      1  N   UNL d   1     -39.668  14.957  19.806  0.00  0.00    -0.212 NA
ATOM      2  C   UNL d   1     -39.931  14.705  20.539  0.00  0.00     0.171 A 
ATOM      3  N   UNL d   1     -40.684  14.373  20.444  0.00  0.00    -0.188 NA
ATOM      4  C   UNL d   1     -40.249  14.787  19.245  0.00  0.00     0.160 A 
ATOM      5  S   UNL d   1     -40.880  14.424  19.644  0.00  0.00     0.041 SA
ENDROOT
BRANCH   2   6
ATOM      6  C   UNL d   1     -39.524  14.766  21.256  0.00  0.00     0.037 A 
ATOM      7  C   UNL d   1     -39.465  15.496  21.657  0.00  0.00     0.005 A 
ATOM      8  C   UNL d   1     -39.062  15.551  22.364  0.00  0.00     0.024 A 
ATOM      9  C   UNL d   1     -38.711  14.881  22.686  0.00  0.00     0.094 A 
ATOM     10  C   UNL d   1     -38.766  14.151  22.293  0.00  0.00     0.024 A 
ATOM     11  C   UNL d   1     -39.172  14.107  21.583  0.00  0.00     0.005 A 
BRANCH   9  12
ATOM     12  O   UNL d   1     -38.303  14.928  23.399  0.00  0.00    -0.328 OA
ATOM     13  C   UNL d   1     -38.085  15.659  23.698  0.00  0.00     0.181 C 
ENDBRANCH   9  12
ENDBRANCH   2   6
BRANCH   4  14
ATOM     14  S   UNL d   1     -40.217  14.945  18.433  0.00  0.00    -0.054 SA
BRANCH  14  15
ATOM     15  C   UNL d   1     -40.794  15.408  18.082  0.00  0.00     0.106 C 
BRANCH  15  16
ATOM     16  C   UNL d   1     -40.870  15.436  17.260  0.00  0.00     0.307 C 
ATOM     17  O   UNL d   1     -40.199  15.332  16.784  0.00  0.00    -0.258 OA
BRANCH  16  18
ATOM     18  O   UNL d   1     -41.608  15.566  16.911  0.00  0.00    -0.271 OA
BRANCH  18  19
ATOM     19  C   UNL d   1     -41.661  15.777  16.108  0.00  0.00     0.126 C 
ATOM     20  C   UNL d   1     -42.397  15.922  15.767  0.00  0.00     0.029 C 
ENDBRANCH  18  19
ENDBRANCH  16  18
ENDBRANCH  15  16
ENDBRANCH  14  15
ENDBRANCH   4  14
TORSDOF 7
ENDMDL
MODEL 4
REMARK VINA RESULT:      -4.3      2.879      3.343
REMARK  7 active torsions:
REMARK  status: ('A' for Active; 'I' for Inactive)
REMARK    1  A    between atoms: C_6  and  C_2 
REMARK    2  A    between atoms: S_7  and  C_4 
REMARK    3  A    between atoms: C_12  and  S_7 
REMARK    4  A    between atoms: C_8  and  C_12 
REMARK    5  A    between atoms: O_16  and  C_8 
REMARK    6  A    between atoms: O_17  and  C_13 
REMARK    7  A    between atoms: C_18  and  O_16 
ROOT
ATOM      1  N   UNL d   1     -45.247  13.257  21.911  0.00  0.00    -0.212 NA
ATOM      2  C   UNL d   1     -45.793  13.107  22.502  0.00  0.00     0.171 A 
ATOM      3  N   UNL d   1     -45.509  12.484  22.967  0.00  0.00    -0.188 NA
ATOM      4  C   UNL d   1     -44.616  12.732  21.997  0.00  0.00     0.160 A 
ATOM      5  S   UNL d   1     -44.780  12.251  22.654  0.00  0.00     0.041 SA
ENDROOT
BRANCH   2   6
ATOM      6  C   UNL d   1     -46.508  13.505  22.623  0.00  0.00     0.037 A 
ATOM      7  C   UNL d   1     -46.523  14.317  22.810  0.00  0.00     0.005 A 
ATOM      8  C   UNL d   1     -47.231  14.705  22.929  0.00  0.00     0.024 A 
ATOM      9  C   UNL d   1     -47.938  14.290  22.864  0.00  0.00     0.094 A 
ATOM     10  C   UNL d   1     -47.931  13.480  22.678  0.00  0.00     0.024 A 
ATOM     11  C   UNL d   1     -47.215  13.101  22.561  0.00  0.00     0.005 A 
BRANCH   9  12
ATOM     12  O   UNL d   1     -48.657  14.672  22.982  0.00  0.00    -0.328 OA
ATOM     13  C   UNL d   1     -48.948  15.181  22.409  0.00  0.00     0.181 C 
ENDBRANCH   9  12
ENDBRANCH   2   6
BRANCH   4  14
ATOM     14  S   UNL d   1     -43.940  12.685  21.521  0.00  0.00    -0.054 SA
BRANCH  14  15
ATOM     15  C   UNL d   1     -43.357  13.256  21.578  0.00  0.00     0.106 C 
BRANCH  15  16
ATOM     16  C   UNL d   1     -42.683  13.219  21.102  0.00  0.00     0.307 C 
ATOM     17  O   UNL d   1     -42.688  12.748  20.420  0.00  0.00    -0.258 OA
BRANCH  16  18
ATOM     18  O   UNL d   1     -42.005  13.648  21.302  0.00  0.00    -0.271 OA
BRANCH  18  19
ATOM     19  C   UNL d   1     -41.528  13.981  20.707  0.00  0.00     0.126 C 
ATOM     20  C   UNL d   1     -40.869  14.432  20.910  0.00  0.00     0.029 C 
ENDBRANCH  18  19
ENDBRANCH  16  18
ENDBRANCH  15  16
ENDBRANCH  14  15
ENDBRANCH   4  14
TORSDOF 7
ENDMDL
MODEL 5
REMARK VINA RESULT:      -4.2      9.099      9.536
REMARK  7 active torsions:
REMARK  status: ('A' for Active; 'I' for Inactive)
REMARK    1  A    between atoms: C_6  and  C_2 
REMARK    2  A    between atoms: S_7  and  C_4 
REMARK    3  A    between atoms: C_12  and  S_7 
REMARK    4  A    between atoms: C_8  and  C_12 
REMARK    5  A    between atoms: O_16  and  C_8 
REMARK    6  A    between atoms: O_17  and  C_13 
REMARK    7  A    between atoms: C_18  and  O_16 
ROOT
ATOM      1  N   UNL d   1     -38.963  14.558  19.283  0.00  0.00    -0.212 NA
ATOM      2  C   UNL d   1     -39.139  14.324  18.519  0.00  0.00     0.171 A 
ATOM      3  N   UNL d   1     -38.755  13.606  18.371  0.00  0.00    -0.188 NA
ATOM      4  C   UNL d   1     -38.468  13.991  19.624  0.00  0.00     0.160 A 
ATOM      5  S   UNL d   1     -38.339  13.400  19.055  0.00  0.00     0.041 SA
ENDROOT
BRANCH   2   6
ATOM      6  C   UNL d   1     -39.618  14.728  17.978  0.00  0.00     0.037 A 
ATOM      7  C   UNL d   1     -39.319  15.366  17.531  0.00  0.00     0.005 A 
ATOM      8  C   UNL d   1     -39.795  15.761  17.000  0.00  0.00     0.024 A 
ATOM      9  C   UNL d   1     -40.577  15.528  16.903  0.00  0.00     0.094 A 
ATOM     10  C   UNL d   1     -40.882  14.894  17.343  0.00  0.00     0.024 A 
ATOM     11  C   UNL d   1     -40.396  14.504  17.875  0.00  0.00     0.005 A 
BRANCH   9  12
ATOM     12  O   UNL d   1     -41.065  15.921  16.368  0.00  0.00    -0.328 OA
ATOM     13  C   UNL d   1     -41.877  15.922  16.481  0.00  0.00     0.181 C 
ENDBRANCH   9  12
ENDBRANCH   2   6
BRANCH   4  14
ATOM     14  S   UNL d   1     -38.153  14.003  20.389  0.00  0.00    -0.054 SA
BRANCH  14  15
ATOM     15  C   UNL d   1     -38.648  14.090  21.035  0.00  0.00     0.106 C 
BRANCH  15  16
ATOM     16  C   UNL d   1     -38.343  14.093  21.802  0.00  0.00     0.307 C 
ATOM     17  O   UNL d   1     -38.001  13.403  22.109  0.00  0.00    -0.258 OA
BRANCH  16  18
ATOM     18  O   UNL d   1     -38.376  14.778  22.265  0.00  0.00    -0.271 OA
BRANCH  18  19
ATOM     19  C   UNL d   1     -38.722  14.757  23.021  0.00  0.00     0.126 C 
ATOM     20  C   UNL d   1     -38.705  15.427  23.501  0.00  0.00     0.029 C 
ENDBRANCH  18  19
ENDBRANCH  16  18
ENDBRANCH  15  16
ENDBRANCH  14  15
ENDBRANCH   4  14
TORSDOF 7
ENDMDL
MODEL 6
REMARK VINA RESULT:      -4.2      6.532      8.234
REMARK  7 active torsions:
REMARK  status: ('A' for Active; 'I' for Inactive)
REMARK    1  A    between atoms: C_6  and  C_2 
REMARK    2  A    between atoms: S_7  and  C_4 
REMARK    3  A    between atoms: C_12  and  S_7 
REMARK    4  A    between atoms: C_8  and  C_12 
REMARK    5  A    between atoms: O_16  and  C_8 
REMARK    6  A    between atoms: O_17  and  C_13 
REMARK    7  A    between atoms: C_18  and  O_16 
ROOT
ATOM      1  N   UNL d   1     -41.171  13.752  19.850  0.00  0.00    -0.212 NA
ATOM      2  C   UNL d   1     -40.675  14.336  19.561  0.00  0.00     0.171 A 
ATOM      3  N   UNL d   1     -40.577  14.908  20.151  0.00  0.00    -0.188 NA
ATOM      4  C   UNL d   1     -41.389  13.950  20.622  0.00  0.00     0.160 A 
ATOM      5  S   UNL d   1     -41.018  14.669  20.807  0.00  0.00     0.041 SA
ENDROOT
BRANCH   2   6
ATOM      6  C   UNL d   1     -40.327  14.359  18.811  0.00  0.00     0.037 A 
ATOM      7  C   UNL d   1     -40.702  14.747  18.175  0.00  0.00     0.005 A 
ATOM      8  C   UNL d   1     -40.356  14.768  17.437  0.00  0.00     0.024 A 
ATOM      9  C   UNL d   1     -39.629  14.403  17.319  0.00  0.00     0.094 A 
ATOM     10  C   UNL d   1     -39.249  14.015  17.947  0.00  0.00     0.024 A 
ATOM     11  C   UNL d   1     -39.606  14.000  18.685  0.00  0.00     0.005 A 
BRANCH   9  12
ATOM     12  O   UNL d   1     -39.271  14.419  16.578  0.00  0.00    -0.328 OA
ATOM     13  C   UNL d   1     -38.794  15.052  16.367  0.00  0.00     0.181 C 
ENDBRANCH   9  12
ENDBRANCH   2   6
BRANCH   4  14
ATOM     14  S   UNL d   1     -41.884  13.517  21.125  0.00  0.00    -0.054 SA
BRANCH  14  15
ATOM     15  C   UNL d   1     -42.678  13.434  20.947  0.00  0.00     0.106 C 
BRANCH  15  16
ATOM     16  C   UNL d   1     -43.181  13.012  21.449  0.00  0.00     0.307 C 
ATOM     17  O   UNL d   1     -42.962  12.255  21.704  0.00  0.00    -0.258 OA
BRANCH  16  18
ATOM     18  O   UNL d   1     -43.898  13.340  21.697  0.00  0.00    -0.271 OA
BRANCH  18  19
ATOM     19  C   UNL d   1     -44.565  12.856  21.806  0.00  0.00     0.126 C 
ATOM     20  C   UNL d   1     -45.268  13.179  22.090  0.00  0.00     0.029 C 
ENDBRANCH  18  19
ENDBRANCH  16  18
ENDBRANCH  15  16
ENDBRANCH  14  15
ENDBRANCH   4  14
TORSDOF 7
ENDMDL
