MODEL 1
REMARK VINA RESULT:      44.1      0.000      0.000
REMARK  8 active torsions:
REMARK  status: ('A' for Active; 'I' for Inactive)
REMARK    1  A    between atoms: C_3  and  C_1 
REMARK    2  A    between atoms: N_4  and  C_2 
REMARK    3  A    between atoms: O_21  and  C_3 
REMARK       I    between atoms: C_11  and  N_4 
REMARK    4  A    between atoms: C_6  and  C_7 
REMARK    5  A    between atoms: O_22  and  C_6 
REMARK    6  A    between atoms: C_10  and  C_20 
REMARK    7  A    between atoms: C_19  and  C_11 
REMARK    8  A    between atoms: C_20  and  C_19 
ROOT
ATOM      1  C   UNL d   1      46.419 -18.926  42.765  0.00  0.00     0.081 A 
ATOM      2  C   UNL d   1      46.239 -18.211  42.398  0.00  0.00     0.090 A 
ATOM      3  C   UNL d   1      46.133 -17.572  43.665  0.00  0.00     0.065 A 
ATOM      4  C   UNL d   1      46.096 -17.535  42.842  0.00  0.00     0.025 A 
ATOM      5  C   UNL d   1      46.457 -18.963  43.588  0.00  0.00     0.007 A 
ATOM      6  C   UNL d   1      46.314 -18.285  44.038  0.00  0.00     0.006 A 
ENDROOT
BRANCH   2   7
ATOM      7  N   UNL d   1      46.203 -18.179  41.577  0.00  0.00    -0.208 NA
ATOM      8  C   UNL d   1      45.524 -17.881  41.205  0.00  0.00     0.279 C 
ATOM      9  O   UNL d   1      44.889 -17.619  41.666  0.00  0.00    -0.265 OA
BRANCH   8  10
ATOM     10  C   UNL d   1      45.486 -17.849  40.387  0.00  0.00     0.065 C 
BRANCH  10  11
ATOM     11  C   UNL d   1      44.782 -17.616  40.014  0.00  0.00     0.030 C 
BRANCH  11  12
ATOM     12  C   UNL d   1      44.809 -17.251  39.279  0.00  0.00     0.100 A 
ATOM     13  O   UNL d   1      44.202 -16.813  38.928  0.00  0.00    -0.307 OA
ATOM     14  C   UNL d   1      44.469 -16.555  38.202  0.00  0.00     0.100 A 
ATOM     15  C   UNL d   1      44.040 -16.098  37.665  0.00  0.00     0.027 C 
ATOM     16  C   UNL d   1      45.235 -16.824  38.092  0.00  0.00     0.027 A 
ATOM     17  C   UNL d   1      45.451 -17.252  38.748  0.00  0.00     0.027 A 
ENDBRANCH  11  12
ENDBRANCH  10  11
ENDBRANCH   8  10
ENDBRANCH   2   7
BRANCH   1  18
ATOM     18  C   UNL d   1      46.561 -19.597  42.309  0.00  0.00     0.297 C 
ATOM     19  O   UNL d   1      46.647 -20.330  42.666  0.00  0.00    -0.259 OA
BRANCH  18  20
ATOM     20  O   UNL d   1      46.616 -19.532  41.489  0.00  0.00    -0.296 OA
ATOM     21  C   UNL d   1      46.646 -20.217  41.024  0.00  0.00     0.185 C 
ENDBRANCH  18  20
ENDBRANCH   1  18
BRANCH   3  22
ATOM     22  C   UNL d   1      45.990 -16.894  44.116  0.00  0.00     0.296 C 
ATOM     23  O   UNL d   1      45.485 -16.926  44.768  0.00  0.00    -0.259 OA
BRANCH  22  24
ATOM     24  O   UNL d   1      46.353 -16.180  43.916  0.00  0.00    -0.296 OA
ATOM     25  C   UNL d   1      46.117 -15.478  44.281  0.00  0.00     0.185 C 
ENDBRANCH  22  24
ENDBRANCH   3  22
TORSDOF 8
ENDMDL
MODEL 2
REMARK VINA RESULT:      44.9      5.279      6.830
REMARK  8 active torsions:
REMARK  status: ('A' for Active; 'I' for Inactive)
REMARK    1  A    between atoms: C_3  and  C_1 
REMARK    2  A    between atoms: N_4  and  C_2 
REMARK    3  A    between atoms: O_21  and  C_3 
REMARK       I    between atoms: C_11  and  N_4 
REMARK    4  A    between atoms: C_6  and  C_7 
REMARK    5  A    between atoms: O_22  and  C_6 
REMARK    6  A    between atoms: C_10  and  C_20 
REMARK    7  A    between atoms: C_19  and  C_11 
REMARK    8  A    between atoms: C_20  and  C_19 
ROOT
ATOM      1  C   UNL d   1      44.649 -15.147  36.783  0.00  0.00     0.081 A 
ATOM      2  C   UNL d   1      44.161 -14.634  37.205  0.00  0.00     0.090 A 
ATOM      3  C   UNL d   1      43.008 -15.335  36.755  0.00  0.00     0.065 A 
ATOM      4  C   UNL d   1      43.345 -14.724  37.193  0.00  0.00     0.025 A 
ATOM      5  C   UNL d   1      44.312 -15.759  36.345  0.00  0.00     0.007 A 
ATOM      6  C   UNL d   1      43.491 -15.853  36.331  0.00  0.00     0.006 A 
ENDROOT
BRANCH   2   7
ATOM      7  N   UNL d   1      44.502 -14.025  37.641  0.00  0.00    -0.208 NA
ATOM      8  C   UNL d   1      44.333 -13.952  38.449  0.00  0.00     0.279 C 
ATOM      9  O   UNL d   1      43.822 -14.494  38.809  0.00  0.00    -0.265 OA
BRANCH   8  10
ATOM     10  C   UNL d   1      44.671 -13.346  38.886  0.00  0.00     0.065 C 
BRANCH  10  11
ATOM     11  C   UNL d   1      44.220 -12.943  39.453  0.00  0.00     0.030 C 
BRANCH  11  12
ATOM     12  C   UNL d   1      44.582 -12.638  40.124  0.00  0.00     0.100 A 
ATOM     13  O   UNL d   1      44.254 -12.597  40.881  0.00  0.00    -0.307 OA
ATOM     14  C   UNL d   1      44.806 -12.255  41.374  0.00  0.00     0.100 A 
ATOM     15  C   UNL d   1      44.708 -12.108  42.180  0.00  0.00     0.027 C 
ATOM     16  C   UNL d   1      45.478 -12.082  40.938  0.00  0.00     0.027 A 
ATOM     17  C   UNL d   1      45.348 -12.314  40.170  0.00  0.00     0.027 A 
ENDBRANCH  11  12
ENDBRANCH  10  11
ENDBRANCH   8  10
ENDBRANCH   2   7
BRANCH   1  18
ATOM     18  C   UNL d   1      45.466 -15.047  36.802  0.00  0.00     0.297 C 
ATOM     19  O   UNL d   1      45.963 -15.698  36.834  0.00  0.00    -0.259 OA
BRANCH  18  20
ATOM     20  O   UNL d   1      45.787 -14.287  36.790  0.00  0.00    -0.296 OA
ATOM     21  C   UNL d   1      46.608 -14.188  36.823  0.00  0.00     0.185 C 
ENDBRANCH  18  20
ENDBRANCH   1  18
BRANCH   3  22
ATOM     22  C   UNL d   1      42.188 -15.430  36.740  0.00  0.00     0.296 C 
ATOM     23  O   UNL d   1      41.691 -14.771  36.734  0.00  0.00    -0.259 OA
BRANCH  22  24
ATOM     24  O   UNL d   1      41.859 -16.188  36.731  0.00  0.00    -0.296 OA
ATOM     25  C   UNL d   1      41.145 -16.326  36.341  0.00  0.00     0.185 C 
ENDBRANCH  22  24
ENDBRANCH   3  22
TORSDOF 8
ENDMDL
