MODEL 1
REMARK VINA RESULT:      -8.7      0.000      0.000
REMARK  4 active torsions:
REMARK  status: ('A' for Active; 'I' for Inactive)
REMARK    1  A    between atoms: N_10  and  C_1 
REMARK       I    between atoms: C_12  and  N_10 
REMARK    2  A    between atoms: C_17  and  C_12 
REMARK    3  A    between atoms: C_18  and  C_17 
REMARK    4  A    between atoms: C_19  and  C_18 
ROOT
ATOM      1  C   UNL d   1      51.600  33.364  53.320  0.00  0.00     0.197 A 
ATOM      2  C   UNL d   1      52.823  33.192  53.778  0.00  0.00     0.057 A 
ATOM      3  C   UNL d   1      53.533  33.235  54.138  0.00  0.00     0.056 A 
ATOM      4  N   UNL d   1      51.862  32.687  52.993  0.00  0.00    -0.221 NA
ATOM      5  S   UNL d   1      52.171  33.709  53.816  0.00  0.00    -0.046 SA
ATOM      6  N   UNL d   1      54.750  32.838  54.443  0.00  0.00    -0.238 NA
ATOM      7  S   UNL d   1      53.861  33.769  54.646  0.00  0.00    -0.066 SA
ATOM      8  C   UNL d   1      52.635  32.573  53.279  0.00  0.00     0.090 A 
ATOM      9  C   UNL d   1      54.101  32.650  54.015  0.00  0.00     0.088 A 
ATOM     10  C   UNL d   1      54.653  33.506  54.841  0.00  0.00     0.111 A 
ATOM     11  C   UNL d   1      53.939  32.020  53.522  0.00  0.00     0.021 A 
ATOM     12  C   UNL d   1      53.189  31.983  53.146  0.00  0.00     0.021 A 
ATOM     13  C   UNL d   1      55.204  33.876  55.345  0.00  0.00     0.028 C 
ENDROOT
BRANCH   1  14
ATOM     14  N   UNL d   1      50.831  33.704  53.187  0.00  0.00    -0.183 NA
ATOM     15  C   UNL d   1      50.703  34.114  52.496  0.00  0.00     0.281 C 
ATOM     16  O   UNL d   1      51.362  34.167  51.962  0.00  0.00    -0.265 OA
BRANCH  15  17
ATOM     17  C   UNL d   1      49.997  34.427  52.373  0.00  0.00     0.063 C 
BRANCH  17  18
ATOM     18  C   UNL d   1      49.645  34.443  51.490  0.00  0.00     0.005 C 
BRANCH  18  19
ATOM     19  C   UNL d   1      48.761  34.752  51.352  0.00  0.00     0.000 C 
ATOM     20  C   UNL d   1      48.292  34.709  50.673  0.00  0.00     0.000 C 
ENDBRANCH  18  19
ENDBRANCH  17  18
ENDBRANCH  15  17
ENDBRANCH   1  14
TORSDOF 4
ENDMDL
MODEL 2
REMARK VINA RESULT:      -8.5      2.082      4.096
REMARK  4 active torsions:
REMARK  status: ('A' for Active; 'I' for Inactive)
REMARK    1  A    between atoms: N_10  and  C_1 
REMARK       I    between atoms: C_12  and  N_10 
REMARK    2  A    between atoms: C_17  and  C_12 
REMARK    3  A    between atoms: C_18  and  C_17 
REMARK    4  A    between atoms: C_19  and  C_18 
ROOT
ATOM      1  C   UNL d   1      53.097  32.097  53.132  0.00  0.00     0.197 A 
ATOM      2  C   UNL d   1      52.827  33.361  53.382  0.00  0.00     0.057 A 
ATOM      3  C   UNL d   1      52.782  34.109  53.656  0.00  0.00     0.056 A 
ATOM      4  N   UNL d   1      52.535  32.308  52.609  0.00  0.00    -0.221 NA
ATOM      5  S   UNL d   1      53.306  32.727  53.632  0.00  0.00    -0.046 SA
ATOM      6  N   UNL d   1      52.335  35.346  53.702  0.00  0.00    -0.238 NA
ATOM      7  S   UNL d   1      53.166  34.503  54.246  0.00  0.00    -0.066 SA
ATOM      8  C   UNL d   1      52.360  33.107  52.762  0.00  0.00     0.090 A 
ATOM      9  C   UNL d   1      52.258  34.649  53.318  0.00  0.00     0.088 A 
ATOM     10  C   UNL d   1      52.872  35.307  54.272  0.00  0.00     0.111 A 
ATOM     11  C   UNL d   1      51.781  34.420  52.697  0.00  0.00     0.021 A 
ATOM     12  C   UNL d   1      51.834  33.631  52.415  0.00  0.00     0.021 A 
ATOM     13  C   UNL d   1      53.103  35.919  54.788  0.00  0.00     0.028 C 
ENDROOT
BRANCH   1  14
ATOM     14  N   UNL d   1      53.450  31.324  53.183  0.00  0.00    -0.183 NA
ATOM     15  C   UNL d   1      52.961  30.681  53.280  0.00  0.00     0.281 C 
ATOM     16  O   UNL d   1      52.129  30.843  53.321  0.00  0.00    -0.265 OA
BRANCH  15  17
ATOM     17  C   UNL d   1      53.285  29.970  53.327  0.00  0.00     0.063 C 
BRANCH  17  18
ATOM     18  C   UNL d   1      52.952  29.351  53.966  0.00  0.00     0.005 C 
BRANCH  18  19
ATOM     19  C   UNL d   1      53.560  28.787  54.422  0.00  0.00     0.000 C 
ATOM     20  C   UNL d   1      53.475  28.407  55.152  0.00  0.00     0.000 C 
ENDBRANCH  18  19
ENDBRANCH  17  18
ENDBRANCH  15  17
ENDBRANCH   1  14
TORSDOF 4
ENDMDL
MODEL 3
REMARK VINA RESULT:      -8.1      1.367      1.996
REMARK  4 active torsions:
REMARK  status: ('A' for Active; 'I' for Inactive)
REMARK    1  A    between atoms: N_10  and  C_1 
REMARK       I    between atoms: C_12  and  N_10 
REMARK    2  A    between atoms: C_17  and  C_12 
REMARK    3  A    between atoms: C_18  and  C_17 
REMARK    4  A    between atoms: C_19  and  C_18 
ROOT
ATOM      1  C   UNL d   1      51.892  33.690  52.786  0.00  0.00     0.197 A 
ATOM      2  C   UNL d   1      52.644  32.674  53.155  0.00  0.00     0.057 A 
ATOM      3  C   UNL d   1      52.981  31.966  53.298  0.00  0.00     0.056 A 
ATOM      4  N   UNL d   1      52.504  34.006  53.186  0.00  0.00    -0.221 NA
ATOM      5  S   UNL d   1      51.944  32.861  52.745  0.00  0.00    -0.046 SA
ATOM      6  N   UNL d   1      53.890  31.143  53.779  0.00  0.00    -0.238 NA
ATOM      7  S   UNL d   1      52.775  31.210  53.107  0.00  0.00    -0.066 SA
ATOM      8  C   UNL d   1      52.984  33.368  53.422  0.00  0.00     0.090 A 
ATOM      9  C   UNL d   1      53.687  31.914  53.722  0.00  0.00     0.088 A 
ATOM     10  C   UNL d   1      53.369  30.678  53.421  0.00  0.00     0.111 A 
ATOM     11  C   UNL d   1      54.046  32.593  54.000  0.00  0.00     0.021 A 
ATOM     12  C   UNL d   1      53.685  33.334  53.845  0.00  0.00     0.021 A 
ATOM     13  C   UNL d   1      53.393  29.847  53.364  0.00  0.00     0.028 C 
ENDROOT
BRANCH   1  14
ATOM     14  N   UNL d   1      51.256  34.135  52.438  0.00  0.00    -0.183 NA
ATOM     15  C   UNL d   1      50.564  34.216  52.858  0.00  0.00     0.281 C 
ATOM     16  O   UNL d   1      50.540  33.842  53.620  0.00  0.00    -0.265 OA
BRANCH  15  17
ATOM     17  C   UNL d   1      49.979  34.626  52.538  0.00  0.00     0.063 C 
BRANCH  17  18
ATOM     18  C   UNL d   1      49.358  35.067  53.106  0.00  0.00     0.005 C 
BRANCH  18  19
ATOM     19  C   UNL d   1      48.626  35.525  52.721  0.00  0.00     0.000 C 
ATOM     20  C   UNL d   1      48.063  36.012  53.082  0.00  0.00     0.000 C 
ENDBRANCH  18  19
ENDBRANCH  17  18
ENDBRANCH  15  17
ENDBRANCH   1  14
TORSDOF 4
ENDMDL
MODEL 4
REMARK VINA RESULT:      -6.5      2.647      3.626
REMARK  4 active torsions:
REMARK  status: ('A' for Active; 'I' for Inactive)
REMARK    1  A    between atoms: N_10  and  C_1 
REMARK       I    between atoms: C_12  and  N_10 
REMARK    2  A    between atoms: C_17  and  C_12 
REMARK    3  A    between atoms: C_18  and  C_17 
REMARK    4  A    between atoms: C_19  and  C_18 
ROOT
ATOM      1  C   UNL d   1      53.488  32.243  53.348  0.00  0.00     0.197 A 
ATOM      2  C   UNL d   1      53.301  30.966  53.610  0.00  0.00     0.057 A 
ATOM      3  C   UNL d   1      53.267  30.231  53.916  0.00  0.00     0.056 A 
ATOM      4  N   UNL d   1      53.111  31.943  52.714  0.00  0.00    -0.221 NA
ATOM      5  S   UNL d   1      53.624  31.665  53.929  0.00  0.00    -0.046 SA
ATOM      6  N   UNL d   1      52.962  28.950  53.934  0.00  0.00    -0.238 NA
ATOM      7  S   UNL d   1      53.522  29.912  54.612  0.00  0.00    -0.066 SA
ATOM      8  C   UNL d   1      52.990  31.135  52.874  0.00  0.00     0.090 A 
ATOM      9  C   UNL d   1      52.915  29.616  53.494  0.00  0.00     0.088 A 
ATOM     10  C   UNL d   1      53.321  29.079  54.619  0.00  0.00     0.111 A 
ATOM     11  C   UNL d   1      52.597  29.759  52.755  0.00  0.00     0.021 A 
ATOM     12  C   UNL d   1      52.637  30.536  52.441  0.00  0.00     0.021 A 
ATOM     13  C   UNL d   1      53.472  28.522  55.220  0.00  0.00     0.028 C 
ENDROOT
BRANCH   1  14
ATOM     14  N   UNL d   1      53.727  33.056  53.433  0.00  0.00    -0.183 NA
ATOM     15  C   UNL d   1      53.166  33.606  53.643  0.00  0.00     0.281 C 
ATOM     16  O   UNL d   1      52.377  33.312  53.760  0.00  0.00    -0.265 OA
BRANCH  15  17
ATOM     17  C   UNL d   1      53.386  34.352  53.721  0.00  0.00     0.063 C 
BRANCH  17  18
ATOM     18  C   UNL d   1      52.842  34.944  54.228  0.00  0.00     0.005 C 
BRANCH  18  19
ATOM     19  C   UNL d   1      53.181  35.795  54.462  0.00  0.00     0.000 C 
ATOM     20  C   UNL d   1      52.851  36.375  54.950  0.00  0.00     0.000 C 
ENDBRANCH  18  19
ENDBRANCH  17  18
ENDBRANCH  15  17
ENDBRANCH   1  14
TORSDOF 4
ENDMDL
