MODEL 1
REMARK VINA RESULT:      -8.5      0.000      0.000
REMARK  5 active torsions:
REMARK  status: ('A' for Active; 'I' for Inactive)
REMARK    1  A    between atoms: O_8  and  S_1 
REMARK    2  A    between atoms: C_9  and  S_1 
REMARK    3  A    between atoms: C_7  and  C_2 
REMARK    4  A    between atoms: C_20  and  C_7 
REMARK    5  A    between atoms: C_14  and  O_8 
ROOT
ATOM      1  C   UNL d   1      53.478  31.769  53.310  0.00  0.00     0.139 A 
ATOM      2  C   UNL d   1      53.246  33.076  53.378  0.00  0.00     0.064 A 
ATOM      3  C   UNL d   1      53.835  32.512  53.275  0.00  0.00     0.220 A 
ATOM      4  C   UNL d   1      52.525  32.689  53.476  0.00  0.00     0.105 A 
ATOM      5  O   UNL d   1      52.669  31.877  53.435  0.00  0.00    -0.304 OA
ATOM      6  C   UNL d   1      51.844  33.123  53.589  0.00  0.00     0.050 A 
ATOM      7  C   UNL d   1      53.277  33.899  53.393  0.00  0.00     0.007 A 
ATOM      8  C   UNL d   1      51.875  33.946  53.605  0.00  0.00     0.116 A 
ATOM      9  O   UNL d   1      54.639  32.653  53.158  0.00  0.00    -0.284 OA
ATOM     10  C   UNL d   1      52.590  34.330  53.507  0.00  0.00     0.026 A 
ENDROOT
BRANCH   8  11
ATOM     11  O   UNL d   1      51.186  34.381  53.719  0.00  0.00    -0.227 OA
BRANCH  11  12
ATOM     12  S   UNL d   1      50.632  34.444  53.111  0.00  0.00     0.304 S 
ATOM     13  O   UNL d   1      50.990  35.127  52.856  0.00  0.00    -0.193 OA
ATOM     14  O   UNL d   1      50.261  33.755  53.360  0.00  0.00    -0.193 OA
BRANCH  12  15
ATOM     15  C   UNL d   1      50.074  34.512  52.495  0.00  0.00     0.111 A 
ATOM     16  C   UNL d   1      50.265  34.236  51.740  0.00  0.00     0.016 A 
ATOM     17  C   UNL d   1      49.714  34.303  51.130  0.00  0.00     0.030 A 
ATOM     18  C   UNL d   1      48.971  34.646  51.275  0.00  0.00     0.140 A 
ATOM     19  C   UNL d   1      48.792  34.919  52.037  0.00  0.00     0.030 A 
ATOM     20  F   UNL d   1      48.429  34.712  50.675  0.00  0.00    -0.204 F 
ATOM     21  C   UNL d   1      49.346  34.851  52.645  0.00  0.00     0.016 A 
ENDBRANCH  12  15
ENDBRANCH  11  12
ENDBRANCH   8  11
BRANCH   1  22
ATOM     22  C   UNL d   1      53.859  31.041  53.235  0.00  0.00     0.029 C 
BRANCH  22  23
ATOM     23  C   UNL d   1      53.496  30.346  53.502  0.00  0.00     0.021 A 
ATOM     24  C   UNL d   1      52.956  29.965  53.017  0.00  0.00     0.099 A 
ATOM     25  N   UNL d   1      52.589  29.277  53.269  0.00  0.00    -0.242 NA
ATOM     26  C   UNL d   1      52.767  28.964  54.021  0.00  0.00     0.099 A 
ATOM     27  C   UNL d   1      53.313  29.352  54.507  0.00  0.00     0.021 A 
ATOM     28  C   UNL d   1      53.675  30.046  54.239  0.00  0.00     0.003 A 
ENDBRANCH  22  23
ENDBRANCH   1  22
TORSDOF 5
ENDMDL
MODEL 2
REMARK VINA RESULT:      -8.0      2.619      5.355
REMARK  5 active torsions:
REMARK  status: ('A' for Active; 'I' for Inactive)
REMARK    1  A    between atoms: O_8  and  S_1 
REMARK    2  A    between atoms: C_9  and  S_1 
REMARK    3  A    between atoms: C_7  and  C_2 
REMARK    4  A    between atoms: C_20  and  C_7 
REMARK    5  A    between atoms: C_14  and  O_8 
ROOT
ATOM      1  C   UNL d   1      51.969  33.842  53.066  0.00  0.00     0.139 A 
ATOM      2  C   UNL d   1      52.995  33.004  53.185  0.00  0.00     0.064 A 
ATOM      3  C   UNL d   1      52.769  33.790  53.263  0.00  0.00     0.220 A 
ATOM      4  C   UNL d   1      52.340  32.565  52.939  0.00  0.00     0.105 A 
ATOM      5  O   UNL d   1      51.704  33.087  52.866  0.00  0.00    -0.304 OA
ATOM      6  C   UNL d   1      52.413  31.763  52.818  0.00  0.00     0.050 A 
ATOM      7  C   UNL d   1      53.718  32.630  53.307  0.00  0.00     0.007 A 
ATOM      8  C   UNL d   1      53.137  31.389  52.940  0.00  0.00     0.116 A 
ATOM      9  O   UNL d   1      53.247  34.420  53.496  0.00  0.00    -0.284 OA
ATOM     10  C   UNL d   1      53.785  31.823  53.183  0.00  0.00     0.026 A 
ENDROOT
BRANCH   8  11
ATOM     11  O   UNL d   1      53.206  30.579  52.817  0.00  0.00    -0.227 OA
BRANCH  11  12
ATOM     12  S   UNL d   1      53.241  30.064  53.461  0.00  0.00     0.304 S 
ATOM     13  O   UNL d   1      54.042  30.194  53.522  0.00  0.00    -0.193 OA
ATOM     14  O   UNL d   1      52.434  29.925  53.410  0.00  0.00    -0.193 OA
BRANCH  12  15
ATOM     15  C   UNL d   1      53.281  29.545  54.113  0.00  0.00     0.111 A 
ATOM     16  C   UNL d   1      53.649  28.810  54.026  0.00  0.00     0.016 A 
ATOM     17  C   UNL d   1      53.690  28.295  54.670  0.00  0.00     0.030 A 
ATOM     18  C   UNL d   1      53.362  28.517  55.400  0.00  0.00     0.140 A 
ATOM     19  C   UNL d   1      52.996  29.257  55.474  0.00  0.00     0.030 A 
ATOM     20  F   UNL d   1      53.401  28.011  56.034  0.00  0.00    -0.204 F 
ATOM     21  C   UNL d   1      52.957  29.768  54.828  0.00  0.00     0.016 A 
ENDBRANCH  12  15
ENDBRANCH  11  12
ENDBRANCH   8  11
BRANCH   1  22
ATOM     22  C   UNL d   1      51.510  34.527  53.066  0.00  0.00     0.029 C 
BRANCH  22  23
ATOM     23  C   UNL d   1      50.758  34.531  52.720  0.00  0.00     0.021 A 
ATOM     24  C   UNL d   1      50.097  34.608  53.199  0.00  0.00     0.099 A 
ATOM     25  N   UNL d   1      49.347  34.613  52.869  0.00  0.00    -0.242 NA
ATOM     26  C   UNL d   1      49.257  34.539  52.043  0.00  0.00     0.099 A 
ATOM     27  C   UNL d   1      49.926  34.462  51.564  0.00  0.00     0.021 A 
ATOM     28  C   UNL d   1      50.677  34.458  51.911  0.00  0.00     0.003 A 
ENDBRANCH  22  23
ENDBRANCH   1  22
TORSDOF 5
ENDMDL
MODEL 3
REMARK VINA RESULT:      -8.0      2.532      5.586
REMARK  5 active torsions:
REMARK  status: ('A' for Active; 'I' for Inactive)
REMARK    1  A    between atoms: O_8  and  S_1 
REMARK    2  A    between atoms: C_9  and  S_1 
REMARK    3  A    between atoms: C_7  and  C_2 
REMARK    4  A    between atoms: C_20  and  C_7 
REMARK    5  A    between atoms: C_14  and  O_8 
ROOT
ATOM      1  C   UNL d   1      49.164  34.663  52.170  0.00  0.00     0.139 A 
ATOM      2  C   UNL d   1      50.423  34.368  51.862  0.00  0.00     0.064 A 
ATOM      3  C   UNL d   1      49.677  34.500  51.544  0.00  0.00     0.220 A 
ATOM      4  C   UNL d   1      50.378  34.448  52.682  0.00  0.00     0.105 A 
ATOM      5  O   UNL d   1      49.596  34.632  52.872  0.00  0.00    -0.304 OA
ATOM      6  C   UNL d   1      51.047  34.345  53.136  0.00  0.00     0.050 A 
ATOM      7  C   UNL d   1      51.142  34.184  51.505  0.00  0.00     0.007 A 
ATOM      8  C   UNL d   1      51.766  34.160  52.779  0.00  0.00     0.116 A 
ATOM      9  O   UNL d   1      49.468  34.476  50.747  0.00  0.00    -0.284 OA
ATOM     10  C   UNL d   1      51.811  34.081  51.967  0.00  0.00     0.026 A 
ENDROOT
BRANCH   8  11
ATOM     11  O   UNL d   1      52.439  34.057  53.241  0.00  0.00    -0.227 OA
BRANCH  11  12
ATOM     12  S   UNL d   1      52.751  33.301  53.353  0.00  0.00     0.304 S 
ATOM     13  O   UNL d   1      52.212  33.167  53.947  0.00  0.00    -0.193 OA
ATOM     14  O   UNL d   1      53.300  33.425  52.755  0.00  0.00    -0.193 OA
BRANCH  12  15
ATOM     15  C   UNL d   1      53.063  32.536  53.470  0.00  0.00     0.111 A 
ATOM     16  C   UNL d   1      52.751  31.899  53.045  0.00  0.00     0.016 A 
ATOM     17  C   UNL d   1      53.059  31.143  53.160  0.00  0.00     0.030 A 
ATOM     18  C   UNL d   1      53.678  31.023  53.700  0.00  0.00     0.140 A 
ATOM     19  C   UNL d   1      53.982  31.670  54.121  0.00  0.00     0.030 A 
ATOM     20  F   UNL d   1      53.981  30.278  53.814  0.00  0.00    -0.204 F 
ATOM     21  C   UNL d   1      53.672  32.425  54.003  0.00  0.00     0.016 A 
ENDBRANCH  12  15
ENDBRANCH  11  12
ENDBRANCH   8  11
BRANCH   1  22
ATOM     22  C   UNL d   1      48.358  34.830  52.109  0.00  0.00     0.029 C 
BRANCH  22  23
ATOM     23  C   UNL d   1      48.026  35.461  52.530  0.00  0.00     0.021 A 
ATOM     24  C   UNL d   1      48.058  35.455  53.349  0.00  0.00     0.099 A 
ATOM     25  N   UNL d   1      47.733  36.073  53.779  0.00  0.00    -0.242 NA
ATOM     26  C   UNL d   1      47.369  36.709  53.380  0.00  0.00     0.099 A 
ATOM     27  C   UNL d   1      47.339  36.709  52.554  0.00  0.00     0.021 A 
ATOM     28  C   UNL d   1      47.671  36.079  52.133  0.00  0.00     0.003 A 
ENDBRANCH  22  23
ENDBRANCH   1  22
TORSDOF 5
ENDMDL
MODEL 4
REMARK VINA RESULT:      -7.5      3.104      6.068
REMARK  5 active torsions:
REMARK  status: ('A' for Active; 'I' for Inactive)
REMARK    1  A    between atoms: O_8  and  S_1 
REMARK    2  A    between atoms: C_9  and  S_1 
REMARK    3  A    between atoms: C_7  and  C_2 
REMARK    4  A    between atoms: C_20  and  C_7 
REMARK    5  A    between atoms: C_14  and  O_8 
ROOT
ATOM      1  C   UNL d   1      48.021  36.049  52.840  0.00  0.00     0.139 A 
ATOM      2  C   UNL d   1      48.734  35.245  52.056  0.00  0.00     0.064 A 
ATOM      3  C   UNL d   1      48.138  35.812  52.058  0.00  0.00     0.220 A 
ATOM      4  C   UNL d   1      48.989  35.129  52.832  0.00  0.00     0.105 A 
ATOM      5  O   UNL d   1      48.546  35.629  53.318  0.00  0.00    -0.304 OA
ATOM      6  C   UNL d   1      49.581  34.591  52.986  0.00  0.00     0.050 A 
ATOM      7  C   UNL d   1      49.078  34.819  51.441  0.00  0.00     0.007 A 
ATOM      8  C   UNL d   1      49.925  34.165  52.372  0.00  0.00     0.116 A 
ATOM      9  O   UNL d   1      47.726  36.097  51.403  0.00  0.00    -0.284 OA
ATOM     10  C   UNL d   1      49.673  34.280  51.603  0.00  0.00     0.026 A 
ENDROOT
BRANCH   8  11
ATOM     11  O   UNL d   1      50.523  33.623  52.532  0.00  0.00    -0.227 OA
BRANCH  11  12
ATOM     12  S   UNL d   1      51.215  33.870  52.907  0.00  0.00     0.304 S 
ATOM     13  O   UNL d   1      50.910  33.638  53.624  0.00  0.00    -0.193 OA
ATOM     14  O   UNL d   1      51.534  34.108  52.188  0.00  0.00    -0.193 OA
BRANCH  12  15
ATOM     15  C   UNL d   1      51.913  34.119  53.290  0.00  0.00     0.111 A 
ATOM     16  C   UNL d   1      52.205  33.682  53.928  0.00  0.00     0.016 A 
ATOM     17  C   UNL d   1      52.896  33.927  54.308  0.00  0.00     0.030 A 
ATOM     18  C   UNL d   1      53.294  34.609  54.048  0.00  0.00     0.140 A 
ATOM     19  C   UNL d   1      52.990  35.038  53.407  0.00  0.00     0.030 A 
ATOM     20  F   UNL d   1      53.973  34.850  54.421  0.00  0.00    -0.204 F 
ATOM     21  C   UNL d   1      52.300  34.789  53.030  0.00  0.00     0.016 A 
ENDBRANCH  12  15
ENDBRANCH  11  12
ENDBRANCH   8  11
BRANCH   1  22
ATOM     22  C   UNL d   1      47.476  36.610  53.103  0.00  0.00     0.029 C 
BRANCH  22  23
ATOM     23  C   UNL d   1      47.023  36.471  53.782  0.00  0.00     0.021 A 
ATOM     24  C   UNL d   1      47.313  36.709  54.511  0.00  0.00     0.099 A 
ATOM     25  N   UNL d   1      46.875  36.578  55.191  0.00  0.00    -0.242 NA
ATOM     26  C   UNL d   1      46.133  36.200  55.140  0.00  0.00     0.099 A 
ATOM     27  C   UNL d   1      45.846  35.961  54.403  0.00  0.00     0.021 A 
ATOM     28  C   UNL d   1      46.299  36.100  53.724  0.00  0.00     0.003 A 
ENDBRANCH  22  23
ENDBRANCH   1  22
TORSDOF 5
ENDMDL
MODEL 5
REMARK VINA RESULT:      -7.3      1.920      2.646
REMARK  5 active torsions:
REMARK  status: ('A' for Active; 'I' for Inactive)
REMARK    1  A    between atoms: O_8  and  S_1 
REMARK    2  A    between atoms: C_9  and  S_1 
REMARK    3  A    between atoms: C_7  and  C_2 
REMARK    4  A    between atoms: C_20  and  C_7 
REMARK    5  A    between atoms: C_14  and  O_8 
ROOT
ATOM      1  C   UNL d   1      52.987  32.633  53.490  0.00  0.00     0.139 A 
ATOM      2  C   UNL d   1      51.731  32.766  53.073  0.00  0.00     0.064 A 
ATOM      3  C   UNL d   1      52.265  32.240  53.412  0.00  0.00     0.220 A 
ATOM      4  C   UNL d   1      52.117  33.483  52.941  0.00  0.00     0.105 A 
ATOM      5  O   UNL d   1      52.896  33.400  53.200  0.00  0.00    -0.304 OA
ATOM      6  C   UNL d   1      51.709  34.105  52.607  0.00  0.00     0.050 A 
ATOM      7  C   UNL d   1      50.939  32.680  52.868  0.00  0.00     0.007 A 
ATOM      8  C   UNL d   1      50.916  34.019  52.402  0.00  0.00     0.116 A 
ATOM      9  O   UNL d   1      52.117  31.461  53.635  0.00  0.00    -0.284 OA
ATOM     10  C   UNL d   1      50.535  33.309  52.533  0.00  0.00     0.026 A 
ENDROOT
BRANCH   8  11
ATOM     11  O   UNL d   1      50.508  34.649  52.066  0.00  0.00    -0.227 OA
BRANCH  11  12
ATOM     12  S   UNL d   1      49.830  34.945  52.430  0.00  0.00     0.304 S 
ATOM     13  O   UNL d   1      49.370  34.586  51.864  0.00  0.00    -0.193 OA
ATOM     14  O   UNL d   1      50.284  35.312  53.007  0.00  0.00    -0.193 OA
BRANCH  12  15
ATOM     15  C   UNL d   1      49.141  35.241  52.795  0.00  0.00     0.111 A 
ATOM     16  C   UNL d   1      48.439  35.294  52.360  0.00  0.00     0.016 A 
ATOM     17  C   UNL d   1      47.757  35.586  52.720  0.00  0.00     0.030 A 
ATOM     18  C   UNL d   1      47.777  35.827  53.515  0.00  0.00     0.140 A 
ATOM     19  C   UNL d   1      48.486  35.769  53.940  0.00  0.00     0.030 A 
ATOM     20  F   UNL d   1      47.105  36.115  53.870  0.00  0.00    -0.204 F 
ATOM     21  C   UNL d   1      49.166  35.475  53.577  0.00  0.00     0.016 A 
ENDBRANCH  12  15
ENDBRANCH  11  12
ENDBRANCH   8  11
BRANCH   1  22
ATOM     22  C   UNL d   1      53.682  32.318  53.804  0.00  0.00     0.029 C 
BRANCH  22  23
ATOM     23  C   UNL d   1      54.177  32.781  54.280  0.00  0.00     0.021 A 
ATOM     24  C   UNL d   1      54.818  33.161  53.940  0.00  0.00     0.099 A 
ATOM     25  N   UNL d   1      55.316  33.622  54.399  0.00  0.00    -0.242 NA
ATOM     26  C   UNL d   1      55.168  33.704  55.216  0.00  0.00     0.099 A 
ATOM     27  C   UNL d   1      54.520  33.318  55.555  0.00  0.00     0.021 A 
ATOM     28  C   UNL d   1      54.026  32.856  55.079  0.00  0.00     0.003 A 
ENDBRANCH  22  23
ENDBRANCH   1  22
TORSDOF 5
ENDMDL
MODEL 6
REMARK VINA RESULT:      -7.2      3.111      4.921
REMARK  5 active torsions:
REMARK  status: ('A' for Active; 'I' for Inactive)
REMARK    1  A    between atoms: O_8  and  S_1 
REMARK    2  A    between atoms: C_9  and  S_1 
REMARK    3  A    between atoms: C_7  and  C_2 
REMARK    4  A    between atoms: C_20  and  C_7 
REMARK    5  A    between atoms: C_14  and  O_8 
ROOT
ATOM      1  C   UNL d   1      49.936  34.368  52.211  0.00  0.00     0.139 A 
ATOM      2  C   UNL d   1      48.835  35.022  51.852  0.00  0.00     0.064 A 
ATOM      3  C   UNL d   1      49.401  34.486  51.593  0.00  0.00     0.220 A 
ATOM      4  C   UNL d   1      49.014  35.239  52.628  0.00  0.00     0.105 A 
ATOM      5  O   UNL d   1      49.698  34.832  52.850  0.00  0.00    -0.304 OA
ATOM      6  C   UNL d   1      48.536  35.770  53.020  0.00  0.00     0.050 A 
ATOM      7  C   UNL d   1      48.175  35.342  51.477  0.00  0.00     0.007 A 
ATOM      8  C   UNL d   1      47.876  36.089  52.644  0.00  0.00     0.116 A 
ATOM      9  O   UNL d   1      49.438  34.125  50.852  0.00  0.00    -0.284 OA
ATOM     10  C   UNL d   1      47.699  35.875  51.876  0.00  0.00     0.026 A 
ENDROOT
BRANCH   8  11
ATOM     11  O   UNL d   1      47.396  36.625  53.044  0.00  0.00    -0.227 OA
BRANCH  11  12
ATOM     12  S   UNL d   1      46.781  36.352  53.522  0.00  0.00     0.304 S 
ATOM     13  O   UNL d   1      46.282  36.353  52.881  0.00  0.00    -0.193 OA
ATOM     14  O   UNL d   1      47.276  36.347  54.177  0.00  0.00    -0.193 OA
BRANCH  12  15
ATOM     15  C   UNL d   1      46.157  36.077  54.001  0.00  0.00     0.111 A 
ATOM     16  C   UNL d   1      46.178  36.214  54.817  0.00  0.00     0.016 A 
ATOM     17  C   UNL d   1      45.561  35.941  55.292  0.00  0.00     0.030 A 
ATOM     18  C   UNL d   1      44.923  35.532  54.952  0.00  0.00     0.140 A 
ATOM     19  C   UNL d   1      44.914  35.401  54.133  0.00  0.00     0.030 A 
ATOM     20  F   UNL d   1      44.316  35.264  55.419  0.00  0.00    -0.204 F 
ATOM     21  C   UNL d   1      45.533  35.675  53.661  0.00  0.00     0.016 A 
ENDBRANCH  12  15
ENDBRANCH  11  12
ENDBRANCH   8  11
BRANCH   1  22
ATOM     22  C   UNL d   1      50.596  33.873  52.197  0.00  0.00     0.029 C 
BRANCH  22  23
ATOM     23  C   UNL d   1      51.241  34.018  52.695  0.00  0.00     0.021 A 
ATOM     24  C   UNL d   1      51.804  34.570  52.470  0.00  0.00     0.099 A 
ATOM     25  N   UNL d   1      52.448  34.723  52.954  0.00  0.00    -0.242 NA
ATOM     26  C   UNL d   1      52.530  34.315  53.676  0.00  0.00     0.099 A 
ATOM     27  C   UNL d   1      51.959  33.759  53.899  0.00  0.00     0.021 A 
ATOM     28  C   UNL d   1      51.315  33.614  53.401  0.00  0.00     0.003 A 
ENDBRANCH  22  23
ENDBRANCH   1  22
TORSDOF 5
ENDMDL
