MODEL 1
REMARK VINA RESULT:      -3.2      0.000      0.000
REMARK  5 active torsions:
REMARK  status: ('A' for Active; 'I' for Inactive)
REMARK    1  A    between atoms: C_9  and  N_2 
REMARK    2  A    between atoms: C_7  and  O_10 
REMARK    3  A    between atoms: C_11  and  C_9 
REMARK    4  A    between atoms: O_10  and  C_14 
REMARK    5  A    between atoms: C_14  and  C_11 
ROOT
ATOM      1  C   UNL d   1      33.198  19.071 -23.146  0.00  0.00     0.086 C 
ENDROOT
BRANCH   1   2
ATOM      2  N   UNL d   1      32.882  18.730 -23.825  0.00  0.00    -0.268 N 
ATOM      3  C   UNL d   1      32.902  19.057 -24.581  0.00  0.00     0.296 A 
ATOM      4  S   UNL d   1      32.519  18.526 -25.096  0.00  0.00    -0.025 SA
ATOM      5  O   UNL d   1      33.238  19.777 -24.799  0.00  0.00    -0.259 OA
ATOM      6  C   UNL d   1      32.270  17.880 -24.645  0.00  0.00     0.050 A 
ATOM      7  C   UNL d   1      31.861  17.182 -24.854  0.00  0.00     0.008 A 
ATOM      8  C   UNL d   1      32.491  18.002 -23.866  0.00  0.00     0.073 A 
ATOM      9  C   UNL d   1      31.684  16.625 -24.275  0.00  0.00     0.001 A 
ATOM     10  C   UNL d   1      31.911  16.757 -23.489  0.00  0.00     0.002 A 
ATOM     11  C   UNL d   1      32.316  17.445 -23.282  0.00  0.00     0.018 A 
ENDBRANCH   1   2
BRANCH   1  12
ATOM     12  C   UNL d   1      32.957  19.827 -22.907  0.00  0.00     0.046 C 
BRANCH  12  13
ATOM     13  C   UNL d   1      33.125  20.101 -22.149  0.00  0.00     0.124 C 
BRANCH  13  14
ATOM     14  O   UNL d   1      32.961  20.876 -21.946  0.00  0.00    -0.305 OA
BRANCH  14  15
ATOM     15  C   UNL d   1      32.797  21.662 -21.743  0.00  0.00     0.100 A 
ATOM     16  C   UNL d   1      32.378  21.831 -21.055  0.00  0.00     0.023 A 
ATOM     17  C   UNL d   1      32.123  21.214 -20.569  0.00  0.00     0.002 C 
ATOM     18  C   UNL d   1      32.217  22.608 -20.856  0.00  0.00     0.002 A 
ATOM     19  C   UNL d   1      32.474  23.221 -21.344  0.00  0.00     0.000 A 
ATOM     20  C   UNL d   1      32.894  23.048 -22.034  0.00  0.00     0.002 A 
ATOM     21  C   UNL d   1      33.054  22.258 -22.229  0.00  0.00     0.025 A 
ENDBRANCH  14  15
ENDBRANCH  13  14
ENDBRANCH  12  13
ENDBRANCH   1  12
TORSDOF 5
ENDMDL
MODEL 2
REMARK VINA RESULT:      -3.0      1.529      5.061
REMARK  5 active torsions:
REMARK  status: ('A' for Active; 'I' for Inactive)
REMARK    1  A    between atoms: C_9  and  N_2 
REMARK    2  A    between atoms: C_7  and  O_10 
REMARK    3  A    between atoms: C_11  and  C_9 
REMARK    4  A    between atoms: O_10  and  C_14 
REMARK    5  A    between atoms: C_14  and  C_11 
ROOT
ATOM      1  C   UNL d   1      33.241  20.834 -22.406  0.00  0.00     0.086 C 
ENDROOT
BRANCH   1   2
ATOM      2  N   UNL d   1      32.946  21.222 -21.743  0.00  0.00    -0.268 N 
ATOM      3  C   UNL d   1      32.867  20.895 -20.991  0.00  0.00     0.296 A 
ATOM      4  S   UNL d   1      32.547  21.482 -20.494  0.00  0.00    -0.025 SA
ATOM      5  O   UNL d   1      33.066  20.130 -20.761  0.00  0.00    -0.259 OA
ATOM      6  C   UNL d   1      32.434  22.160 -20.952  0.00  0.00     0.050 A 
ATOM      7  C   UNL d   1      32.133  22.916 -20.761  0.00  0.00     0.008 A 
ATOM      8  C   UNL d   1      32.677  22.004 -21.718  0.00  0.00     0.073 A 
ATOM      9  C   UNL d   1      32.085  23.495 -21.343  0.00  0.00     0.001 A 
ATOM     10  C   UNL d   1      32.334  23.328 -22.115  0.00  0.00     0.002 A 
ATOM     11  C   UNL d   1      32.631  22.582 -22.305  0.00  0.00     0.018 A 
ENDBRANCH   1   2
BRANCH   1  12
ATOM     12  C   UNL d   1      32.954  20.084 -22.615  0.00  0.00     0.046 C 
BRANCH  12  13
ATOM     13  C   UNL d   1      33.156  19.743 -23.336  0.00  0.00     0.124 C 
BRANCH  13  14
ATOM     14  O   UNL d   1      32.867  19.004 -23.538  0.00  0.00    -0.305 OA
BRANCH  14  15
ATOM     15  C   UNL d   1      32.572  18.258 -23.739  0.00  0.00     0.100 A 
ATOM     16  C   UNL d   1      32.363  18.094 -24.518  0.00  0.00     0.023 A 
ATOM     17  C   UNL d   1      32.450  18.677 -25.097  0.00  0.00     0.002 C 
ATOM     18  C   UNL d   1      32.072  17.355 -24.716  0.00  0.00     0.002 A 
ATOM     19  C   UNL d   1      31.987  16.776 -24.135  0.00  0.00     0.000 A 
ATOM     20  C   UNL d   1      32.197  16.944 -23.354  0.00  0.00     0.002 A 
ATOM     21  C   UNL d   1      32.492  17.695 -23.161  0.00  0.00     0.025 A 
ENDBRANCH  14  15
ENDBRANCH  13  14
ENDBRANCH  12  13
ENDBRANCH   1  12
TORSDOF 5
ENDMDL
MODEL 3
REMARK VINA RESULT:      -3.0      1.723      2.548
REMARK  5 active torsions:
REMARK  status: ('A' for Active; 'I' for Inactive)
REMARK    1  A    between atoms: C_9  and  N_2 
REMARK    2  A    between atoms: C_7  and  O_10 
REMARK    3  A    between atoms: C_11  and  C_9 
REMARK    4  A    between atoms: O_10  and  C_14 
REMARK    5  A    between atoms: C_14  and  C_11 
ROOT
ATOM      1  C   UNL d   1      32.126  17.587 -24.010  0.00  0.00     0.086 C 
ENDROOT
BRANCH   1   2
ATOM      2  N   UNL d   1      31.677  16.916 -23.853  0.00  0.00    -0.268 N 
ATOM      3  C   UNL d   1      31.951  16.230 -23.488  0.00  0.00     0.296 A 
ATOM      4  S   UNL d   1      31.312  15.697 -23.442  0.00  0.00    -0.025 SA
ATOM      5  O   UNL d   1      32.715  16.085 -23.215  0.00  0.00    -0.259 OA
ATOM      6  C   UNL d   1      30.656  16.067 -23.780  0.00  0.00     0.050 A 
ATOM      7  C   UNL d   1      29.868  15.810 -23.891  0.00  0.00     0.008 A 
ATOM      8  C   UNL d   1      30.876  16.814 -24.033  0.00  0.00     0.073 A 
ATOM      9  C   UNL d   1      29.323  16.310 -24.252  0.00  0.00     0.001 A 
ATOM     10  C   UNL d   1      29.556  17.063 -24.504  0.00  0.00     0.002 A 
ATOM     11  C   UNL d   1      30.333  17.319 -24.395  0.00  0.00     0.018 A 
ENDBRANCH   1   2
BRANCH   1  12
ATOM     12  C   UNL d   1      32.397  18.065 -23.388  0.00  0.00     0.046 C 
BRANCH  12  13
ATOM     13  C   UNL d   1      32.905  18.696 -23.534  0.00  0.00     0.124 C 
BRANCH  13  14
ATOM     14  O   UNL d   1      32.987  19.294 -22.982  0.00  0.00    -0.305 OA
BRANCH  14  15
ATOM     15  C   UNL d   1      33.070  19.901 -22.426  0.00  0.00     0.100 A 
ATOM     16  C   UNL d   1      33.159  20.681 -22.677  0.00  0.00     0.023 A 
ATOM     17  C   UNL d   1      33.165  20.852 -23.485  0.00  0.00     0.002 C 
ATOM     18  C   UNL d   1      33.241  21.279 -22.126  0.00  0.00     0.002 A 
ATOM     19  C   UNL d   1      33.235  21.104 -21.320  0.00  0.00     0.000 A 
ATOM     20  C   UNL d   1      33.145  20.321 -21.072  0.00  0.00     0.002 A 
ATOM     21  C   UNL d   1      33.062  19.719 -21.636  0.00  0.00     0.025 A 
ENDBRANCH  14  15
ENDBRANCH  13  14
ENDBRANCH  12  13
ENDBRANCH   1  12
TORSDOF 5
ENDMDL
