MODEL 1
REMARK VINA RESULT:      35.3      0.000      0.000
REMARK  6 active torsions:
REMARK  status: ('A' for Active; 'I' for Inactive)
REMARK    1  A    between atoms: N_14  and  C_6 
REMARK    2  A    between atoms: C_20  and  N_14 
REMARK    3  A    between atoms: O_19  and  C_22 
REMARK    4  A    between atoms: C_23  and  O_19 
REMARK    5  A    between atoms: C_22  and  C_20 
REMARK    6  A    between atoms: C_21  and  C_23 
ROOT
ATOM      1  N   UNL d   1     -57.070 -98.756 -44.465  0.00  0.00    -0.193 N 
ATOM      2  C   UNL d   1     -57.890 -98.756 -44.338  0.00  0.00     0.168 A 
ATOM      3  C   UNL d   1     -58.410 -98.756 -44.969  0.00  0.00     0.073 A 
ATOM      4  C   UNL d   1     -58.106 -98.756 -45.728  0.00  0.00     0.185 A 
ATOM      5  N   UNL d   1     -57.286 -98.756 -45.856  0.00  0.00    -0.143 NA
ATOM      6  C   UNL d   1     -56.566 -98.756 -43.822  0.00  0.00     0.167 A 
ATOM      7  N   UNL d   1     -58.183 -98.755 -43.571  0.00  0.00    -0.227 NA
ATOM      8  C   UNL d   1     -59.221 -98.755 -44.843  0.00  0.00     0.007 A 
ATOM      9  N   UNL d   1     -58.620 -98.756 -46.378  0.00  0.00    -0.225 NA
ATOM     10  C   UNL d   1     -56.851 -98.756 -43.061  0.00  0.00     0.058 A 
ATOM     11  C   UNL d   1     -59.741 -98.755 -45.474  0.00  0.00     0.019 A 
ATOM     12  C   UNL d   1     -57.672 -98.755 -42.934  0.00  0.00     0.086 A 
ATOM     13  C   UNL d   1     -59.440 -98.755 -46.250  0.00  0.00     0.083 A 
ATOM     14  C   UNL d   1     -59.515 -98.755 -44.072  0.00  0.00     0.000 C 
ATOM     15  C   UNL d   1     -57.973 -98.755 -42.135  0.00  0.00     0.021 C 
ATOM     16  C   UNL d   1     -59.953 -98.755 -46.883  0.00  0.00     0.021 C 
ENDROOT
BRANCH   6  17
ATOM     17  N   UNL d   1     -55.721 -98.756 -43.963  0.00  0.00    -0.223 NA
BRANCH  17  18
ATOM     18  C   UNL d   1     -54.982 -99.107 -44.171  0.00  0.00     0.127 C 
BRANCH  18  19
ATOM     19  C   UNL d   1     -54.842 -99.932 -44.001  0.00  0.00     0.143 C 
BRANCH  19  20
ATOM     20  O   UNL d   1     -55.095-100.533 -44.545  0.00  0.00    -0.298 OA
BRANCH  20  21
ATOM     21  C   UNL d   1     -54.751-101.314 -44.517  0.00  0.00     0.168 C 
BRANCH  21  22
ATOM     22  C   UNL d   1     -55.225-101.978 -44.266  0.00  0.00     0.261 C 
ATOM     23  O   UNL d   1     -55.151-102.728 -44.672  0.00  0.00    -0.281 OA
ENDBRANCH  21  22
ENDBRANCH  20  21
ENDBRANCH  19  20
ENDBRANCH  18  19
ENDBRANCH  17  18
ENDBRANCH   6  17
TORSDOF 6
ENDMDL
