MODEL 1
REMARK VINA RESULT:      -7.2      0.000      0.000
REMARK  1 active torsions:
REMARK  status: ('A' for Active; 'I' for Inactive)
REMARK    1  A    between atoms: C_2  and  C_1 
REMARK       I    between atoms: N_3  and  C_2 
ROOT
ATOM      1  C   UNL d   1      56.622  -0.106  32.672  0.00  0.00     0.109 A 
ATOM      2  C   UNL d   1      56.544  -0.857  32.625  0.00  0.00     0.026 A 
ATOM      3  C   UNL d   1      56.074   0.213  33.001  0.00  0.00    -0.014 A 
ATOM      4  C   UNL d   1      56.224   0.570  32.963  0.00  0.00    -0.014 A 
ATOM      5  C   UNL d   1      55.822  -1.081  32.983  0.00  0.00     0.045 A 
ATOM      6  C   UNL d   1      55.624   0.401  33.262  0.00  0.00    -0.007 A 
ATOM      7  C   UNL d   1      55.329  -0.015  33.371  0.00  0.00    -0.007 A 
ATOM      8  C   UNL d   1      55.253  -0.746  33.325  0.00  0.00    -0.022 A 
ATOM      9  C   UNL d   1      54.909   0.663  33.674  0.00  0.00    -0.001 A 
ATOM     10  C   UNL d   1      55.498  -0.557  33.217  0.00  0.00    -0.022 A 
ENDROOT
BRANCH   1  11
ATOM     11  C   UNL d   1      57.383   0.262  32.311  0.00  0.00     0.248 C 
ATOM     12  N   UNL d   1      57.736   0.276  31.596  0.00  0.00    -0.275 N 
ATOM     13  C   UNL d   1      58.418   0.671  31.496  0.00  0.00     0.083 A 
ATOM     14  C   UNL d   1      57.392  -0.113  30.987  0.00  0.00     0.083 A 
ATOM     15  C   UNL d   1      58.780   0.682  30.754  0.00  0.00     0.019 A 
ATOM     16  C   UNL d   1      58.447   0.296  30.131  0.00  0.00     0.003 A 
ATOM     17  C   UNL d   1      57.752  -0.103  30.246  0.00  0.00     0.019 A 
ATOM     18  O   UNL d   1      57.568   0.616  33.136  0.00  0.00    -0.271 OA
ENDBRANCH   1  11
TORSDOF 1
ENDMDL
MODEL 2
REMARK VINA RESULT:      -5.2      0.826      3.451
REMARK  1 active torsions:
REMARK  status: ('A' for Active; 'I' for Inactive)
REMARK    1  A    between atoms: C_2  and  C_1 
REMARK       I    between atoms: N_3  and  C_2 
ROOT
ATOM      1  C   UNL d   1      57.519  -0.087  31.514  0.00  0.00     0.109 A 
ATOM      2  C   UNL d   1      58.010   0.337  31.903  0.00  0.00     0.026 A 
ATOM      3  C   UNL d   1      57.643  -0.085  30.810  0.00  0.00    -0.014 A 
ATOM      4  C   UNL d   1      57.345  -0.322  30.730  0.00  0.00    -0.014 A 
ATOM      5  C   UNL d   1      58.556   0.681  31.372  0.00  0.00     0.045 A 
ATOM      6  C   UNL d   1      57.788  -0.044  30.278  0.00  0.00    -0.007 A 
ATOM      7  C   UNL d   1      58.205   0.269  30.260  0.00  0.00    -0.007 A 
ATOM      8  C   UNL d   1      58.683   0.682  30.639  0.00  0.00    -0.022 A 
ATOM      9  C   UNL d   1      58.042   0.040  29.454  0.00  0.00    -0.001 A 
ATOM     10  C   UNL d   1      58.430   0.504  30.750  0.00  0.00    -0.022 A 
ENDROOT
BRANCH   1  11
ATOM     11  C   UNL d   1      56.865  -0.520  31.992  0.00  0.00     0.248 C 
ATOM     12  N   UNL d   1      56.283  -0.314  32.497  0.00  0.00    -0.275 N 
ATOM     13  C   UNL d   1      55.810  -0.870  32.810  0.00  0.00     0.083 A 
ATOM     14  C   UNL d   1      56.188   0.460  32.680  0.00  0.00     0.083 A 
ATOM     15  C   UNL d   1      55.210  -0.650  33.332  0.00  0.00     0.019 A 
ATOM     16  C   UNL d   1      55.100   0.123  33.527  0.00  0.00     0.003 A 
ATOM     17  C   UNL d   1      55.588   0.680  33.202  0.00  0.00     0.019 A 
ATOM     18  O   UNL d   1      57.168  -1.309  31.636  0.00  0.00    -0.271 OA
ENDBRANCH   1  11
TORSDOF 1
ENDMDL
MODEL 3
REMARK VINA RESULT:      -5.1      1.124      3.212
REMARK  1 active torsions:
REMARK  status: ('A' for Active; 'I' for Inactive)
REMARK    1  A    between atoms: C_2  and  C_1 
REMARK       I    between atoms: N_3  and  C_2 
ROOT
ATOM      1  C   UNL d   1      56.510  -0.301  32.777  0.00  0.00     0.109 A 
ATOM      2  C   UNL d   1      56.346  -1.017  32.595  0.00  0.00     0.026 A 
ATOM      3  C   UNL d   1      56.861   0.045  32.259  0.00  0.00    -0.014 A 
ATOM      4  C   UNL d   1      56.885   0.378  32.461  0.00  0.00    -0.014 A 
ATOM      5  C   UNL d   1      56.635  -1.179  31.827  0.00  0.00     0.045 A 
ATOM      6  C   UNL d   1      57.129   0.260  31.826  0.00  0.00    -0.007 A 
ATOM      7  C   UNL d   1      57.160  -0.118  31.467  0.00  0.00    -0.007 A 
ATOM      8  C   UNL d   1      57.000  -0.816  31.290  0.00  0.00    -0.022 A 
ATOM      9  C   UNL d   1      57.546   0.564  31.130  0.00  0.00    -0.001 A 
ATOM     10  C   UNL d   1      56.933  -0.651  31.567  0.00  0.00    -0.022 A 
ENDROOT
BRANCH   1  11
ATOM     11  C   UNL d   1      56.242  -0.004  33.603  0.00  0.00     0.248 C 
ATOM     12  N   UNL d   1      55.557   0.220  33.944  0.00  0.00    -0.275 N 
ATOM     13  C   UNL d   1      55.546   0.452  34.704  0.00  0.00     0.083 A 
ATOM     14  C   UNL d   1      54.885   0.204  33.507  0.00  0.00     0.083 A 
ATOM     15  C   UNL d   1      54.833   0.682  35.050  0.00  0.00     0.019 A 
ATOM     16  C   UNL d   1      54.149   0.673  34.626  0.00  0.00     0.003 A 
ATOM     17  C   UNL d   1      54.173   0.434  33.853  0.00  0.00     0.019 A 
ATOM     18  O   UNL d   1      57.114  -0.072  33.879  0.00  0.00    -0.271 OA
ENDBRANCH   1  11
TORSDOF 1
ENDMDL
MODEL 4
REMARK VINA RESULT:      -5.1      9.149      9.836
REMARK  1 active torsions:
REMARK  status: ('A' for Active; 'I' for Inactive)
REMARK    1  A    between atoms: C_2  and  C_1 
REMARK       I    between atoms: N_3  and  C_2 
ROOT
ATOM      1  C   UNL d   1      59.888  -9.006  34.923  0.00  0.00     0.109 A 
ATOM      2  C   UNL d   1      59.640  -9.615  35.296  0.00  0.00     0.026 A 
ATOM      3  C   UNL d   1      59.726  -8.391  35.251  0.00  0.00    -0.014 A 
ATOM      4  C   UNL d   1      59.897  -8.170  34.979  0.00  0.00    -0.014 A 
ATOM      5  C   UNL d   1      59.245  -9.370  35.991  0.00  0.00     0.045 A 
ATOM      6  C   UNL d   1      59.573  -7.952  35.549  0.00  0.00    -0.007 A 
ATOM      7  C   UNL d   1      59.320  -8.135  35.967  0.00  0.00    -0.007 A 
ATOM      8  C   UNL d   1      59.078  -8.729  36.330  0.00  0.00    -0.022 A 
ATOM      9  C   UNL d   1      59.318  -7.285  36.041  0.00  0.00    -0.001 A 
ATOM     10  C   UNL d   1      59.244  -8.713  36.047  0.00  0.00    -0.022 A 
ENDROOT
BRANCH   1  11
ATOM     11  C   UNL d   1      60.342  -9.148  34.137  0.00  0.00     0.248 C 
ATOM     12  N   UNL d   1      60.156  -9.368  33.393  0.00  0.00    -0.275 N 
ATOM     13  C   UNL d   1      60.726  -9.432  32.843  0.00  0.00     0.083 A 
ATOM     14  C   UNL d   1      59.391  -9.521  33.215  0.00  0.00     0.083 A 
ATOM     15  C   UNL d   1      60.528  -9.660  32.075  0.00  0.00     0.019 A 
ATOM     16  C   UNL d   1      59.763  -9.818  31.878  0.00  0.00     0.003 A 
ATOM     17  C   UNL d   1      59.193  -9.749  32.448  0.00  0.00     0.019 A 
ATOM     18  O   UNL d   1      61.115  -8.925  34.577  0.00  0.00    -0.271 OA
ENDBRANCH   1  11
TORSDOF 1
ENDMDL
