MODEL 1
REMARK VINA RESULT:      -0.9      0.000      0.000
REMARK  4 active torsions:
REMARK  status: ('A' for Active; 'I' for Inactive)
REMARK    1  A    between atoms: C_4  and  C_1 
REMARK       I    between atoms: N_6  and  C_4 
REMARK    2  A    between atoms: C_9  and  N_6 
REMARK    3  A    between atoms: C_12  and  N_6 
REMARK    4  A    between atoms: C_17  and  C_12 
ROOT
ATOM      1  C   UNL d   1      58.010  -1.113  29.390  0.00  0.00     0.272 C 
ATOM      2  N   UNL d   1      58.780  -1.087  29.099  0.00  0.00    -0.258 N 
ATOM      3  O   UNL d   1      57.461  -1.618  29.057  0.00  0.00    -0.266 OA
ENDROOT
BRANCH   2   4
ATOM      4  C   UNL d   1      59.348  -0.571  29.435  0.00  0.00     0.150 A 
ATOM      5  N   UNL d   1      59.762  -0.818  30.116  0.00  0.00    -0.227 NA
ATOM      6  C   UNL d   1      60.327  -0.304  30.450  0.00  0.00     0.101 A 
ATOM      7  C   UNL d   1      60.471   0.434  30.108  0.00  0.00     0.021 A 
ATOM      8  C   UNL d   1      60.055   0.673  29.431  0.00  0.00     0.005 A 
ATOM      9  C   UNL d   1      59.494   0.170  29.095  0.00  0.00     0.037 A 
ENDBRANCH   2   4
BRANCH   2  10
ATOM     10  C   UNL d   1      59.007  -1.575  28.463  0.00  0.00     0.084 C 
BRANCH  10  11
ATOM     11  C   UNL d   1      59.262  -2.345  28.601  0.00  0.00     0.018 A 
ATOM     12  C   UNL d   1      60.067  -2.504  28.690  0.00  0.00     0.002 A 
ATOM     13  C   UNL d   1      60.319  -3.275  28.827  0.00  0.00     0.000 A 
ATOM     14  C   UNL d   1      59.773  -3.886  28.877  0.00  0.00     0.000 A 
ATOM     15  C   UNL d   1      58.957  -3.725  28.787  0.00  0.00     0.000 A 
ATOM     16  C   UNL d   1      58.714  -2.953  28.650  0.00  0.00     0.002 A 
ENDBRANCH  10  11
ENDBRANCH   2  10
BRANCH   1  17
ATOM     17  C   UNL d   1      57.800  -0.621  30.023  0.00  0.00     0.132 A 
ATOM     18  C   UNL d   1      57.515  -0.960  30.722  0.00  0.00     0.272 A 
ATOM     19  N   UNL d   1      57.301  -0.479  31.364  0.00  0.00    -0.265 N 
ATOM     20  O   UNL d   1      57.440  -1.779  30.789  0.00  0.00    -0.266 OA
ATOM     21  C   UNL d   1      57.009  -0.650  32.109  0.00  0.00     0.123 A 
ATOM     22  C   UNL d   1      57.376   0.340  31.296  0.00  0.00     0.181 A 
ATOM     23  C   UNL d   1      56.899   0.055  32.511  0.00  0.00     0.043 A 
ATOM     24  S   UNL d   1      57.127   0.678  32.008  0.00  0.00    -0.049 SA
ATOM     25  N   UNL d   1      57.659   0.679  30.602  0.00  0.00    -0.220 NA
ATOM     26  C   UNL d   1      57.872   0.199  29.963  0.00  0.00     0.111 A 
ENDBRANCH   1  17
TORSDOF 4
ENDMDL
