MODEL 1
REMARK VINA RESULT:      -3.4      0.000      0.000
REMARK  5 active torsions:
REMARK  status: ('A' for Active; 'I' for Inactive)
REMARK    1  A    between atoms: C_10  and  C_3 
REMARK    2  A    between atoms: N_12  and  C_4 
REMARK    3  A    between atoms: N_11  and  C_15 
REMARK    4  A    between atoms: C_14  and  N_12 
REMARK    5  A    between atoms: C_15  and  C_14 
ROOT
ATOM      1  C   UNL d   1      59.211  -1.013  29.691  0.00  0.00     0.167 A 
ATOM      2  N   UNL d   1      58.451  -0.755  29.898  0.00  0.00    -0.195 N 
ATOM      3  C   UNL d   1      59.135  -1.747  29.340  0.00  0.00     0.057 A 
ATOM      4  C   UNL d   1      58.353  -0.028  30.264  0.00  0.00     0.167 A 
ATOM      5  N   UNL d   1      57.923  -1.336  29.669  0.00  0.00    -0.161 NA
ATOM      6  N   UNL d   1      59.860  -0.540  29.855  0.00  0.00    -0.227 NA
ATOM      7  C   UNL d   1      59.012   0.447  30.426  0.00  0.00     0.058 A 
ATOM      8  C   UNL d   1      58.333  -1.942  29.329  0.00  0.00     0.124 A 
ATOM      9  C   UNL d   1      59.756   0.194  30.225  0.00  0.00     0.086 A 
ATOM     10  C   UNL d   1      60.407   0.681  30.395  0.00  0.00     0.021 C 
ENDROOT
BRANCH   4  11
ATOM     11  N   UNL d   1      57.594   0.230  30.470  0.00  0.00    -0.224 NA
BRANCH  11  12
ATOM     12  C   UNL d   1      57.405   0.353  31.258  0.00  0.00     0.120 C 
BRANCH  12  13
ATOM     13  C   UNL d   1      56.619   0.278  31.510  0.00  0.00     0.101 C 
BRANCH  13  14
ATOM     14  N   UNL d   1      56.446   0.183  32.311  0.00  0.00    -0.298 N 
ATOM     15  C   UNL d   1      56.809   0.676  32.864  0.00  0.00     0.107 A 
ATOM     16  C   UNL d   1      56.637   0.584  33.674  0.00  0.00     0.142 A 
ATOM     17  O   UNL d   1      56.109   0.007  33.918  0.00  0.00    -0.300 OA
ATOM     18  C   UNL d   1      55.745  -0.489  33.356  0.00  0.00     0.142 A 
ATOM     19  C   UNL d   1      55.915  -0.398  32.557  0.00  0.00     0.107 A 
ENDBRANCH  13  14
ENDBRANCH  12  13
ENDBRANCH  11  12
ENDBRANCH   4  11
BRANCH   3  20
ATOM     20  C   UNL d   1      59.803  -2.153  29.072  0.00  0.00     0.004 A 
ATOM     21  C   UNL d   1      59.841  -2.979  29.156  0.00  0.00     0.000 A 
ATOM     22  C   UNL d   1      60.497  -3.386  28.893  0.00  0.00     0.000 A 
ATOM     23  C   UNL d   1      61.130  -2.977  28.539  0.00  0.00     0.000 A 
ATOM     24  C   UNL d   1      61.093  -2.164  28.456  0.00  0.00     0.000 A 
ATOM     25  C   UNL d   1      60.428  -1.754  28.723  0.00  0.00     0.000 A 
ENDBRANCH   3  20
TORSDOF 5
ENDMDL
MODEL 2
REMARK VINA RESULT:      -3.3      0.918      1.297
REMARK  5 active torsions:
REMARK  status: ('A' for Active; 'I' for Inactive)
REMARK    1  A    between atoms: C_10  and  C_3 
REMARK    2  A    between atoms: N_12  and  C_4 
REMARK    3  A    between atoms: N_11  and  C_15 
REMARK    4  A    between atoms: C_14  and  N_12 
REMARK    5  A    between atoms: C_15  and  C_14 
ROOT
ATOM      1  C   UNL d   1      58.921  -0.182  30.215  0.00  0.00     0.167 A 
ATOM      2  N   UNL d   1      58.137   0.037  30.375  0.00  0.00    -0.195 N 
ATOM      3  C   UNL d   1      58.921  -0.595  29.510  0.00  0.00     0.057 A 
ATOM      4  C   UNL d   1      57.965   0.463  31.055  0.00  0.00     0.167 A 
ATOM      5  N   UNL d   1      57.673  -0.246  29.766  0.00  0.00    -0.161 NA
ATOM      6  N   UNL d   1      59.517   0.029  30.736  0.00  0.00    -0.227 NA
ATOM      7  C   UNL d   1      58.571   0.673  31.578  0.00  0.00     0.058 A 
ATOM      8  C   UNL d   1      58.143  -0.631  29.236  0.00  0.00     0.124 A 
ATOM      9  C   UNL d   1      59.338   0.459  31.421  0.00  0.00     0.086 A 
ATOM     10  C   UNL d   1      59.935   0.677  31.955  0.00  0.00     0.021 C 
ENDROOT
BRANCH   4  11
ATOM     11  N   UNL d   1      57.183   0.682  31.215  0.00  0.00    -0.224 NA
BRANCH  11  12
ATOM     12  C   UNL d   1      56.897   0.642  31.984  0.00  0.00     0.120 C 
BRANCH  12  13
ATOM     13  C   UNL d   1      56.123   0.384  32.123  0.00  0.00     0.101 C 
BRANCH  13  14
ATOM     14  N   UNL d   1      55.903   0.106  32.868  0.00  0.00    -0.298 N 
ATOM     15  C   UNL d   1      55.781   0.645  33.480  0.00  0.00     0.107 A 
ATOM     16  C   UNL d   1      55.559   0.367  34.234  0.00  0.00     0.142 A 
ATOM     17  O   UNL d   1      55.464  -0.436  34.364  0.00  0.00    -0.300 OA
ATOM     18  C   UNL d   1      55.588  -0.976  33.742  0.00  0.00     0.142 A 
ATOM     19  C   UNL d   1      55.807  -0.702  32.998  0.00  0.00     0.107 A 
ENDBRANCH  13  14
ENDBRANCH  12  13
ENDBRANCH  11  12
ENDBRANCH   4  11
BRANCH   3  20
ATOM     20  C   UNL d   1      59.628  -0.890  29.198  0.00  0.00     0.004 A 
ATOM     21  C   UNL d   1      60.183  -0.364  28.873  0.00  0.00     0.000 A 
ATOM     22  C   UNL d   1      60.882  -0.648  28.564  0.00  0.00     0.000 A 
ATOM     23  C   UNL d   1      61.042  -1.465  28.573  0.00  0.00     0.000 A 
ATOM     24  C   UNL d   1      60.496  -1.983  28.894  0.00  0.00     0.000 A 
ATOM     25  C   UNL d   1      59.789  -1.693  29.206  0.00  0.00     0.000 A 
ENDBRANCH   3  20
TORSDOF 5
ENDMDL
