MODEL 1
REMARK VINA RESULT:     130.7      0.000      0.000
REMARK  2 active torsions:
REMARK  status: ('A' for Active; 'I' for Inactive)
REMARK    1  A    between atoms: N_9  and  C_2 
REMARK    2  A    between atoms: C_4  and  N_10 
ROOT
ATOM      1  C   UNL d   1      59.843  48.173  50.936  0.00  0.00     0.152 A 
ATOM      2  C   UNL d   1      60.612  47.909  51.073  0.00  0.00     0.174 A 
ATOM      3  C   UNL d   1      59.635  48.951  51.118  0.00  0.00     0.111 A 
ATOM      4  O   UNL d   1      59.176  47.798  50.628  0.00  0.00    -0.302 OA
ATOM      5  N   UNL d   1      61.174  48.420  51.393  0.00  0.00    -0.207 NA
ATOM      6  C   UNL d   1      58.842  49.057  50.925  0.00  0.00     0.043 A 
ATOM      7  N   UNL d   1      60.197  49.462  51.438  0.00  0.00    -0.225 NA
ATOM      8  C   UNL d   1      58.557  48.343  50.621  0.00  0.00     0.102 A 
ATOM      9  C   UNL d   1      60.967  49.196  51.576  0.00  0.00     0.164 A 
ATOM     10  C   UNL d   1      58.341  49.708  50.985  0.00  0.00     0.004 A 
ATOM     11  C   UNL d   1      57.770  48.282  50.377  0.00  0.00     0.025 A 
ATOM     12  C   UNL d   1      61.528  49.708  51.896  0.00  0.00     0.042 C 
ATOM     13  C   UNL d   1      57.554  49.647  50.741  0.00  0.00     0.000 A 
ATOM     14  C   UNL d   1      57.269  48.934  50.437  0.00  0.00     0.002 A 
ENDROOT
BRANCH   2  15
ATOM     15  N   UNL d   1      60.818  47.130  50.890  0.00  0.00    -0.285 N 
ATOM     16  C   UNL d   1      61.143  46.955  50.151  0.00  0.00     0.101 A 
ATOM     17  C   UNL d   1      61.349  46.177  49.967  0.00  0.00     0.117 A 
ATOM     18  N   UNL d   1      61.231  45.576  50.521  0.00  0.00    -0.135 N 
ATOM     19  C   UNL d   1      60.907  45.753  51.257  0.00  0.00     0.117 A 
ATOM     20  C   UNL d   1      60.700  46.530  51.443  0.00  0.00     0.101 A 
BRANCH  18  21
ATOM     21  C   UNL d   1      61.437  44.799  50.336  0.00  0.00     0.735 A 
ATOM     22  N   UNL d   1      61.106  44.430  49.676  0.00  0.00    -0.060 NA
ATOM     23  C   UNL d   1      61.311  43.655  49.490  0.00  0.00     0.101 A 
ATOM     24  C   UNL d   1      60.980  43.286  48.830  0.00  0.00     0.021 C 
ATOM     25  C   UNL d   1      61.849  43.245  49.965  0.00  0.00     0.040 A 
ATOM     26  C   UNL d   1      62.180  43.613  50.624  0.00  0.00     0.101 A 
ATOM     27  N   UNL d   1      61.974  44.391  50.810  0.00  0.00    -0.060 NA
ATOM     28  C   UNL d   1      62.717  43.205  51.098  0.00  0.00     0.021 C 
ENDBRANCH  18  21
ENDBRANCH   2  15
TORSDOF 2
ENDMDL
