MODEL 1
REMARK VINA RESULT:      31.2      0.000      0.000
REMARK  7 active torsions:
REMARK  status: ('A' for Active; 'I' for Inactive)
REMARK    1  A    between atoms: C_6  and  N_1 
REMARK    2  A    between atoms: C_12  and  C_6 
REMARK    3  A    between atoms: C_7  and  C_8 
REMARK    4  A    between atoms: C_22  and  C_7 
REMARK    5  A    between atoms: C_15  and  C_12 
REMARK    6  A    between atoms: O_13  and  C_15 
REMARK    7  A    between atoms: C_14  and  O_13 
ROOT
ATOM      1  C   UNL d   1      45.063 -16.972  38.535  0.00  0.00     0.238 C 
ATOM      2  O   UNL d   1      44.323 -16.711  38.796  0.00  0.00    -0.283 OA
ENDROOT
BRANCH   1   3
ATOM      3  C   UNL d   1      45.270 -16.906  37.737  0.00  0.00     0.126 C 
BRANCH   3   4
ATOM      4  N   UNL d   1      45.056 -16.220  37.316  0.00  0.00    -0.286 N 
ATOM      5  C   UNL d   1      44.316 -16.082  36.965  0.00  0.00     0.148 A 
ATOM      6  N   UNL d   1      44.341 -15.333  36.605  0.00  0.00    -0.227 NA
ATOM      7  C   UNL d   1      43.671 -16.592  36.971  0.00  0.00     0.041 C 
ATOM      8  C   UNL d   1      45.089 -15.012  36.732  0.00  0.00     0.099 A 
ATOM      9  C   UNL d   1      45.531 -15.564  37.174  0.00  0.00     0.083 A 
ATOM     10  C   UNL d   1      45.425 -14.302  36.509  0.00  0.00     0.021 A 
ATOM     11  C   UNL d   1      46.313 -15.384  37.384  0.00  0.00     0.019 A 
ATOM     12  C   UNL d   1      46.646 -14.662  37.154  0.00  0.00     0.002 A 
ATOM     13  C   UNL d   1      46.200 -14.124  36.717  0.00  0.00     0.002 A 
ENDBRANCH   3   4
ENDBRANCH   1   3
BRANCH   1  14
ATOM     14  C   UNL d   1      45.598 -17.302  39.082  0.00  0.00     0.166 C 
BRANCH  14  15
ATOM     15  O   UNL d   1      45.446 -18.077  39.400  0.00  0.00    -0.302 OA
BRANCH  15  16
ATOM     16  C   UNL d   1      45.693 -18.286  40.170  0.00  0.00     0.100 A 
ATOM     17  C   UNL d   1      45.257 -18.048  40.823  0.00  0.00     0.025 A 
ATOM     18  C   UNL d   1      45.506 -18.257  41.584  0.00  0.00     0.005 A 
ATOM     19  C   UNL d   1      46.181 -18.698  41.683  0.00  0.00     0.039 A 
ATOM     20  C   UNL d   1      46.619 -18.937  41.022  0.00  0.00     0.005 A 
ATOM     21  C   UNL d   1      46.369 -18.727  40.269  0.00  0.00     0.025 A 
BRANCH  19  22
ATOM     22  C   UNL d   1      46.431 -18.908  42.440  0.00  0.00     0.196 C 
ATOM     23  O   UNL d   1      46.467 -18.346  43.035  0.00  0.00    -0.287 OA
BRANCH  22  24
ATOM     24  C   UNL d   1      46.646 -19.690  42.599  0.00  0.00     0.042 C 
ATOM     25  C   UNL d   1      46.570 -19.989  43.356  0.00  0.00     0.003 C 
ENDBRANCH  22  24
ENDBRANCH  19  22
ENDBRANCH  15  16
ENDBRANCH  14  15
ENDBRANCH   1  14
TORSDOF 7
ENDMDL
MODEL 2
REMARK VINA RESULT:      31.3      1.878      5.872
REMARK  7 active torsions:
REMARK  status: ('A' for Active; 'I' for Inactive)
REMARK    1  A    between atoms: C_6  and  N_1 
REMARK    2  A    between atoms: C_12  and  C_6 
REMARK    3  A    between atoms: C_7  and  C_8 
REMARK    4  A    between atoms: C_22  and  C_7 
REMARK    5  A    between atoms: C_15  and  C_12 
REMARK    6  A    between atoms: O_13  and  C_15 
REMARK    7  A    between atoms: C_14  and  O_13 
ROOT
ATOM      1  C   UNL d   1      45.860 -18.026  40.697  0.00  0.00     0.238 C 
ATOM      2  O   UNL d   1      45.142 -18.160  41.083  0.00  0.00    -0.283 OA
ENDROOT
BRANCH   1   3
ATOM      3  C   UNL d   1      46.572 -18.249  41.052  0.00  0.00     0.126 C 
BRANCH   3   4
ATOM      4  N   UNL d   1      46.596 -18.939  41.517  0.00  0.00    -0.286 N 
ATOM      5  C   UNL d   1      46.631 -19.715  41.224  0.00  0.00     0.148 A 
ATOM      6  N   UNL d   1      46.647 -20.233  41.875  0.00  0.00    -0.227 NA
ATOM      7  C   UNL d   1      46.647 -19.938  40.432  0.00  0.00     0.041 C 
ATOM      8  C   UNL d   1      46.622 -19.781  42.562  0.00  0.00     0.099 A 
ATOM      9  C   UNL d   1      46.591 -18.978  42.338  0.00  0.00     0.083 A 
ATOM     10  C   UNL d   1      46.624 -19.986  43.352  0.00  0.00     0.021 A 
ATOM     11  C   UNL d   1      46.562 -18.393  42.925  0.00  0.00     0.019 A 
ATOM     12  C   UNL d   1      46.564 -18.609  43.724  0.00  0.00     0.002 A 
ATOM     13  C   UNL d   1      46.595 -19.406  43.934  0.00  0.00     0.002 A 
ENDBRANCH   3   4
ENDBRANCH   1   3
BRANCH   1  14
ATOM     14  C   UNL d   1      45.860 -17.664  39.946  0.00  0.00     0.166 C 
BRANCH  14  15
ATOM     15  O   UNL d   1      45.124 -17.561  39.531  0.00  0.00    -0.302 OA
BRANCH  15  16
ATOM     16  C   UNL d   1      45.069 -17.067  38.860  0.00  0.00     0.100 A 
ATOM     17  C   UNL d   1      45.722 -16.637  38.610  0.00  0.00     0.025 A 
ATOM     18  C   UNL d   1      45.664 -16.148  37.944  0.00  0.00     0.005 A 
ATOM     19  C   UNL d   1      44.960 -16.096  37.540  0.00  0.00     0.039 A 
ATOM     20  C   UNL d   1      44.304 -16.531  37.796  0.00  0.00     0.005 A 
ATOM     21  C   UNL d   1      44.366 -17.014  38.456  0.00  0.00     0.025 A 
BRANCH  19  22
ATOM     22  C   UNL d   1      44.900 -15.610  36.877  0.00  0.00     0.196 C 
ATOM     23  O   UNL d   1      44.174 -15.484  36.520  0.00  0.00    -0.287 OA
BRANCH  22  24
ATOM     24  C   UNL d   1      45.577 -15.248  36.571  0.00  0.00     0.042 C 
ATOM     25  C   UNL d   1      45.638 -14.433  36.565  0.00  0.00     0.003 C 
ENDBRANCH  22  24
ENDBRANCH  19  22
ENDBRANCH  15  16
ENDBRANCH  14  15
ENDBRANCH   1  14
TORSDOF 7
ENDMDL
MODEL 3
REMARK VINA RESULT:      33.7      0.574      1.544
REMARK  7 active torsions:
REMARK  status: ('A' for Active; 'I' for Inactive)
REMARK    1  A    between atoms: C_6  and  N_1 
REMARK    2  A    between atoms: C_12  and  C_6 
REMARK    3  A    between atoms: C_7  and  C_8 
REMARK    4  A    between atoms: C_22  and  C_7 
REMARK    5  A    between atoms: C_15  and  C_12 
REMARK    6  A    between atoms: O_13  and  C_15 
REMARK    7  A    between atoms: C_14  and  O_13 
ROOT
ATOM      1  C   UNL d   1      45.296 -16.698  38.761  0.00  0.00     0.238 C 
ATOM      2  O   UNL d   1      44.483 -16.556  38.806  0.00  0.00    -0.283 OA
ENDROOT
BRANCH   1   3
ATOM      3  C   UNL d   1      45.709 -16.535  38.064  0.00  0.00     0.126 C 
BRANCH   3   4
ATOM      4  N   UNL d   1      45.433 -15.934  37.558  0.00  0.00    -0.286 N 
ATOM      5  C   UNL d   1      45.870 -15.271  37.315  0.00  0.00     0.148 A 
ATOM      6  N   UNL d   1      45.386 -14.816  36.815  0.00  0.00    -0.227 NA
ATOM      7  C   UNL d   1      46.645 -15.092  37.528  0.00  0.00     0.041 C 
ATOM      8  C   UNL d   1      44.658 -15.194  36.749  0.00  0.00     0.099 A 
ATOM      9  C   UNL d   1      44.689 -15.888  37.212  0.00  0.00     0.083 A 
ATOM     10  C   UNL d   1      43.979 -15.006  36.338  0.00  0.00     0.021 A 
ATOM     11  C   UNL d   1      44.024 -16.383  37.249  0.00  0.00     0.019 A 
ATOM     12  C   UNL d   1      43.339 -16.185  36.829  0.00  0.00     0.002 A 
ATOM     13  C   UNL d   1      43.319 -15.497  36.375  0.00  0.00     0.002 A 
ENDBRANCH   3   4
ENDBRANCH   1   3
BRANCH   1  14
ATOM     14  C   UNL d   1      45.695 -17.007  39.424  0.00  0.00     0.166 C 
BRANCH  14  15
ATOM     15  O   UNL d   1      45.723 -17.850  39.540  0.00  0.00    -0.302 OA
BRANCH  15  16
ATOM     16  C   UNL d   1      45.907 -18.180  40.285  0.00  0.00     0.100 A 
ATOM     17  C   UNL d   1      46.466 -18.778  40.344  0.00  0.00     0.025 A 
ATOM     18  C   UNL d   1      46.646 -19.103  41.085  0.00  0.00     0.005 A 
ATOM     19  C   UNL d   1      46.269 -18.828  41.750  0.00  0.00     0.039 A 
ATOM     20  C   UNL d   1      45.706 -18.223  41.686  0.00  0.00     0.005 A 
ATOM     21  C   UNL d   1      45.531 -17.904  40.951  0.00  0.00     0.025 A 
BRANCH  19  22
ATOM     22  C   UNL d   1      46.447 -19.149  42.488  0.00  0.00     0.196 C 
ATOM     23  O   UNL d   1      46.638 -18.661  43.118  0.00  0.00    -0.287 OA
BRANCH  22  24
ATOM     24  C   UNL d   1      46.432 -19.968  42.593  0.00  0.00     0.042 C 
ATOM     25  C   UNL d   1      46.237 -20.284  43.321  0.00  0.00     0.003 C 
ENDBRANCH  22  24
ENDBRANCH  19  22
ENDBRANCH  15  16
ENDBRANCH  14  15
ENDBRANCH   1  14
TORSDOF 7
ENDMDL
