MODEL 1
REMARK VINA RESULT:      35.1      0.000      0.000
REMARK  9 active torsions:
REMARK  status: ('A' for Active; 'I' for Inactive)
REMARK    1  A    between atoms: C_14  and  N_1 
REMARK    2  A    between atoms: S_6  and  C_2 
REMARK    3  A    between atoms: C_8  and  C_3 
REMARK    4  A    between atoms: C_16  and  S_6 
REMARK    5  A    between atoms: O_11  and  C_8 
REMARK    6  A    between atoms: C_9  and  C_16 
REMARK    7  A    between atoms: O_19  and  C_9 
REMARK    8  A    between atoms: C_12  and  O_11 
REMARK    9  A    between atoms: C_15  and  C_14 
ROOT
ATOM      1  N   UNL d   1     -55.336 -99.980 -44.155  0.00  0.00    -0.266 N 
ATOM      2  C   UNL d   1     -55.337-100.800 -44.137  0.00  0.00     0.202 A 
ATOM      3  C   UNL d   1     -56.078 -99.721 -43.899  0.00  0.00     0.196 A 
ATOM      4  N   UNL d   1     -56.076-101.052 -43.871  0.00  0.00    -0.121 NA
ATOM      5  N   UNL d   1     -56.536-100.380 -43.723  0.00  0.00    -0.126 NA
ENDROOT
BRANCH   3   6
ATOM      6  C   UNL d   1     -56.320 -98.935 -43.830  0.00  0.00     0.162 C 
BRANCH   6   7
ATOM      7  O   UNL d   1     -57.055 -98.756 -43.497  0.00  0.00    -0.300 OA
BRANCH   7   8
ATOM      8  C   UNL d   1     -57.735 -98.758 -43.964  0.00  0.00     0.118 A 
ATOM      9  C   UNL d   1     -58.472 -98.764 -43.607  0.00  0.00     0.104 A 
ATOM     10  N   UNL d   1     -58.532 -98.767 -42.782  0.00  0.00    -0.242 NA
ATOM     11  C   UNL d   1     -59.156 -98.766 -44.066  0.00  0.00     0.020 A 
ATOM     12  C   UNL d   1     -59.268 -98.772 -42.424  0.00  0.00     0.099 A 
ATOM     13  C   UNL d   1     -59.961 -98.775 -42.882  0.00  0.00     0.021 A 
ATOM     14  C   UNL d   1     -59.898 -98.772 -43.705  0.00  0.00     0.003 A 
ATOM     15  C   UNL d   1     -59.101 -98.763 -44.891  0.00  0.00     0.002 A 
ATOM     16  C   UNL d   1     -58.356 -98.758 -45.246  0.00  0.00     0.002 A 
ATOM     17  C   UNL d   1     -57.680 -98.755 -44.790  0.00  0.00     0.026 A 
ENDBRANCH   7   8
ENDBRANCH   6   7
ENDBRANCH   3   6
BRANCH   1  18
ATOM     18  C   UNL d   1     -54.713 -99.500 -44.384  0.00  0.00     0.084 C 
BRANCH  18  19
ATOM     19  C   UNL d   1     -54.869 -98.784 -44.764  0.00  0.00     0.019 C 
ATOM     20  C   UNL d   1     -54.947 -98.762 -45.582  0.00  0.00     0.002 C 
ENDBRANCH  18  19
ENDBRANCH   1  18
BRANCH   2  21
ATOM     21  S   UNL d   1     -54.715-101.292 -44.345  0.00  0.00    -0.042 SA
BRANCH  21  22
ATOM     22  C   UNL d   1     -54.751-101.753 -45.028  0.00  0.00     0.107 C 
BRANCH  22  23
ATOM     23  C   UNL d   1     -55.204-102.437 -45.047  0.00  0.00     0.303 C 
ATOM     24  O   UNL d   1     -55.474-102.777 -44.340  0.00  0.00    -0.259 OA
BRANCH  23  25
ATOM     25  O   UNL d   1     -55.395-102.795 -45.765  0.00  0.00    -0.295 OA
ATOM     26  C   UNL d   1     -56.132-102.675 -46.110  0.00  0.00     0.185 C 
ENDBRANCH  23  25
ENDBRANCH  22  23
ENDBRANCH  21  22
ENDBRANCH   2  21
TORSDOF 9
ENDMDL
MODEL 2
REMARK VINA RESULT:      36.5      1.262      1.547
REMARK  9 active torsions:
REMARK  status: ('A' for Active; 'I' for Inactive)
REMARK    1  A    between atoms: C_14  and  N_1 
REMARK    2  A    between atoms: S_6  and  C_2 
REMARK    3  A    between atoms: C_8  and  C_3 
REMARK    4  A    between atoms: C_16  and  S_6 
REMARK    5  A    between atoms: O_11  and  C_8 
REMARK    6  A    between atoms: C_9  and  C_16 
REMARK    7  A    between atoms: O_19  and  C_9 
REMARK    8  A    between atoms: C_12  and  O_11 
REMARK    9  A    between atoms: C_15  and  C_14 
ROOT
ATOM      1  N   UNL d   1     -55.474-100.075 -44.458  0.00  0.00    -0.266 N 
ATOM      2  C   UNL d   1     -55.391-100.865 -44.253  0.00  0.00     0.202 A 
ATOM      3  C   UNL d   1     -56.250 -99.963 -44.721  0.00  0.00     0.196 A 
ATOM      4  N   UNL d   1     -56.111-101.244 -44.387  0.00  0.00    -0.121 NA
ATOM      5  N   UNL d   1     -56.645-100.682 -44.678  0.00  0.00    -0.126 NA
ENDROOT
BRANCH   3   6
ATOM      6  C   UNL d   1     -56.574 -99.251 -44.982  0.00  0.00     0.162 C 
BRANCH   6   7
ATOM      7  O   UNL d   1     -57.108 -98.839 -44.504  0.00  0.00    -0.300 OA
BRANCH   7   8
ATOM      8  C   UNL d   1     -57.910 -98.815 -44.699  0.00  0.00     0.118 A 
ATOM      9  C   UNL d   1     -58.472 -98.805 -44.104  0.00  0.00     0.104 A 
ATOM     10  N   UNL d   1     -58.236 -98.819 -43.312  0.00  0.00    -0.242 NA
ATOM     11  C   UNL d   1     -59.274 -98.781 -44.291  0.00  0.00     0.020 A 
ATOM     12  C   UNL d   1     -58.798 -98.809 -42.716  0.00  0.00     0.099 A 
ATOM     13  C   UNL d   1     -59.608 -98.785 -42.899  0.00  0.00     0.021 A 
ATOM     14  C   UNL d   1     -59.839 -98.771 -43.691  0.00  0.00     0.003 A 
ATOM     15  C   UNL d   1     -59.514 -98.768 -45.082  0.00  0.00     0.002 A 
ATOM     16  C   UNL d   1     -58.943 -98.778 -45.678  0.00  0.00     0.002 A 
ATOM     17  C   UNL d   1     -58.151 -98.802 -45.491  0.00  0.00     0.026 A 
ENDBRANCH   7   8
ENDBRANCH   6   7
ENDBRANCH   3   6
BRANCH   1  18
ATOM     18  C   UNL d   1     -54.894 -99.498 -44.413  0.00  0.00     0.084 C 
BRANCH  18  19
ATOM     19  C   UNL d   1     -54.730 -99.032 -45.074  0.00  0.00     0.019 C 
ATOM     20  C   UNL d   1     -55.288 -98.961 -45.673  0.00  0.00     0.002 C 
ENDBRANCH  18  19
ENDBRANCH   1  18
BRANCH   2  21
ATOM     21  S   UNL d   1     -54.713-101.223 -43.964  0.00  0.00    -0.042 SA
BRANCH  21  22
ATOM     22  C   UNL d   1     -54.753-101.772 -43.349  0.00  0.00     0.107 C 
BRANCH  22  23
ATOM     23  C   UNL d   1     -54.783-101.523 -42.568  0.00  0.00     0.303 C 
ATOM     24  O   UNL d   1     -54.718-100.716 -42.386  0.00  0.00    -0.259 OA
BRANCH  23  25
ATOM     25  O   UNL d   1     -54.876-102.069 -41.956  0.00  0.00    -0.295 OA
ATOM     26  C   UNL d   1     -55.627-102.284 -41.698  0.00  0.00     0.185 C 
ENDBRANCH  23  25
ENDBRANCH  22  23
ENDBRANCH  21  22
ENDBRANCH   2  21
TORSDOF 9
ENDMDL
