MODEL 1
REMARK VINA RESULT:      42.3      0.000      0.000
REMARK  3 active torsions:
REMARK  status: ('A' for Active; 'I' for Inactive)
REMARK    1  A    between atoms: C_2  and  N_1 
REMARK    2  A    between atoms: N_8  and  C_3 
REMARK       I    between atoms: C_9  and  N_8 
REMARK    3  A    between atoms: C_10  and  C_9 
ROOT
ATOM      1  N   UNL d   1      44.449 -16.034  36.703  0.00  0.00    -0.189 N 
ATOM      2  C   UNL d   1      43.656 -16.037  36.468  0.00  0.00     0.171 A 
ATOM      3  N   UNL d   1      44.721 -16.808  36.705  0.00  0.00    -0.162 NA
ATOM      4  C   UNL d   1      43.456 -16.826  36.330  0.00  0.00     0.060 A 
ATOM      5  C   UNL d   1      44.096 -17.297  36.472  0.00  0.00     0.105 A 
ATOM      6  C   UNL d   1      44.119 -18.124  36.396  0.00  0.00     0.023 C 
ENDROOT
BRANCH   1   7
ATOM      7  C   UNL d   1      44.917 -15.378  36.907  0.00  0.00     0.197 A 
ATOM      8  N   UNL d   1      45.459 -15.042  36.383  0.00  0.00    -0.221 NA
ATOM      9  C   UNL d   1      45.822 -14.402  36.777  0.00  0.00     0.090 A 
ATOM     10  C   UNL d   1      46.389 -13.867  36.556  0.00  0.00     0.020 A 
ATOM     11  C   UNL d   1      45.488 -14.369  37.531  0.00  0.00     0.050 A 
ATOM     12  C   UNL d   1      46.644 -13.281  37.078  0.00  0.00     0.002 A 
ATOM     13  C   UNL d   1      46.314 -13.251  37.819  0.00  0.00     0.001 A 
ATOM     14  C   UNL d   1      45.737 -13.789  38.054  0.00  0.00     0.008 A 
ATOM     15  S   UNL d   1      44.936 -14.971  37.600  0.00  0.00    -0.047 SA
ENDBRANCH   1   7
BRANCH   2  16
ATOM     16  N   UNL d   1      43.159 -15.381  36.388  0.00  0.00    -0.189 NA
ATOM     17  C   UNL d   1      42.357 -15.474  36.492  0.00  0.00     0.281 C 
ATOM     18  O   UNL d   1      42.048 -16.216  36.675  0.00  0.00    -0.265 OA
BRANCH  17  19
ATOM     19  C   UNL d   1      41.856 -14.821  36.412  0.00  0.00     0.058 A 
ATOM     20  C   UNL d   1      41.348 -14.162  36.335  0.00  0.00     0.005 A 
ATOM     21  C   UNL d   1      41.163 -14.774  36.858  0.00  0.00     0.005 A 
ENDBRANCH  17  19
ENDBRANCH   2  16
TORSDOF 3
ENDMDL
MODEL 2
REMARK VINA RESULT:      43.0      1.826      4.016
REMARK  3 active torsions:
REMARK  status: ('A' for Active; 'I' for Inactive)
REMARK    1  A    between atoms: C_2  and  N_1 
REMARK    2  A    between atoms: N_8  and  C_3 
REMARK       I    between atoms: C_9  and  N_8 
REMARK    3  A    between atoms: C_10  and  C_9 
ROOT
ATOM      1  N   UNL d   1      44.807 -15.280  36.814  0.00  0.00    -0.189 N 
ATOM      2  C   UNL d   1      45.328 -15.666  37.329  0.00  0.00     0.171 A 
ATOM      3  N   UNL d   1      45.229 -14.717  36.393  0.00  0.00    -0.162 NA
ATOM      4  C   UNL d   1      46.069 -15.325  37.209  0.00  0.00     0.060 A 
ATOM      5  C   UNL d   1      46.016 -14.751  36.644  0.00  0.00     0.105 A 
ATOM      6  C   UNL d   1      46.643 -14.280  36.367  0.00  0.00     0.023 C 
ENDROOT
BRANCH   1   7
ATOM      7  C   UNL d   1      43.992 -15.415  36.718  0.00  0.00     0.197 A 
ATOM      8  N   UNL d   1      43.431 -14.820  36.817  0.00  0.00    -0.221 NA
ATOM      9  C   UNL d   1      42.681 -15.158  36.677  0.00  0.00     0.090 A 
ATOM     10  C   UNL d   1      41.928 -14.859  36.690  0.00  0.00     0.020 A 
ATOM     11  C   UNL d   1      42.811 -15.954  36.496  0.00  0.00     0.050 A 
ATOM     12  C   UNL d   1      41.279 -15.340  36.524  0.00  0.00     0.002 A 
ATOM     13  C   UNL d   1      41.410 -16.122  36.346  0.00  0.00     0.001 A 
ATOM     14  C   UNL d   1      42.171 -16.436  36.330  0.00  0.00     0.008 A 
ATOM     15  S   UNL d   1      43.617 -16.100  36.524  0.00  0.00    -0.047 SA
ENDBRANCH   1   7
BRANCH   2  16
ATOM     16  N   UNL d   1      45.143 -16.273  37.859  0.00  0.00    -0.189 NA
ATOM     17  C   UNL d   1      45.708 -16.523  38.389  0.00  0.00     0.281 C 
ATOM     18  O   UNL d   1      46.454 -16.173  38.394  0.00  0.00    -0.265 OA
BRANCH  17  19
ATOM     19  C   UNL d   1      45.528 -17.130  38.921  0.00  0.00     0.058 A 
ATOM     20  C   UNL d   1      45.350 -17.743  39.461  0.00  0.00     0.005 A 
ATOM     21  C   UNL d   1      46.040 -17.297  39.547  0.00  0.00     0.005 A 
ENDBRANCH  17  19
ENDBRANCH   2  16
TORSDOF 3
ENDMDL
