MODEL 1
REMARK VINA RESULT:     102.0      0.000      0.000
REMARK  9 active torsions:
REMARK  status: ('A' for Active; 'I' for Inactive)
REMARK    1  A    between atoms: C_3  and  C_1 
REMARK    2  A    between atoms: N_5  and  C_2 
REMARK    3  A    between atoms: N_4  and  C_3 
REMARK    4  A    between atoms: C_14  and  C_3 
REMARK    5  A    between atoms: C_12  and  N_4 
REMARK       I    between atoms: C_6  and  N_5 
REMARK    6  A    between atoms: C_9  and  C_6 
REMARK    7  A    between atoms: C_7  and  C_12 
REMARK       I    between atoms: N_16  and  C_7 
REMARK    8  A    between atoms: N_8  and  C_17 
REMARK    9  A    between atoms: C_17  and  C_9 
ROOT
ATOM      1  C   UNL d   1     -56.137-100.138 -44.246  0.00  0.00     0.036 A 
ATOM      2  C   UNL d   1     -55.575-100.199 -43.645  0.00  0.00     0.086 A 
ATOM      3  C   UNL d   1     -56.306-100.812 -44.721  0.00  0.00     0.010 A 
ATOM      4  C   UNL d   1     -55.174-100.907 -43.500  0.00  0.00     0.020 A 
ATOM      5  C   UNL d   1     -55.906-101.518 -44.575  0.00  0.00     0.035 A 
ATOM      6  C   UNL d   1     -55.351-101.558 -43.973  0.00  0.00     0.008 A 
ATOM      7 BR   UNL d   1     -56.068-102.165 -45.031  0.00  0.00    -0.049 Br
ENDROOT
BRANCH   1   8
ATOM      8  C   UNL d   1     -56.557 -99.413 -44.405  0.00  0.00     0.083 C 
BRANCH   8   9
ATOM      9  N   UNL d   1     -56.139 -98.810 -44.784  0.00  0.00    -0.239 NA
BRANCH   9  10
ATOM     10  C   UNL d   1     -56.069 -98.775 -45.596  0.00  0.00     0.163 C 
BRANCH  10  11
ATOM     11  C   UNL d   1     -55.438 -99.147 -45.972  0.00  0.00     0.317 C 
ATOM     12  O   UNL d   1     -54.896 -99.547 -45.518  0.00  0.00    -0.262 OA
ATOM     13  N   UNL d   1     -55.366 -99.109 -46.793  0.00  0.00    -0.083 NA
ATOM     14  N   UNL d   1     -54.725 -99.490 -47.144  0.00  0.00    -0.019 N 
ENDBRANCH  10  11
ENDBRANCH   9  10
ENDBRANCH   8   9
BRANCH   8  15
ATOM     15  C   UNL d   1     -57.326 -99.326 -44.194  0.00  0.00     0.018 A 
ATOM     16  C   UNL d   1     -57.917 -99.617 -44.689  0.00  0.00     0.002 A 
ATOM     17  C   UNL d   1     -58.706 -99.527 -44.470  0.00  0.00     0.000 A 
ATOM     18  C   UNL d   1     -58.923 -99.157 -43.778  0.00  0.00     0.000 A 
ATOM     19  C   UNL d   1     -58.324 -98.856 -43.268  0.00  0.00     0.000 A 
ATOM     20  C   UNL d   1     -57.522 -98.947 -43.487  0.00  0.00     0.002 A 
ENDBRANCH   8  15
ENDBRANCH   1   8
BRANCH   2  21
ATOM     21  N   UNL d   1     -55.416 -99.529 -43.182  0.00  0.00    -0.208 NA
ATOM     22  C   UNL d   1     -54.987 -99.626 -42.487  0.00  0.00     0.281 C 
ATOM     23  O   UNL d   1     -54.830 -98.957 -42.028  0.00  0.00    -0.265 OA
BRANCH  22  24
ATOM     24  C   UNL d   1     -54.716-100.367 -42.244  0.00  0.00     0.082 C 
BRANCH  24  25
ATOM     25  C   UNL d   1     -54.722-100.567 -41.455  0.00  0.00     0.085 C 
BRANCH  25  26
ATOM     26  N   UNL d   1     -54.986-101.300 -41.235  0.00  0.00    -0.299 N 
ATOM     27  C   UNL d   1     -55.042-101.492 -40.434  0.00  0.00     0.107 A 
ATOM     28  C   UNL d   1     -55.310-102.237 -40.202  0.00  0.00     0.142 A 
ATOM     29  O   UNL d   1     -55.522-102.790 -40.783  0.00  0.00    -0.300 OA
ATOM     30  C   UNL d   1     -55.465-102.597 -41.573  0.00  0.00     0.142 A 
ATOM     31  C   UNL d   1     -55.197-101.853 -41.801  0.00  0.00     0.107 A 
ENDBRANCH  25  26
ENDBRANCH  24  25
ENDBRANCH  22  24
ENDBRANCH   2  21
TORSDOF 9
ENDMDL
