MODEL 1
REMARK VINA RESULT:      -8.0      0.000      0.000
REMARK  8 active torsions:
REMARK  status: ('A' for Active; 'I' for Inactive)
REMARK    1  A    between atoms: N_6  and  S_1 
REMARK    2  A    between atoms: C_18  and  S_1 
REMARK    3  A    between atoms: N_2  and  C_4 
REMARK    4  A    between atoms: C_7  and  N_3 
REMARK    5  A    between atoms: C_4  and  C_5 
REMARK    6  A    between atoms: C_10  and  C_4 
REMARK    7  A    between atoms: C_5  and  N_6 
REMARK    8  A    between atoms: O_23  and  C_19 
ROOT
ATOM      1  N   UNL d   1      52.260  33.148  53.204  0.00  0.00    -0.300 N 
ATOM      2  N   UNL d   1      50.887  33.957  52.790  0.00  0.00    -0.301 N 
ATOM      3  C   UNL d   1      52.261  33.653  52.557  0.00  0.00     0.100 A 
ATOM      4  C   UNL d   1      51.574  33.046  53.646  0.00  0.00     0.100 A 
ATOM      5  C   UNL d   1      50.888  33.449  53.441  0.00  0.00     0.100 A 
ATOM      6  C   UNL d   1      51.574  34.059  52.348  0.00  0.00     0.100 A 
ENDROOT
BRANCH   1   7
ATOM      7  C   UNL d   1      52.957  32.741  53.411  0.00  0.00     0.086 C 
BRANCH   7   8
ATOM      8  C   UNL d   1      53.093  31.984  53.111  0.00  0.00     0.130 C 
BRANCH   8   9
ATOM      9  N   UNL d   1      52.750  31.323  53.481  0.00  0.00    -0.155 NA
BRANCH   9  10
ATOM     10  S   UNL d   1      52.979  30.565  53.263  0.00  0.00     0.286 S 
ATOM     11  O   UNL d   1      52.771  30.731  52.479  0.00  0.00    -0.198 OA
ATOM     12  O   UNL d   1      53.186  30.404  54.048  0.00  0.00    -0.198 OA
BRANCH  10  13
ATOM     13  C   UNL d   1      53.210  29.804  53.049  0.00  0.00     0.117 C 
ATOM     14  C   UNL d   1      53.196  29.191  53.612  0.00  0.00     0.014 C 
ENDBRANCH  10  13
ENDBRANCH   9  10
ENDBRANCH   8   9
ENDBRANCH   7   8
BRANCH   7  15
ATOM     15  C   UNL d   1      53.509  33.090  53.911  0.00  0.00     0.037 A 
ATOM     16  C   UNL d   1      53.302  33.271  54.689  0.00  0.00     0.100 A 
ATOM     17  N   UNL d   1      53.857  33.622  55.193  0.00  0.00    -0.242 NA
ATOM     18  C   UNL d   1      54.616  33.789  54.915  0.00  0.00     0.099 A 
ATOM     19  C   UNL d   1      54.820  33.608  54.141  0.00  0.00     0.021 A 
ATOM     20  C   UNL d   1      54.265  33.257  53.637  0.00  0.00     0.005 A 
ENDBRANCH   7  15
ENDBRANCH   1   7
BRANCH   2  21
ATOM     21  C   UNL d   1      50.202  34.360  52.585  0.00  0.00     0.064 A 
ATOM     22  C   UNL d   1      49.832  34.855  53.134  0.00  0.00     0.020 A 
ATOM     23  C   UNL d   1      49.145  35.257  52.929  0.00  0.00     0.026 A 
ATOM     24  C   UNL d   1      48.823  35.169  52.171  0.00  0.00     0.094 A 
ATOM     25  C   UNL d   1      49.193  34.674  51.622  0.00  0.00     0.026 A 
ATOM     26  C   UNL d   1      49.879  34.271  51.827  0.00  0.00     0.020 A 
BRANCH  24  27
ATOM     27  O   UNL d   1      48.128  35.574  51.956  0.00  0.00    -0.328 OA
ATOM     28  C   UNL d   1      47.707  36.022  52.517  0.00  0.00     0.181 C 
ENDBRANCH  24  27
ENDBRANCH   2  21
TORSDOF 8
ENDMDL
MODEL 2
REMARK VINA RESULT:      -7.5      1.223      2.449
REMARK  8 active torsions:
REMARK  status: ('A' for Active; 'I' for Inactive)
REMARK    1  A    between atoms: N_6  and  S_1 
REMARK    2  A    between atoms: C_18  and  S_1 
REMARK    3  A    between atoms: N_2  and  C_4 
REMARK    4  A    between atoms: C_7  and  N_3 
REMARK    5  A    between atoms: C_4  and  C_5 
REMARK    6  A    between atoms: C_10  and  C_4 
REMARK    7  A    between atoms: C_5  and  N_6 
REMARK    8  A    between atoms: O_23  and  C_19 
ROOT
ATOM      1  N   UNL d   1      52.106  33.025  53.079  0.00  0.00    -0.300 N 
ATOM      2  N   UNL d   1      50.761  33.919  52.758  0.00  0.00    -0.301 N 
ATOM      3  C   UNL d   1      52.117  33.579  52.473  0.00  0.00     0.100 A 
ATOM      4  C   UNL d   1      51.423  32.916  53.525  0.00  0.00     0.100 A 
ATOM      5  C   UNL d   1      50.751  33.362  53.366  0.00  0.00     0.100 A 
ATOM      6  C   UNL d   1      51.444  34.028  52.311  0.00  0.00     0.100 A 
ENDROOT
BRANCH   1   7
ATOM      7  C   UNL d   1      52.788  32.575  53.238  0.00  0.00     0.086 C 
BRANCH   7   8
ATOM      8  C   UNL d   1      53.469  32.947  53.518  0.00  0.00     0.130 C 
BRANCH   8   9
ATOM      9  N   UNL d   1      53.652  32.922  54.328  0.00  0.00    -0.155 NA
BRANCH   9  10
ATOM     10  S   UNL d   1      54.282  33.361  54.621  0.00  0.00     0.286 S 
ATOM     11  O   UNL d   1      53.767  33.738  55.150  0.00  0.00    -0.198 OA
ATOM     12  O   UNL d   1      54.791  32.982  54.091  0.00  0.00    -0.198 OA
BRANCH  10  13
ATOM     13  C   UNL d   1      54.915  33.800  54.913  0.00  0.00     0.117 C 
ATOM     14  C   UNL d   1      55.139  33.726  55.711  0.00  0.00     0.014 C 
ENDBRANCH  10  13
ENDBRANCH   9  10
ENDBRANCH   8   9
ENDBRANCH   7   8
BRANCH   7  15
ATOM     15  C   UNL d   1      52.785  31.760  53.117  0.00  0.00     0.037 A 
ATOM     16  C   UNL d   1      53.040  31.451  52.396  0.00  0.00     0.100 A 
ATOM     17  N   UNL d   1      53.037  30.632  52.275  0.00  0.00    -0.242 NA
ATOM     18  C   UNL d   1      52.780  30.128  52.875  0.00  0.00     0.099 A 
ATOM     19  C   UNL d   1      52.526  30.438  53.592  0.00  0.00     0.021 A 
ATOM     20  C   UNL d   1      52.529  31.257  53.713  0.00  0.00     0.005 A 
ENDBRANCH   7  15
ENDBRANCH   1   7
BRANCH   2  21
ATOM     21  C   UNL d   1      50.090  34.364  52.600  0.00  0.00     0.064 A 
ATOM     22  C   UNL d   1      49.790  34.881  53.171  0.00  0.00     0.020 A 
ATOM     23  C   UNL d   1      49.118  35.327  53.012  0.00  0.00     0.026 A 
ATOM     24  C   UNL d   1      48.739  35.259  52.278  0.00  0.00     0.094 A 
ATOM     25  C   UNL d   1      49.039  34.742  51.707  0.00  0.00     0.026 A 
ATOM     26  C   UNL d   1      49.710  34.297  51.865  0.00  0.00     0.020 A 
BRANCH  24  27
ATOM     27  O   UNL d   1      48.057  35.708  52.111  0.00  0.00    -0.328 OA
ATOM     28  C   UNL d   1      47.633  36.080  52.723  0.00  0.00     0.181 C 
ENDBRANCH  24  27
ENDBRANCH   2  21
TORSDOF 8
ENDMDL
MODEL 3
REMARK VINA RESULT:      -5.5      1.694      4.829
REMARK  8 active torsions:
REMARK  status: ('A' for Active; 'I' for Inactive)
REMARK    1  A    between atoms: N_6  and  S_1 
REMARK    2  A    between atoms: C_18  and  S_1 
REMARK    3  A    between atoms: N_2  and  C_4 
REMARK    4  A    between atoms: C_7  and  N_3 
REMARK    5  A    between atoms: C_4  and  C_5 
REMARK    6  A    between atoms: C_10  and  C_4 
REMARK    7  A    between atoms: C_5  and  N_6 
REMARK    8  A    between atoms: O_23  and  C_19 
ROOT
ATOM      1  N   UNL d   1      52.285  33.276  53.153  0.00  0.00    -0.300 N 
ATOM      2  N   UNL d   1      52.672  31.701  53.438  0.00  0.00    -0.301 N 
ATOM      3  C   UNL d   1      52.950  32.946  52.800  0.00  0.00     0.100 A 
ATOM      4  C   UNL d   1      51.813  32.819  53.648  0.00  0.00     0.100 A 
ATOM      5  C   UNL d   1      52.005  32.033  53.792  0.00  0.00     0.100 A 
ATOM      6  C   UNL d   1      53.145  32.158  52.943  0.00  0.00     0.100 A 
ENDROOT
BRANCH   1   7
ATOM      7  C   UNL d   1      52.093  34.072  53.005  0.00  0.00     0.086 C 
BRANCH   7   8
ATOM      8  C   UNL d   1      51.558  34.261  52.406  0.00  0.00     0.130 C 
BRANCH   8   9
ATOM      9  N   UNL d   1      50.741  34.195  52.543  0.00  0.00    -0.155 NA
BRANCH   9  10
ATOM     10  S   UNL d   1      50.206  34.408  51.957  0.00  0.00     0.286 S 
ATOM     11  O   UNL d   1      50.777  34.240  51.380  0.00  0.00    -0.198 OA
ATOM     12  O   UNL d   1      49.639  34.574  52.536  0.00  0.00    -0.198 OA
BRANCH  10  13
ATOM     13  C   UNL d   1      49.668  34.623  51.371  0.00  0.00     0.117 C 
ATOM     14  C   UNL d   1      48.852  34.627  51.537  0.00  0.00     0.014 C 
ENDBRANCH  10  13
ENDBRANCH   9  10
ENDBRANCH   8   9
ENDBRANCH   7   8
BRANCH   7  15
ATOM     15  C   UNL d   1      52.433  34.672  53.455  0.00  0.00     0.037 A 
ATOM     16  C   UNL d   1      52.100  34.882  54.179  0.00  0.00     0.100 A 
ATOM     17  N   UNL d   1      52.443  35.485  54.632  0.00  0.00    -0.242 NA
ATOM     18  C   UNL d   1      53.117  35.873  54.356  0.00  0.00     0.099 A 
ATOM     19  C   UNL d   1      53.447  35.662  53.634  0.00  0.00     0.021 A 
ATOM     20  C   UNL d   1      53.104  35.059  53.182  0.00  0.00     0.005 A 
ENDBRANCH   7  15
ENDBRANCH   1   7
BRANCH   2  21
ATOM     21  C   UNL d   1      52.864  30.916  53.582  0.00  0.00     0.064 A 
ATOM     22  C   UNL d   1      52.670  30.334  53.028  0.00  0.00     0.020 A 
ATOM     23  C   UNL d   1      52.862  29.548  53.172  0.00  0.00     0.026 A 
ATOM     24  C   UNL d   1      53.250  29.337  53.873  0.00  0.00     0.094 A 
ATOM     25  C   UNL d   1      53.444  29.919  54.427  0.00  0.00     0.026 A 
ATOM     26  C   UNL d   1      53.252  30.704  54.284  0.00  0.00     0.020 A 
BRANCH  24  27
ATOM     27  O   UNL d   1      53.448  28.542  54.025  0.00  0.00    -0.328 OA
ATOM     28  C   UNL d   1      53.628  28.289  54.797  0.00  0.00     0.181 C 
ENDBRANCH  24  27
ENDBRANCH   2  21
TORSDOF 8
ENDMDL
MODEL 4
REMARK VINA RESULT:      -5.1      1.984      5.138
REMARK  8 active torsions:
REMARK  status: ('A' for Active; 'I' for Inactive)
REMARK    1  A    between atoms: N_6  and  S_1 
REMARK    2  A    between atoms: C_18  and  S_1 
REMARK    3  A    between atoms: N_2  and  C_4 
REMARK    4  A    between atoms: C_7  and  N_3 
REMARK    5  A    between atoms: C_4  and  C_5 
REMARK    6  A    between atoms: C_10  and  C_4 
REMARK    7  A    between atoms: C_5  and  N_6 
REMARK    8  A    between atoms: O_23  and  C_19 
ROOT
ATOM      1  N   UNL d   1      52.178  33.173  53.086  0.00  0.00    -0.300 N 
ATOM      2  N   UNL d   1      52.609  31.616  53.405  0.00  0.00    -0.301 N 
ATOM      3  C   UNL d   1      52.872  32.867  52.771  0.00  0.00     0.100 A 
ATOM      4  C   UNL d   1      51.698  32.702  53.560  0.00  0.00     0.100 A 
ATOM      5  C   UNL d   1      51.912  31.925  53.720  0.00  0.00     0.100 A 
ATOM      6  C   UNL d   1      53.089  32.087  52.930  0.00  0.00     0.100 A 
ENDROOT
BRANCH   1   7
ATOM      7  C   UNL d   1      51.963  33.960  52.922  0.00  0.00     0.086 C 
BRANCH   7   8
ATOM      8  C   UNL d   1      52.450  34.578  53.171  0.00  0.00     0.130 C 
BRANCH   8   9
ATOM      9  N   UNL d   1      52.373  34.883  53.940  0.00  0.00    -0.155 NA
BRANCH   9  10
ATOM     10  S   UNL d   1      52.932  35.409  54.233  0.00  0.00     0.286 S 
ATOM     11  O   UNL d   1      52.938  35.802  53.504  0.00  0.00    -0.198 OA
ATOM     12  O   UNL d   1      52.922  35.013  54.960  0.00  0.00    -0.198 OA
BRANCH  10  13
ATOM     13  C   UNL d   1      53.493  35.934  54.530  0.00  0.00     0.117 C 
ATOM     14  C   UNL d   1      53.252  36.576  55.003  0.00  0.00     0.014 C 
ENDBRANCH  10  13
ENDBRANCH   9  10
ENDBRANCH   8   9
ENDBRANCH   7   8
BRANCH   7  15
ATOM     15  C   UNL d   1      51.268  34.125  52.513  0.00  0.00     0.037 A 
ATOM     16  C   UNL d   1      50.560  34.217  52.926  0.00  0.00     0.100 A 
ATOM     17  N   UNL d   1      49.861  34.383  52.514  0.00  0.00    -0.242 NA
ATOM     18  C   UNL d   1      49.875  34.454  51.693  0.00  0.00     0.099 A 
ATOM     19  C   UNL d   1      50.581  34.362  51.283  0.00  0.00     0.021 A 
ATOM     20  C   UNL d   1      51.280  34.197  51.695  0.00  0.00     0.005 A 
ENDBRANCH   7  15
ENDBRANCH   1   7
BRANCH   2  21
ATOM     21  C   UNL d   1      52.823  30.840  53.565  0.00  0.00     0.064 A 
ATOM     22  C   UNL d   1      53.245  30.659  54.253  0.00  0.00     0.020 A 
ATOM     23  C   UNL d   1      53.458  29.882  54.413  0.00  0.00     0.026 A 
ATOM     24  C   UNL d   1      53.252  29.277  53.885  0.00  0.00     0.094 A 
ATOM     25  C   UNL d   1      52.830  29.458  53.197  0.00  0.00     0.026 A 
ATOM     26  C   UNL d   1      52.616  30.234  53.037  0.00  0.00     0.020 A 
BRANCH  24  27
ATOM     27  O   UNL d   1      53.465  28.487  54.041  0.00  0.00    -0.328 OA
ATOM     28  C   UNL d   1      53.612  28.233  54.820  0.00  0.00     0.181 C 
ENDBRANCH  24  27
ENDBRANCH   2  21
TORSDOF 8
ENDMDL
