MODEL 1
REMARK VINA RESULT:      -6.0      0.000      0.000
REMARK  2 active torsions:
REMARK  status: ('A' for Active; 'I' for Inactive)
REMARK    1  A    between atoms: C_5  and  C_1 
REMARK    2  A    between atoms: C_7  and  C_5 
ROOT
ATOM      1  C   UNL d   1     -41.392-122.507 -52.833  0.00  0.00     0.061 A 
ATOM      2  C   UNL d   1     -41.123-123.270 -52.824  0.00  0.00     0.102 A 
ATOM      3  N   UNL d   1     -41.224-123.596 -53.581  0.00  0.00    -0.244 NA
ATOM      4  C   UNL d   1     -41.663-122.342 -53.587  0.00  0.00     0.022 A 
ATOM      5  C   UNL d   1     -41.560-123.011 -54.047  0.00  0.00     0.082 A 
ATOM      6  C   UNL d   1     -41.994-121.655 -53.911  0.00  0.00     0.002 A 
ATOM      7  C   UNL d   1     -41.785-123.014 -54.844  0.00  0.00     0.019 A 
ATOM      8  C   UNL d   1     -42.218-121.659 -54.705  0.00  0.00     0.000 A 
ATOM      9  C   UNL d   1     -42.115-122.329 -55.166  0.00  0.00     0.002 A 
ENDROOT
BRANCH   1  10
ATOM     10  C   UNL d   1     -41.386-121.980 -52.166  0.00  0.00     0.215 C 
ATOM     11  O   UNL d   1     -41.126-121.208 -52.257  0.00  0.00    -0.285 OA
BRANCH  10  12
ATOM     12  C   UNL d   1     -41.649-122.264 -51.429  0.00  0.00     0.120 A 
ATOM     13  N   UNL d   1     -42.430-122.138 -51.197  0.00  0.00    -0.241 NA
ATOM     14  C   UNL d   1     -42.676-122.425 -50.464  0.00  0.00     0.099 A 
ATOM     15  C   UNL d   1     -42.148-122.830 -49.975  0.00  0.00     0.021 A 
ATOM     16  C   UNL d   1     -41.376-122.949 -50.216  0.00  0.00     0.003 A 
ATOM     17  C   UNL d   1     -41.123-122.669 -50.937  0.00  0.00     0.022 A 
ENDBRANCH  10  12
ENDBRANCH   1  10
TORSDOF 2
ENDMDL
MODEL 2
REMARK VINA RESULT:      -5.2      1.212      3.561
REMARK  2 active torsions:
REMARK  status: ('A' for Active; 'I' for Inactive)
REMARK    1  A    between atoms: C_5  and  C_1 
REMARK    2  A    between atoms: C_7  and  C_5 
ROOT
ATOM      1  C   UNL d   1     -41.289-122.593 -53.023  0.00  0.00     0.061 A 
ATOM      2  C   UNL d   1     -41.213-121.789 -52.971  0.00  0.00     0.102 A 
ATOM      3  N   UNL d   1     -41.137-121.581 -52.170  0.00  0.00    -0.244 NA
ATOM      4  C   UNL d   1     -41.262-122.901 -52.265  0.00  0.00     0.022 A 
ATOM      5  C   UNL d   1     -41.169-122.279 -51.741  0.00  0.00     0.082 A 
ATOM      6  C   UNL d   1     -41.312-123.680 -51.989  0.00  0.00     0.002 A 
ATOM      7  C   UNL d   1     -41.123-122.418 -50.926  0.00  0.00     0.019 A 
ATOM      8  C   UNL d   1     -41.266-123.818 -51.177  0.00  0.00     0.000 A 
ATOM      9  C   UNL d   1     -41.173-123.195 -50.652  0.00  0.00     0.002 A 
ENDROOT
BRANCH   1  10
ATOM     10  C   UNL d   1     -41.380-123.028 -53.747  0.00  0.00     0.215 C 
ATOM     11  O   UNL d   1     -41.123-123.805 -53.793  0.00  0.00    -0.285 OA
BRANCH  10  12
ATOM     12  C   UNL d   1     -41.733-122.650 -54.400  0.00  0.00     0.120 A 
ATOM     13  N   UNL d   1     -42.554-122.603 -54.449  0.00  0.00    -0.241 NA
ATOM     14  C   UNL d   1     -42.890-122.225 -55.102  0.00  0.00     0.099 A 
ATOM     15  C   UNL d   1     -42.409-121.903 -55.692  0.00  0.00     0.021 A 
ATOM     16  C   UNL d   1     -41.596-121.957 -55.631  0.00  0.00     0.003 A 
ATOM     17  C   UNL d   1     -41.255-122.327 -54.991  0.00  0.00     0.022 A 
ENDBRANCH  10  12
ENDBRANCH   1  10
TORSDOF 2
ENDMDL
MODEL 3
REMARK VINA RESULT:      -4.1      1.920      2.964
REMARK  2 active torsions:
REMARK  status: ('A' for Active; 'I' for Inactive)
REMARK    1  A    between atoms: C_5  and  C_1 
REMARK    2  A    between atoms: C_7  and  C_5 
ROOT
ATOM      1  C   UNL d   1     -42.058-123.027 -50.198  0.00  0.00     0.061 A 
ATOM      2  C   UNL d   1     -41.928-123.798 -50.404  0.00  0.00     0.102 A 
ATOM      3  N   UNL d   1     -41.557-123.815 -51.147  0.00  0.00    -0.244 NA
ATOM      4  C   UNL d   1     -41.774-122.551 -50.801  0.00  0.00     0.022 A 
ATOM      5  C   UNL d   1     -41.466-123.036 -51.385  0.00  0.00     0.082 A 
ATOM      6  C   UNL d   1     -41.760-121.728 -50.887  0.00  0.00     0.002 A 
ATOM      7  C   UNL d   1     -41.136-122.712 -52.071  0.00  0.00     0.019 A 
ATOM      8  C   UNL d   1     -41.430-121.406 -51.572  0.00  0.00     0.000 A 
ATOM      9  C   UNL d   1     -41.123-121.891 -52.155  0.00  0.00     0.002 A 
ENDROOT
BRANCH   1  10
ATOM     10  C   UNL d   1     -42.426-122.770 -49.477  0.00  0.00     0.215 C 
ATOM     11  O   UNL d   1     -43.026-122.213 -49.500  0.00  0.00    -0.285 OA
BRANCH  10  12
ATOM     12  C   UNL d   1     -42.165-123.095 -48.756  0.00  0.00     0.120 A 
ATOM     13  N   UNL d   1     -41.375-123.013 -48.533  0.00  0.00    -0.241 NA
ATOM     14  C   UNL d   1     -41.131-123.340 -47.816  0.00  0.00     0.099 A 
ATOM     15  C   UNL d   1     -41.669-123.741 -47.334  0.00  0.00     0.021 A 
ATOM     16  C   UNL d   1     -42.449-123.816 -47.567  0.00  0.00     0.003 A 
ATOM     17  C   UNL d   1     -42.700-123.497 -48.272  0.00  0.00     0.022 A 
ENDBRANCH  10  12
ENDBRANCH   1  10
TORSDOF 2
ENDMDL
