MODEL 1
REMARK VINA RESULT:      32.9      0.000      0.000
REMARK  4 active torsions:
REMARK  status: ('A' for Active; 'I' for Inactive)
REMARK    1  A    between atoms: C_7  and  C_3 
REMARK    2  A    between atoms: S_6  and  C_7 
REMARK    3  A    between atoms: C_9  and  S_6 
REMARK    4  A    between atoms: C_8  and  C_9 
ROOT
ATOM      1  N   UNL d   1      59.820  49.486  51.320  0.00  0.00    -0.225 NA
ATOM      2  N   UNL d   1      60.826  49.699  50.428  0.00  0.00    -0.225 NA
ATOM      3  C   UNL d   1      59.998  49.600  50.507  0.00  0.00     0.169 A 
ATOM      4  C   UNL d   1      60.545  49.517  51.735  0.00  0.00     0.101 A 
ATOM      5  C   UNL d   1      61.167  49.647  51.194  0.00  0.00     0.101 A 
ATOM      6  C   UNL d   1      60.714  49.442  52.549  0.00  0.00     0.021 A 
ATOM      7  C   UNL d   1      61.947  49.699  51.478  0.00  0.00     0.021 A 
ATOM      8  C   UNL d   1      62.103  49.624  52.277  0.00  0.00     0.002 A 
ATOM      9  C   UNL d   1      61.487  49.495  52.813  0.00  0.00     0.002 A 
ENDROOT
BRANCH   3  10
ATOM     10  C   UNL d   1      59.220  49.546  50.237  0.00  0.00     0.074 C 
BRANCH  10  11
ATOM     11  S   UNL d   1      58.594  49.646  50.764  0.00  0.00    -0.083 SA
BRANCH  11  12
ATOM     12  C   UNL d   1      58.003  49.072  50.814  0.00  0.00     0.035 C 
BRANCH  12  13
ATOM     13  C   UNL d   1      57.348  49.113  50.315  0.00  0.00     0.006 A 
ATOM     14  C   UNL d   1      56.752  49.666  50.469  0.00  0.00     0.001 A 
ATOM     15  C   UNL d   1      56.097  49.707  49.970  0.00  0.00     0.000 A 
ATOM     16  C   UNL d   1      56.040  49.198  49.323  0.00  0.00     0.000 A 
ATOM     17  C   UNL d   1      56.640  48.648  49.175  0.00  0.00     0.000 A 
ATOM     18  C   UNL d   1      57.295  48.607  49.674  0.00  0.00     0.001 A 
ENDBRANCH  12  13
ENDBRANCH  11  12
ENDBRANCH  10  11
ENDBRANCH   3  10
TORSDOF 4
ENDMDL
