MODEL 1
REMARK VINA RESULT:      40.9      0.000      0.000
REMARK  3 active torsions:
REMARK  status: ('A' for Active; 'I' for Inactive)
REMARK    1  A    between atoms: N_12  and  C_6 
REMARK    2  A    between atoms: C_18  and  N_12 
REMARK    3  A    between atoms: C_19  and  C_18 
ROOT
ATOM      1  N   UNL d   1      58.784  49.666  50.841  0.00  0.00    -0.175 N 
ATOM      2  C   UNL d   1      59.057  49.661  50.095  0.00  0.00     0.167 A 
ATOM      3  N   UNL d   1      59.319  49.668  51.470  0.00  0.00    -0.142 NA
ATOM      4  C   UNL d   1      58.004  49.670  50.990  0.00  0.00     0.283 A 
ATOM      5  N   UNL d   1      58.556  49.660  49.478  0.00  0.00    -0.227 NA
ATOM      6  C   UNL d   1      60.132  49.664  51.334  0.00  0.00     0.182 A 
ATOM      7  C   UNL d   1      57.469  49.669  50.361  0.00  0.00     0.076 A 
ATOM      8  C   UNL d   1      59.871  49.657  49.959  0.00  0.00     0.039 A 
ATOM      9  C   UNL d   1      57.742  49.664  49.614  0.00  0.00     0.088 A 
ATOM     10  C   UNL d   1      60.405  49.659  50.587  0.00  0.00     0.041 A 
ATOM     11  O   UNL d   1      57.718  49.676  51.771  0.00  0.00    -0.265 OA
ATOM     12  C   UNL d   1      56.655  49.673  50.497  0.00  0.00     0.006 A 
ATOM     13  C   UNL d   1      60.156  49.652  49.178  0.00  0.00     0.003 A 
ATOM     14  C   UNL d   1      61.219  49.655  50.451  0.00  0.00     0.003 A 
ATOM     15  C   UNL d   1      57.207  49.662  48.986  0.00  0.00     0.019 A 
ATOM     16  C   UNL d   1      56.130  49.671  49.846  0.00  0.00     0.000 A 
ATOM     17  C   UNL d   1      60.969  49.648  49.042  0.00  0.00     0.000 A 
ATOM     18  C   UNL d   1      61.504  49.650  49.671  0.00  0.00     0.000 A 
ATOM     19  C   UNL d   1      56.386  49.666  49.144  0.00  0.00     0.002 A 
ENDROOT
BRANCH   6  20
ATOM     20  N   UNL d   1      60.711  49.665  51.947  0.00  0.00    -0.220 NA
BRANCH  20  21
ATOM     21  C   UNL d   1      60.492  49.504  52.729  0.00  0.00     0.146 C 
BRANCH  21  22
ATOM     22  C   UNL d   1      60.994  49.652  53.347  0.00  0.00     0.255 C 
ATOM     23  O   UNL d   1      61.815  49.517  53.243  0.00  0.00    -0.281 OA
ENDBRANCH  21  22
ENDBRANCH  20  21
ENDBRANCH   6  20
TORSDOF 3
ENDMDL
MODEL 2
REMARK VINA RESULT:      41.7      1.246      2.191
REMARK  3 active torsions:
REMARK  status: ('A' for Active; 'I' for Inactive)
REMARK    1  A    between atoms: N_12  and  C_6 
REMARK    2  A    between atoms: C_18  and  N_12 
REMARK    3  A    between atoms: C_19  and  C_18 
ROOT
ATOM      1  N   UNL d   1      58.936  49.707  50.238  0.00  0.00    -0.175 N 
ATOM      2  C   UNL d   1      58.612  49.707  50.964  0.00  0.00     0.167 A 
ATOM      3  N   UNL d   1      59.758  49.707  50.159  0.00  0.00    -0.142 NA
ATOM      4  C   UNL d   1      58.479  49.707  49.588  0.00  0.00     0.283 A 
ATOM      5  N   UNL d   1      57.823  49.707  51.057  0.00  0.00    -0.227 NA
ATOM      6  C   UNL d   1      60.246  49.707  50.823  0.00  0.00     0.182 A 
ATOM      7  C   UNL d   1      57.658  49.707  49.667  0.00  0.00     0.076 A 
ATOM      8  C   UNL d   1      59.102  49.706  51.628  0.00  0.00     0.039 A 
ATOM      9  C   UNL d   1      57.334  49.707  50.393  0.00  0.00     0.088 A 
ATOM     10  C   UNL d   1      59.922  49.706  51.549  0.00  0.00     0.041 A 
ATOM     11  O   UNL d   1      58.819  49.707  48.828  0.00  0.00    -0.265 OA
ATOM     12  C   UNL d   1      57.168  49.707  49.002  0.00  0.00     0.006 A 
ATOM     13  C   UNL d   1      58.763  49.706  52.387  0.00  0.00     0.003 A 
ATOM     14  C   UNL d   1      60.412  49.706  52.213  0.00  0.00     0.003 A 
ATOM     15  C   UNL d   1      56.512  49.707  50.472  0.00  0.00     0.019 A 
ATOM     16  C   UNL d   1      56.338  49.707  49.104  0.00  0.00     0.000 A 
ATOM     17  C   UNL d   1      59.252  49.706  53.051  0.00  0.00     0.000 A 
ATOM     18  C   UNL d   1      60.073  49.706  52.972  0.00  0.00     0.000 A 
ATOM     19  C   UNL d   1      56.033  49.707  49.786  0.00  0.00     0.002 A 
ENDROOT
BRANCH   6  20
ATOM     20  N   UNL d   1      61.089  49.706  50.786  0.00  0.00    -0.220 NA
BRANCH  20  21
ATOM     21  C   UNL d   1      61.482  49.236  50.230  0.00  0.00     0.146 C 
BRANCH  21  22
ATOM     22  C   UNL d   1      61.907  48.583  50.455  0.00  0.00     0.255 C 
ATOM     23  O   UNL d   1      61.702  47.837  50.133  0.00  0.00    -0.281 OA
ENDBRANCH  21  22
ENDBRANCH  20  21
ENDBRANCH   6  20
TORSDOF 3
ENDMDL
