MODEL 1
REMARK VINA RESULT:      23.4      0.000      0.000
REMARK  3 active torsions:
REMARK  status: ('A' for Active; 'I' for Inactive)
REMARK    1  A    between atoms: N_7  and  S_1 
REMARK    2  A    between atoms: C_3  and  C_8 
REMARK    3  A    between atoms: C_13  and  N_7 
ROOT
ATOM      1  C   UNL d   1     -51.809  25.007  33.314  0.00  0.00     0.018 A 
ATOM      2  C   UNL d   1     -52.045  25.790  33.316  0.00  0.00     0.003 A 
ATOM      3  C   UNL d   1     -51.005  24.815  33.308  0.00  0.00     0.003 A 
ATOM      4  C   UNL d   1     -50.689  26.214  33.309  0.00  0.00     0.093 A 
ATOM      5  C   UNL d   1     -51.487  26.395  33.314  0.00  0.00     0.020 A 
ATOM      6  C   UNL d   1     -50.446  25.416  33.306  0.00  0.00     0.020 A 
ENDROOT
BRANCH   1   7
ATOM      7  C   UNL d   1     -52.367  24.399  33.316  0.00  0.00     0.088 A 
ATOM      8  N   UNL d   1     -53.185  24.495  33.314  0.00  0.00    -0.239 NA
ATOM      9  C   UNL d   1     -53.529  23.751  33.318  0.00  0.00     0.111 A 
ATOM     10  C   UNL d   1     -54.346  23.592  33.317  0.00  0.00     0.028 C 
ATOM     11  S   UNL d   1     -52.925  23.188  33.322  0.00  0.00    -0.066 SA
ATOM     12  C   UNL d   1     -52.202  23.591  33.321  0.00  0.00     0.056 A 
ENDBRANCH   1   7
BRANCH   4  13
ATOM     13  N   UNL d   1     -50.123  26.816  33.306  0.00  0.00    -0.162 NA
BRANCH  13  14
ATOM     14  S   UNL d   1     -49.855  27.087  34.040  0.00  0.00     0.266 S 
ATOM     15  O   UNL d   1     -50.633  27.448  34.199  0.00  0.00    -0.203 OA
ATOM     16  O   UNL d   1     -48.956  26.630  33.778  0.00  0.00    -0.203 OA
ATOM     17  C   UNL d   1     -49.334  27.369  34.980  0.00  0.00     0.165 C 
ENDBRANCH  13  14
ENDBRANCH   4  13
TORSDOF 3
ENDMDL
