MODEL 1
REMARK VINA RESULT:      20.1      0.000      0.000
REMARK  6 active torsions:
REMARK  status: ('A' for Active; 'I' for Inactive)
REMARK    1  A    between atoms: C_2  and  S_1 
REMARK    2  A    between atoms: N_3  and  S_1 
REMARK    3  A    between atoms: C_10  and  N_3 
REMARK    4  A    between atoms: C_16  and  C_11 
REMARK    5  A    between atoms: C_17  and  C_16 
REMARK    6  A    between atoms: C_18  and  C_17 
ROOT
ATOM      1  C   UNL d   1     -56.934 -98.868 -44.658  0.00  0.00     0.094 A 
ATOM      2  C   UNL d   1     -58.565 -98.802 -44.586  0.00  0.00     0.000 A 
ATOM      3  C   UNL d   1     -57.311 -98.799 -43.927  0.00  0.00     0.020 A 
ATOM      4  C   UNL d   1     -57.378 -98.904 -45.346  0.00  0.00     0.020 A 
ATOM      5  C   UNL d   1     -58.178 -98.872 -45.311  0.00  0.00     0.002 A 
ATOM      6  C   UNL d   1     -58.111 -98.766 -43.891  0.00  0.00     0.002 A 
ENDROOT
BRANCH   1   7
ATOM      7  N   UNL d   1     -56.071 -98.904 -44.696  0.00  0.00    -0.158 NA
BRANCH   7   8
ATOM      8  S   UNL d   1     -55.692 -99.631 -44.631  0.00  0.00     0.291 S 
ATOM      9  O   UNL d   1     -56.416 -99.924 -44.294  0.00  0.00    -0.198 OA
ATOM     10  O   UNL d   1     -54.998 -99.281 -44.973  0.00  0.00    -0.198 OA
BRANCH   8  11
ATOM     11  C   UNL d   1     -55.323-100.359 -44.561  0.00  0.00     0.135 A 
ATOM     12  S   UNL d   1     -55.110-100.939 -45.098  0.00  0.00    -0.073 SA
ATOM     13  C   UNL d   1     -54.748-101.562 -44.692  0.00  0.00     0.036 A 
ATOM     14  C   UNL d   1     -54.736-101.377 -43.925  0.00  0.00     0.008 A 
ATOM     15  C   UNL d   1     -55.087-100.636 -43.821  0.00  0.00     0.020 A 
ENDBRANCH   8  11
ENDBRANCH   7   8
ENDBRANCH   1   7
BRANCH   2  16
ATOM     16  C   UNL d   1     -59.427 -98.767 -44.548  0.00  0.00     0.000 C 
BRANCH  16  17
ATOM     17  C   UNL d   1     -59.824 -99.082 -43.896  0.00  0.00     0.000 C 
BRANCH  17  18
ATOM     18  C   UNL d   1     -59.708 -98.756 -43.147  0.00  0.00     0.000 C 
ATOM     19  C   UNL d   1     -59.959 -99.158 -42.478  0.00  0.00     0.000 C 
ENDBRANCH  17  18
ENDBRANCH  16  17
ENDBRANCH   2  16
TORSDOF 6
ENDMDL
