MODEL 1
REMARK VINA RESULT:      56.1      0.000      0.000
REMARK  3 active torsions:
REMARK  status: ('A' for Active; 'I' for Inactive)
REMARK    1  A    between atoms: C_13  and  N_3 
REMARK    2  A    between atoms: C_10  and  C_6 
REMARK    3  A    between atoms: C_11  and  C_8 
ROOT
ATOM      1  C   UNL d   1     -54.741-101.255 -39.178  0.00  0.00     0.167 A 
ATOM      2  C   UNL d   1     -54.744-101.531 -38.395  0.00  0.00     0.056 A 
ATOM      3  N   UNL d   1     -54.739-101.911 -39.687  0.00  0.00    -0.212 N 
ATOM      4  N   UNL d   1     -54.742-102.603 -39.215  0.00  0.00    -0.164 NA
ATOM      5  N   UNL d   1     -54.739-100.444 -39.325  0.00  0.00    -0.206 NA
ATOM      6  C   UNL d   1     -54.746-100.996 -37.770  0.00  0.00     0.015 A 
ATOM      7  C   UNL d   1     -54.745-102.367 -38.416  0.00  0.00     0.104 A 
ATOM      8  C   UNL d   1     -54.745-100.189 -37.914  0.00  0.00     0.059 A 
ATOM      9  C   UNL d   1     -54.741 -99.915 -38.692  0.00  0.00     0.187 A 
ATOM     10  N   UNL d   1     -54.740 -99.107 -38.840  0.00  0.00    -0.127 N 
ATOM     11  C   UNL d   1     -54.748-102.866 -37.766  0.00  0.00     0.023 C 
ENDROOT
BRANCH   3  12
ATOM     12  C   UNL d   1     -54.736-101.885 -40.513  0.00  0.00     0.085 A 
ATOM     13  C   UNL d   1     -54.749-101.161 -40.902  0.00  0.00     0.019 A 
ATOM     14  C   UNL d   1     -54.746-101.138 -41.720  0.00  0.00     0.002 A 
ATOM     15  C   UNL d   1     -54.729-101.835 -42.160  0.00  0.00     0.000 A 
ATOM     16  C   UNL d   1     -54.715-102.568 -41.769  0.00  0.00     0.002 A 
ATOM     17  C   UNL d   1     -54.726-101.809 -42.986  0.00  0.00     0.000 C 
ATOM     18  C   UNL d   1     -54.719-102.589 -40.946  0.00  0.00     0.019 A 
ENDBRANCH   3  12
BRANCH   6  19
ATOM     19  C   UNL d   1     -54.750-101.278 -36.994  0.00  0.00     0.030 A 
ATOM     20  S   UNL d   1     -54.740-100.823 -36.307  0.00  0.00    -0.086 SA
ATOM     21  C   UNL d   1     -54.748-101.333 -35.658  0.00  0.00     0.035 A 
ATOM     22  C   UNL d   1     -54.762-102.105 -35.947  0.00  0.00     0.007 A 
ATOM     23  C   UNL d   1     -54.764-102.080 -36.765  0.00  0.00     0.007 A 
ENDBRANCH   6  19
BRANCH   8  24
ATOM     24  C   UNL d   1     -54.747 -99.654 -37.288  0.00  0.00     0.125 C 
ATOM     25  N   UNL d   1     -54.995 -98.879 -37.412  0.00  0.00    -0.146 N 
ENDBRANCH   8  24
TORSDOF 3
ENDMDL
