MODEL 1
REMARK VINA RESULT:      -5.2      0.000      0.000
REMARK  3 active torsions:
REMARK  status: ('A' for Active; 'I' for Inactive)
REMARK    1  A    between atoms: N_2  and  S_1 
REMARK    2  A    between atoms: C_5  and  S_1 
REMARK    3  A    between atoms: C_3  and  N_4 
ROOT
ATOM      1  N   UNL d   1      56.891   0.047  31.966  0.00  0.00    -0.226 N 
ATOM      2  N   UNL d   1      57.760  -0.199  30.589  0.00  0.00    -0.134 N 
ATOM      3  C   UNL d   1      57.269   0.681  31.601  0.00  0.00     0.111 A 
ATOM      4  C   UNL d   1      56.947  -0.710  31.642  0.00  0.00     0.111 A 
ATOM      5  C   UNL d   1      57.382  -0.832  30.954  0.00  0.00     0.118 A 
ATOM      6  C   UNL d   1      57.703   0.558  30.913  0.00  0.00     0.118 A 
ENDROOT
BRANCH   1   7
ATOM      7  S   UNL d   1      56.453   0.179  32.663  0.00  0.00     0.271 S 
ATOM      8  O   UNL d   1      55.896   0.614  32.227  0.00  0.00    -0.200 OA
ATOM      9  O   UNL d   1      57.017  -0.259  33.094  0.00  0.00    -0.200 OA
BRANCH   7  10
ATOM     10  C   UNL d   1      56.021   0.307  33.363  0.00  0.00     0.104 A 
ATOM     11  C   UNL d   1      55.194   0.180  33.354  0.00  0.00     0.015 A 
ATOM     12  C   UNL d   1      54.753   0.306  34.054  0.00  0.00     0.030 A 
ATOM     13  C   UNL d   1      55.143   0.557  34.748  0.00  0.00     0.140 A 
ATOM     14  C   UNL d   1      55.970   0.682  34.750  0.00  0.00     0.030 A 
ATOM     15  F   UNL d   1      54.707   0.682  35.441  0.00  0.00    -0.204 F 
ATOM     16  C   UNL d   1      56.402   0.553  34.045  0.00  0.00     0.015 A 
ENDBRANCH   7  10
ENDBRANCH   1   7
BRANCH   2  17
ATOM     17  C   UNL d   1      58.187  -0.325  29.910  0.00  0.00     0.735 A 
ATOM     18  N   UNL d   1      58.696  -0.972  29.851  0.00  0.00    -0.059 NA
ATOM     19  C   UNL d   1      59.127  -1.097  29.163  0.00  0.00     0.120 A 
ATOM     20  C   UNL d   1      59.048  -0.574  28.533  0.00  0.00     0.043 A 
ATOM     21  C   UNL d   1      58.539   0.073  28.592  0.00  0.00     0.120 A 
ATOM     22  N   UNL d   1      58.114   0.191  29.278  0.00  0.00    -0.059 NA
ENDBRANCH   2  17
TORSDOF 3
ENDMDL
MODEL 2
REMARK VINA RESULT:      -4.4      2.248      4.965
REMARK  3 active torsions:
REMARK  status: ('A' for Active; 'I' for Inactive)
REMARK    1  A    between atoms: N_2  and  S_1 
REMARK    2  A    between atoms: C_5  and  S_1 
REMARK    3  A    between atoms: C_3  and  N_4 
ROOT
ATOM      1  N   UNL d   1      56.933  -0.304  31.772  0.00  0.00    -0.226 N 
ATOM      2  N   UNL d   1      56.001   0.085  33.072  0.00  0.00    -0.134 N 
ATOM      3  C   UNL d   1      56.653  -0.899  32.268  0.00  0.00     0.111 A 
ATOM      4  C   UNL d   1      56.747   0.485  31.926  0.00  0.00     0.111 A 
ATOM      5  C   UNL d   1      56.281   0.678  32.577  0.00  0.00     0.118 A 
ATOM      6  C   UNL d   1      56.187  -0.704  32.918  0.00  0.00     0.118 A 
ENDROOT
BRANCH   1   7
ATOM      7  S   UNL d   1      57.405  -0.509  31.116  0.00  0.00     0.271 S 
ATOM      8  O   UNL d   1      57.010  -1.238  31.062  0.00  0.00    -0.200 OA
ATOM      9  O   UNL d   1      57.797   0.225  31.176  0.00  0.00    -0.200 OA
BRANCH   7  10
ATOM     10  C   UNL d   1      57.879  -0.707  30.461  0.00  0.00     0.104 A 
ATOM     11  C   UNL d   1      58.131  -0.095  29.948  0.00  0.00     0.015 A 
ATOM     12  C   UNL d   1      58.609  -0.286  29.288  0.00  0.00     0.030 A 
ATOM     13  C   UNL d   1      58.826  -1.080  29.151  0.00  0.00     0.140 A 
ATOM     14  C   UNL d   1      58.570  -1.687  29.667  0.00  0.00     0.030 A 
ATOM     15  F   UNL d   1      59.298  -1.269  28.497  0.00  0.00    -0.204 F 
ATOM     16  C   UNL d   1      58.093  -1.486  30.325  0.00  0.00     0.015 A 
ENDBRANCH   7  10
ENDBRANCH   1   7
BRANCH   2  17
ATOM     17  C   UNL d   1      55.542   0.282  33.712  0.00  0.00     0.735 A 
ATOM     18  N   UNL d   1      55.883   0.383  34.457  0.00  0.00    -0.059 NA
ATOM     19  C   UNL d   1      55.415   0.583  35.101  0.00  0.00     0.120 A 
ATOM     20  C   UNL d   1      54.604   0.681  35.001  0.00  0.00     0.043 A 
ATOM     21  C   UNL d   1      54.264   0.580  34.257  0.00  0.00     0.120 A 
ATOM     22  N   UNL d   1      54.733   0.382  33.621  0.00  0.00    -0.059 NA
ENDBRANCH   2  17
TORSDOF 3
ENDMDL
