MODEL 1
REMARK VINA RESULT:      -2.8      0.000      0.000
REMARK  1 active torsions:
REMARK  status: ('A' for Active; 'I' for Inactive)
REMARK    1  A    between atoms: C_11  and  C_3 
ROOT
ATOM      1  C   UNL d   1     -42.122-122.899 -50.083  0.00  0.00     0.052 A 
ATOM      2  C   UNL d   1     -41.565-123.222 -50.615  0.00  0.00     0.115 A 
ATOM      3  C   UNL d   1     -42.032-123.262 -49.355  0.00  0.00     0.011 A 
ATOM      4  C   UNL d   1     -42.663-122.286 -50.353  0.00  0.00     0.139 A 
ATOM      5  N   UNL d   1     -41.538-122.937 -51.428  0.00  0.00    -0.217 NA
ATOM      6  S   UNL d   1     -41.123-123.788 -50.223  0.00  0.00    -0.067 SA
ATOM      7  C   UNL d   1     -41.415-123.813 -49.434  0.00  0.00     0.037 A 
ATOM      8  N   UNL d   1     -42.623-122.026 -51.135  0.00  0.00    -0.213 NA
ATOM      9  C   UNL d   1     -42.043-122.361 -51.689  0.00  0.00     0.200 A 
ATOM     10  S   UNL d   1     -43.237-121.941 -49.840  0.00  0.00    -0.057 SA
ENDROOT
BRANCH   3  11
ATOM     11  C   UNL d   1     -42.231-123.366 -48.591  0.00  0.00     0.001 A 
ATOM     12  C   UNL d   1     -42.945-123.715 -48.369  0.00  0.00     0.000 A 
ATOM     13  C   UNL d   1     -43.142-123.817 -47.568  0.00  0.00     0.000 A 
ATOM     14  C   UNL d   1     -42.611-123.565 -46.990  0.00  0.00     0.000 A 
ATOM     15  C   UNL d   1     -41.897-123.216 -47.212  0.00  0.00     0.000 A 
ATOM     16  C   UNL d   1     -41.713-123.120 -48.013  0.00  0.00     0.000 A 
ENDBRANCH   3  11
TORSDOF 1
ENDMDL
MODEL 2
REMARK VINA RESULT:      -0.5      1.215      1.759
REMARK  1 active torsions:
REMARK  status: ('A' for Active; 'I' for Inactive)
REMARK    1  A    between atoms: C_11  and  C_3 
ROOT
ATOM      1  C   UNL d   1     -41.460-122.567 -51.395  0.00  0.00     0.052 A 
ATOM      2  C   UNL d   1     -41.496-123.057 -52.071  0.00  0.00     0.115 A 
ATOM      3  C   UNL d   1     -41.628-123.019 -50.733  0.00  0.00     0.011 A 
ATOM      4  C   UNL d   1     -41.269-121.733 -51.484  0.00  0.00     0.139 A 
ATOM      5  N   UNL d   1     -41.341-122.720 -52.848  0.00  0.00    -0.217 NA
ATOM      6  S   UNL d   1     -41.687-123.818 -51.836  0.00  0.00    -0.067 SA
ATOM      7  C   UNL d   1     -41.769-123.794 -50.998  0.00  0.00     0.037 A 
ATOM      8  N   UNL d   1     -41.124-121.429 -52.237  0.00  0.00    -0.213 NA
ATOM      9  C   UNL d   1     -41.161-121.938 -52.940  0.00  0.00     0.200 A 
ATOM     10  S   UNL d   1     -41.225-121.213 -50.821  0.00  0.00    -0.057 SA
ENDROOT
BRANCH   3  11
ATOM     11  C   UNL d   1     -41.729-123.107 -49.948  0.00  0.00     0.001 A 
ATOM     12  C   UNL d   1     -41.139-123.420 -49.464  0.00  0.00     0.000 A 
ATOM     13  C   UNL d   1     -41.257-123.506 -48.646  0.00  0.00     0.000 A 
ATOM     14  C   UNL d   1     -41.977-123.273 -48.318  0.00  0.00     0.000 A 
ATOM     15  C   UNL d   1     -42.566-122.959 -48.803  0.00  0.00     0.000 A 
ATOM     16  C   UNL d   1     -42.437-122.879 -49.615  0.00  0.00     0.000 A 
ENDBRANCH   3  11
TORSDOF 1
ENDMDL
