MODEL 1
REMARK VINA RESULT:      73.1      0.000      0.000
REMARK  4 active torsions:
REMARK  status: ('A' for Active; 'I' for Inactive)
REMARK    1  A    between atoms: C_2  and  C_1 
REMARK    2  A    between atoms: C_3  and  C_1 
REMARK    3  A    between atoms: C_9  and  C_1 
REMARK    4  A    between atoms: N_4  and  C_10 
ROOT
ATOM      1  C   UNL d   1      44.240 -15.540  37.469  0.00  0.00     0.012 C 
ENDROOT
BRANCH   1   2
ATOM      2  C   UNL d   1      43.437 -15.578  37.267  0.00  0.00     0.077 A 
ATOM      3  C   UNL d   1      43.179 -16.119  36.697  0.00  0.00     0.195 A 
ATOM      4  C   UNL d   1      42.379 -16.159  36.494  0.00  0.00     0.019 A 
ATOM      5  O   UNL d   1      43.729 -16.623  36.330  0.00  0.00    -0.287 OA
ATOM      6  C   UNL d   1      41.831 -15.652  36.864  0.00  0.00     0.043 A 
ATOM      7  C   UNL d   1      42.097 -15.115  37.430  0.00  0.00     0.019 A 
ATOM      8  C   UNL d   1      41.138 -15.275  37.079  0.00  0.00     0.009 C 
ATOM      9  C   UNL d   1      41.422 -16.123  36.330  0.00  0.00     0.009 C 
ATOM     10  C   UNL d   1      42.891 -15.069  37.638  0.00  0.00     0.195 A 
ATOM     11  O   UNL d   1      43.147 -14.521  38.214  0.00  0.00    -0.287 OA
ENDBRANCH   1   2
BRANCH   1  12
ATOM     12  C   UNL d   1      44.825 -14.979  37.323  0.00  0.00     0.077 A 
ATOM     13  C   UNL d   1      44.833 -14.266  37.734  0.00  0.00     0.195 A 
ATOM     14  C   UNL d   1      45.405 -13.703  37.601  0.00  0.00     0.019 A 
ATOM     15  O   UNL d   1      44.250 -14.121  38.292  0.00  0.00    -0.287 OA
ATOM     16  C   UNL d   1      45.991 -13.855  37.037  0.00  0.00     0.043 A 
ATOM     17  C   UNL d   1      46.004 -14.568  36.609  0.00  0.00     0.019 A 
ATOM     18  C   UNL d   1      46.190 -13.112  37.311  0.00  0.00     0.009 C 
ATOM     19  C   UNL d   1      46.647 -13.837  36.516  0.00  0.00     0.009 C 
ATOM     20  C   UNL d   1      45.410 -15.130  36.761  0.00  0.00     0.195 A 
ATOM     21  O   UNL d   1      45.427 -15.839  36.332  0.00  0.00    -0.287 OA
ENDBRANCH   1  12
BRANCH   1  22
ATOM     22  C   UNL d   1      44.532 -16.173  37.898  0.00  0.00     0.002 A 
ATOM     23  C   UNL d   1      44.193 -16.356  38.636  0.00  0.00     0.024 A 
ATOM     24  C   UNL d   1      44.485 -16.989  39.065  0.00  0.00     0.127 A 
ATOM     25  C   UNL d   1      45.117 -17.440  38.757  0.00  0.00     0.024 A 
ATOM     26  C   UNL d   1      45.442 -17.257  38.041  0.00  0.00     0.002 A 
ATOM     27  C   UNL d   1      45.146 -16.615  37.605  0.00  0.00     0.000 A 
BRANCH  24  28
ATOM     28  N   UNL d   1      44.139 -17.166  39.803  0.00  0.00    -0.114 N 
ATOM     29  O   UNL d   1      43.788 -16.579  40.250  0.00  0.00    -0.532 OA
ATOM     30  O   UNL d   1      44.143 -17.943  40.101  0.00  0.00    -0.532 OA
ENDBRANCH  24  28
ENDBRANCH   1  22
TORSDOF 4
ENDMDL
