MODEL 1
REMARK VINA RESULT:      -3.3      0.000      0.000
REMARK  3 active torsions:
REMARK  status: ('A' for Active; 'I' for Inactive)
REMARK    1  A    between atoms: C_9  and  C_1 
REMARK    2  A    between atoms: C_11  and  C_2 
REMARK    3  A    between atoms: C_3  and  C_9 
ROOT
ATOM      1  C   UNL d   1      30.988  16.776 -24.204  0.00  0.00     0.003 A 
ATOM      2  C   UNL d   1      29.493  16.139 -24.002  0.00  0.00    -0.023 A 
ATOM      3  C   UNL d   1      30.332  17.131 -24.552  0.00  0.00    -0.000 A 
ATOM      4  C   UNL d   1      30.889  16.105 -23.758  0.00  0.00    -0.000 A 
ATOM      5  C   UNL d   1      30.145  15.782 -23.654  0.00  0.00    -0.004 A 
ATOM      6  C   UNL d   1      29.593  16.810 -24.448  0.00  0.00    -0.004 A 
ATOM      7  C   UNL d   1      31.548  15.743 -23.405  0.00  0.00    -0.000 C 
ATOM      8  C   UNL d   1      30.425  17.815 -25.007  0.00  0.00    -0.000 C 
ENDROOT
BRANCH   1   9
ATOM      9  C   UNL d   1      31.739  17.102 -24.309  0.00  0.00     0.039 C 
BRANCH   9  10
ATOM     10  C   UNL d   1      32.174  17.696 -23.933  0.00  0.00     0.163 A 
ATOM     11  N   UNL d   1      32.409  17.700 -23.140  0.00  0.00    -0.224 NA
ATOM     12  C   UNL d   1      32.828  18.396 -23.010  0.00  0.00     0.121 A 
ATOM     13  C   UNL d   1      32.859  18.828 -23.711  0.00  0.00     0.121 A 
ATOM     14  N   UNL d   1      32.455  18.399 -24.287  0.00  0.00    -0.224 NA
ENDBRANCH   9  10
ENDBRANCH   1   9
BRANCH   2  15
ATOM     15  C   UNL d   1      28.743  15.813 -23.897  0.00  0.00     0.019 C 
ATOM     16  C   UNL d   1      27.992  15.488 -23.792  0.00  0.00     0.004 C 
ATOM     17  C   UNL d   1      28.690  16.174 -23.157  0.00  0.00     0.004 C 
ATOM     18  C   UNL d   1      28.795  15.453 -24.637  0.00  0.00     0.004 C 
ENDBRANCH   2  15
TORSDOF 3
ENDMDL
MODEL 2
REMARK VINA RESULT:      -3.2      1.388      3.722
REMARK  3 active torsions:
REMARK  status: ('A' for Active; 'I' for Inactive)
REMARK    1  A    between atoms: C_9  and  C_1 
REMARK    2  A    between atoms: C_11  and  C_2 
REMARK    3  A    between atoms: C_3  and  C_9 
ROOT
ATOM      1  C   UNL d   1      30.971  16.630 -24.186  0.00  0.00     0.003 A 
ATOM      2  C   UNL d   1      32.105  17.799 -24.017  0.00  0.00    -0.023 A 
ATOM      3  C   UNL d   1      31.693  16.462 -23.831  0.00  0.00    -0.000 A 
ATOM      4  C   UNL d   1      30.823  17.383 -24.454  0.00  0.00    -0.000 A 
ATOM      5  C   UNL d   1      31.385  17.970 -24.372  0.00  0.00    -0.004 A 
ATOM      6  C   UNL d   1      32.253  17.046 -23.749  0.00  0.00    -0.004 A 
ATOM      7  C   UNL d   1      30.095  17.557 -24.813  0.00  0.00    -0.000 C 
ATOM      8  C   UNL d   1      31.852  15.699 -23.555  0.00  0.00    -0.000 C 
ENDROOT
BRANCH   1   9
ATOM      9  C   UNL d   1      30.403  16.038 -24.269  0.00  0.00     0.039 C 
BRANCH   9  10
ATOM     10  C   UNL d   1      29.733  15.808 -23.840  0.00  0.00     0.163 A 
ATOM     11  N   UNL d   1      29.698  15.675 -23.026  0.00  0.00    -0.224 NA
ATOM     12  C   UNL d   1      28.926  15.458 -22.843  0.00  0.00     0.121 A 
ATOM     13  C   UNL d   1      28.476  15.454 -23.534  0.00  0.00     0.121 A 
ATOM     14  N   UNL d   1      28.972  15.671 -24.156  0.00  0.00    -0.224 NA
ENDBRANCH   9  10
ENDBRANCH   1   9
BRANCH   2  15
ATOM     15  C   UNL d   1      32.673  18.391 -23.934  0.00  0.00     0.019 C 
ATOM     16  C   UNL d   1      33.241  18.984 -23.852  0.00  0.00     0.004 C 
ATOM     17  C   UNL d   1      32.494  18.452 -23.131  0.00  0.00     0.004 C 
ATOM     18  C   UNL d   1      32.853  18.331 -24.737  0.00  0.00     0.004 C 
ENDBRANCH   2  15
TORSDOF 3
ENDMDL
MODEL 3
REMARK VINA RESULT:      -2.8      0.909      1.854
REMARK  3 active torsions:
REMARK  status: ('A' for Active; 'I' for Inactive)
REMARK    1  A    between atoms: C_9  and  C_1 
REMARK    2  A    between atoms: C_11  and  C_2 
REMARK    3  A    between atoms: C_3  and  C_9 
ROOT
ATOM      1  C   UNL d   1      32.021  17.514 -24.129  0.00  0.00     0.003 A 
ATOM      2  C   UNL d   1      30.639  16.718 -24.498  0.00  0.00    -0.023 A 
ATOM      3  C   UNL d   1      31.824  16.817 -23.740  0.00  0.00    -0.000 A 
ATOM      4  C   UNL d   1      31.523  17.807 -24.701  0.00  0.00    -0.000 A 
ATOM      5  C   UNL d   1      30.832  17.414 -24.889  0.00  0.00    -0.004 A 
ATOM      6  C   UNL d   1      31.136  16.426 -23.927  0.00  0.00    -0.004 A 
ATOM      7  C   UNL d   1      31.718  18.510 -25.097  0.00  0.00    -0.000 C 
ATOM      8  C   UNL d   1      32.326  16.513 -23.157  0.00  0.00    -0.000 C 
ENDROOT
BRANCH   1   9
ATOM      9  C   UNL d   1      32.718  17.911 -23.939  0.00  0.00     0.039 C 
BRANCH   9  10
ATOM     10  C   UNL d   1      32.924  18.504 -23.400  0.00  0.00     0.163 A 
ATOM     11  N   UNL d   1      33.045  19.302 -23.576  0.00  0.00    -0.224 NA
ATOM     12  C   UNL d   1      33.238  19.683 -22.873  0.00  0.00     0.121 A 
ATOM     13  C   UNL d   1      33.240  19.134 -22.258  0.00  0.00     0.121 A 
ATOM     14  N   UNL d   1      33.045  18.401 -22.579  0.00  0.00    -0.224 NA
ENDBRANCH   9  10
ENDBRANCH   1   9
BRANCH   2  15
ATOM     15  C   UNL d   1      29.941  16.321 -24.688  0.00  0.00     0.019 C 
ATOM     16  C   UNL d   1      29.243  15.924 -24.878  0.00  0.00     0.004 C 
ATOM     17  C   UNL d   1      29.503  16.909 -24.309  0.00  0.00     0.004 C 
ATOM     18  C   UNL d   1      30.378  15.734 -25.068  0.00  0.00     0.004 C 
ENDBRANCH   2  15
TORSDOF 3
ENDMDL
MODEL 4
REMARK VINA RESULT:      -1.9      1.516      4.006
REMARK  3 active torsions:
REMARK  status: ('A' for Active; 'I' for Inactive)
REMARK    1  A    between atoms: C_9  and  C_1 
REMARK    2  A    between atoms: C_11  and  C_2 
REMARK    3  A    between atoms: C_3  and  C_9 
ROOT
ATOM      1  C   UNL d   1      32.561  17.707 -23.540  0.00  0.00     0.003 A 
ATOM      2  C   UNL d   1      32.885  19.199 -22.950  0.00  0.00    -0.023 A 
ATOM      3  C   UNL d   1      32.306  18.378 -23.941  0.00  0.00    -0.000 A 
ATOM      4  C   UNL d   1      32.976  17.789 -22.847  0.00  0.00    -0.000 A 
ATOM      5  C   UNL d   1      33.141  18.531 -22.548  0.00  0.00    -0.004 A 
ATOM      6  C   UNL d   1      32.469  19.117 -23.643  0.00  0.00    -0.004 A 
ATOM      7  C   UNL d   1      33.236  17.114 -22.439  0.00  0.00    -0.000 C 
ATOM      8  C   UNL d   1      31.882  18.303 -24.647  0.00  0.00    -0.000 C 
ENDROOT
BRANCH   1   9
ATOM      9  C   UNL d   1      32.395  16.957 -23.842  0.00  0.00     0.039 C 
BRANCH   9  10
ATOM     10  C   UNL d   1      31.739  16.453 -23.823  0.00  0.00     0.163 A 
ATOM     11  N   UNL d   1      31.094  16.512 -23.310  0.00  0.00    -0.224 NA
ATOM     12  C   UNL d   1      30.578  15.897 -23.489  0.00  0.00     0.121 A 
ATOM     13  C   UNL d   1      30.891  15.453 -24.109  0.00  0.00     0.121 A 
ATOM     14  N   UNL d   1      31.612  15.793 -24.320  0.00  0.00    -0.224 NA
ENDBRANCH   9  10
ENDBRANCH   1   9
BRANCH   2  15
ATOM     15  C   UNL d   1      33.051  19.949 -22.648  0.00  0.00     0.019 C 
ATOM     16  C   UNL d   1      33.217  20.698 -22.346  0.00  0.00     0.004 C 
ATOM     17  C   UNL d   1      32.889  19.677 -21.886  0.00  0.00     0.004 C 
ATOM     18  C   UNL d   1      33.212  20.220 -23.410  0.00  0.00     0.004 C 
ENDBRANCH   2  15
TORSDOF 3
ENDMDL
MODEL 5
REMARK VINA RESULT:      -1.9      3.847      5.543
REMARK  3 active torsions:
REMARK  status: ('A' for Active; 'I' for Inactive)
REMARK    1  A    between atoms: C_9  and  C_1 
REMARK    2  A    between atoms: C_11  and  C_2 
REMARK    3  A    between atoms: C_3  and  C_9 
ROOT
ATOM      1  C   UNL d   1      33.194  21.224 -22.155  0.00  0.00     0.003 A 
ATOM      2  C   UNL d   1      33.131  19.838 -23.024  0.00  0.00    -0.023 A 
ATOM      3  C   UNL d   1      33.155  20.495 -21.776  0.00  0.00    -0.000 A 
ATOM      4  C   UNL d   1      33.201  21.252 -22.967  0.00  0.00    -0.000 A 
ATOM      5  C   UNL d   1      33.170  20.563 -23.406  0.00  0.00    -0.004 A 
ATOM      6  C   UNL d   1      33.124  19.810 -22.213  0.00  0.00    -0.004 A 
ATOM      7  C   UNL d   1      33.241  21.986 -23.353  0.00  0.00    -0.000 C 
ATOM      8  C   UNL d   1      33.147  20.457 -20.950  0.00  0.00    -0.000 C 
ENDROOT
BRANCH   1   9
ATOM      9  C   UNL d   1      33.226  21.919 -21.712  0.00  0.00     0.039 C 
BRANCH   9  10
ATOM     10  C   UNL d   1      32.677  22.499 -21.497  0.00  0.00     0.163 A 
ATOM     11  N   UNL d   1      32.021  22.391 -21.005  0.00  0.00    -0.224 NA
ATOM     12  C   UNL d   1      31.634  23.114 -20.947  0.00  0.00     0.121 A 
ATOM     13  C   UNL d   1      32.038  23.675 -21.396  0.00  0.00     0.121 A 
ATOM     14  N   UNL d   1      32.686  23.298 -21.740  0.00  0.00    -0.224 NA
ENDBRANCH   9  10
ENDBRANCH   1   9
BRANCH   2  15
ATOM     15  C   UNL d   1      33.099  19.143 -23.468  0.00  0.00     0.019 C 
ATOM     16  C   UNL d   1      33.067  18.448 -23.911  0.00  0.00     0.004 C 
ATOM     17  C   UNL d   1      33.210  19.579 -24.159  0.00  0.00     0.004 C 
ATOM     18  C   UNL d   1      32.988  18.707 -22.776  0.00  0.00     0.004 C 
ENDBRANCH   2  15
TORSDOF 3
ENDMDL
MODEL 6
REMARK VINA RESULT:      -1.7      2.186      4.881
REMARK  3 active torsions:
REMARK  status: ('A' for Active; 'I' for Inactive)
REMARK    1  A    between atoms: C_9  and  C_1 
REMARK    2  A    between atoms: C_11  and  C_2 
REMARK    3  A    between atoms: C_3  and  C_9 
ROOT
ATOM      1  C   UNL d   1      33.205  19.355 -23.110  0.00  0.00     0.003 A 
ATOM      2  C   UNL d   1      33.199  20.508 -21.948  0.00  0.00    -0.023 A 
ATOM      3  C   UNL d   1      33.185  20.152 -23.313  0.00  0.00    -0.000 A 
ATOM      4  C   UNL d   1      33.221  19.143 -22.326  0.00  0.00    -0.000 A 
ATOM      5  C   UNL d   1      33.219  19.714 -21.742  0.00  0.00    -0.004 A 
ATOM      6  C   UNL d   1      33.183  20.720 -22.732  0.00  0.00    -0.004 A 
ATOM      7  C   UNL d   1      33.241  18.340 -22.116  0.00  0.00    -0.000 C 
ATOM      8  C   UNL d   1      33.169  20.376 -24.109  0.00  0.00    -0.000 C 
ENDROOT
BRANCH   1   9
ATOM      9  C   UNL d   1      33.207  18.778 -23.700  0.00  0.00     0.039 C 
BRANCH   9  10
ATOM     10  C   UNL d   1      32.622  18.368 -24.117  0.00  0.00     0.163 A 
ATOM     11  N   UNL d   1      32.634  18.189 -24.924  0.00  0.00    -0.224 NA
ATOM     12  C   UNL d   1      31.943  17.778 -25.096  0.00  0.00     0.121 A 
ATOM     13  C   UNL d   1      31.497  17.698 -24.408  0.00  0.00     0.121 A 
ATOM     14  N   UNL d   1      31.914  18.062 -23.797  0.00  0.00    -0.224 NA
ENDBRANCH   9  10
ENDBRANCH   1   9
BRANCH   2  15
ATOM     15  C   UNL d   1      33.197  21.085 -21.359  0.00  0.00     0.019 C 
ATOM     16  C   UNL d   1      33.194  21.662 -20.769  0.00  0.00     0.004 C 
ATOM     17  C   UNL d   1      33.241  20.497 -20.782  0.00  0.00     0.004 C 
ATOM     18  C   UNL d   1      33.153  21.674 -21.935  0.00  0.00     0.004 C 
ENDBRANCH   2  15
TORSDOF 3
ENDMDL
MODEL 7
REMARK VINA RESULT:      -1.4      3.490      5.952
REMARK  3 active torsions:
REMARK  status: ('A' for Active; 'I' for Inactive)
REMARK    1  A    between atoms: C_9  and  C_1 
REMARK    2  A    between atoms: C_11  and  C_2 
REMARK    3  A    between atoms: C_3  and  C_9 
ROOT
ATOM      1  C   UNL d   1      32.978  20.976 -21.971  0.00  0.00     0.003 A 
ATOM      2  C   UNL d   1      32.459  22.329 -21.210  0.00  0.00    -0.023 A 
ATOM      3  C   UNL d   1      32.905  21.684 -22.383  0.00  0.00    -0.000 A 
ATOM      4  C   UNL d   1      32.791  20.952 -21.181  0.00  0.00    -0.000 A 
ATOM      5  C   UNL d   1      32.531  21.624 -20.796  0.00  0.00    -0.004 A 
ATOM      6  C   UNL d   1      32.646  22.353 -22.000  0.00  0.00    -0.004 A 
ATOM      7  C   UNL d   1      32.864  20.239 -20.762  0.00  0.00    -0.000 C 
ATOM      8  C   UNL d   1      33.093  21.717 -23.188  0.00  0.00    -0.000 C 
ENDROOT
BRANCH   1   9
ATOM      9  C   UNL d   1      33.240  20.297 -22.360  0.00  0.00     0.039 C 
BRANCH   9  10
ATOM     10  C   UNL d   1      32.874  19.697 -22.797  0.00  0.00     0.163 A 
ATOM     11  N   UNL d   1      32.467  19.049 -22.486  0.00  0.00    -0.224 NA
ATOM     12  C   UNL d   1      32.197  18.599 -23.120  0.00  0.00     0.121 A 
ATOM     13  C   UNL d   1      32.430  18.958 -23.825  0.00  0.00     0.121 A 
ATOM     14  N   UNL d   1      32.851  19.640 -23.630  0.00  0.00    -0.224 NA
ENDBRANCH   9  10
ENDBRANCH   1   9
BRANCH   2  15
ATOM     15  C   UNL d   1      32.197  23.008 -20.821  0.00  0.00     0.019 C 
ATOM     16  C   UNL d   1      31.935  23.686 -20.432  0.00  0.00     0.004 C 
ATOM     17  C   UNL d   1      32.654  22.808 -20.164  0.00  0.00     0.004 C 
ATOM     18  C   UNL d   1      31.740  23.208 -21.478  0.00  0.00     0.004 C 
ENDBRANCH   2  15
TORSDOF 3
ENDMDL
