MODEL 1
REMARK VINA RESULT:     111.0      0.000      0.000
REMARK  6 active torsions:
REMARK  status: ('A' for Active; 'I' for Inactive)
REMARK    1  A    between atoms: C_17  and  N_1 
REMARK    2  A    between atoms: N_9  and  C_8 
REMARK    3  A    between atoms: C_11  and  O_21 
REMARK    4  A    between atoms: C_15  and  C_11 
REMARK    5  A    between atoms: C_30  and  C_17 
REMARK    6  A    between atoms: O_21  and  C_30 
ROOT
ATOM      1  N   UNL d   1     -54.788-101.599 -40.708  0.00  0.00    -0.238 N 
ATOM      2  C   UNL d   1     -54.807-102.031 -41.409  0.00  0.00     0.267 A 
ATOM      3  C   UNL d   1     -54.835-100.777 -40.712  0.00  0.00     0.267 A 
ATOM      4  C   UNL d   1     -54.875-101.623 -42.144  0.00  0.00     0.057 A 
ATOM      5  C   UNL d   1     -54.922-100.799 -42.153  0.00  0.00     0.011 A 
ATOM      6  C   UNL d   1     -54.902-100.380 -41.430  0.00  0.00     0.057 A 
ATOM      7  C   UNL d   1     -54.988-100.407 -42.861  0.00  0.00     0.016 A 
ATOM      8  C   UNL d   1     -55.006-100.834 -43.570  0.00  0.00     0.064 A 
ATOM      9  C   UNL d   1     -54.893-102.043 -42.844  0.00  0.00     0.006 A 
ATOM     10  C   UNL d   1     -54.959-101.651 -43.552  0.00  0.00     0.018 A 
ATOM     11  O   UNL d   1     -54.818-100.305 -39.989  0.00  0.00    -0.267 OA
ATOM     12  O   UNL d   1     -54.758-102.855 -41.376  0.00  0.00    -0.267 OA
ATOM     13  C   UNL d   1     -54.949 -99.546 -41.425  0.00  0.00     0.005 A 
ATOM     14  C   UNL d   1     -55.035 -99.581 -42.874  0.00  0.00     0.002 A 
ATOM     15  C   UNL d   1     -55.017 -99.141 -42.157  0.00  0.00     0.000 A 
ENDROOT
BRANCH   1  16
ATOM     16  C   UNL d   1     -54.720-102.007 -39.972  0.00  0.00     0.113 C 
BRANCH  16  17
ATOM     17  C   UNL d   1     -55.394-102.325 -39.617  0.00  0.00     0.145 C 
BRANCH  17  18
ATOM     18  O   UNL d   1     -55.858-101.857 -39.142  0.00  0.00    -0.269 OA
BRANCH  18  19
ATOM     19  C   UNL d   1     -55.854-101.970 -38.337  0.00  0.00     0.300 C 
ATOM     20  O   UNL d   1     -56.054-102.698 -38.013  0.00  0.00    -0.259 OA
BRANCH  19  21
ATOM     21  C   UNL d   1     -55.647-101.349 -37.838  0.00  0.00     0.064 A 
ATOM     22  C   UNL d   1     -55.482-100.612 -38.160  0.00  0.00     0.006 A 
ATOM     23  C   UNL d   1     -55.269 -99.974 -37.648  0.00  0.00     0.012 A 
ATOM     24  C   UNL d   1     -55.231-100.100 -36.835  0.00  0.00     0.058 A 
ATOM     25  C   UNL d   1     -55.396-100.835 -36.524  0.00  0.00     0.012 A 
ATOM     26 CL   UNL d   1     -55.027 -99.487 -36.343  0.00  0.00    -0.082 Cl
ATOM     27  C   UNL d   1     -55.602-101.452 -37.019  0.00  0.00     0.006 A 
ENDBRANCH  19  21
ENDBRANCH  18  19
ENDBRANCH  17  18
ENDBRANCH  16  17
ENDBRANCH   1  16
BRANCH   8  28
ATOM     28  N   UNL d   1     -55.074-100.432 -44.297  0.00  0.00    -0.300 N 
ATOM     29  C   UNL d   1     -55.397-100.808 -44.944  0.00  0.00     0.107 A 
ATOM     30  C   UNL d   1     -55.463-100.414 -45.657  0.00  0.00     0.142 A 
ATOM     31  O   UNL d   1     -55.206 -99.642 -45.722  0.00  0.00    -0.300 OA
ATOM     32  C   UNL d   1     -54.878 -99.257 -45.070  0.00  0.00     0.142 A 
ATOM     33  C   UNL d   1     -54.812 -99.651 -44.358  0.00  0.00     0.107 A 
ENDBRANCH   8  28
TORSDOF 6
ENDMDL
