MODEL 1
REMARK VINA RESULT:      -4.9      0.000      0.000
REMARK  4 active torsions:
REMARK  status: ('A' for Active; 'I' for Inactive)
REMARK    1  A    between atoms: C_9  and  C_4 
REMARK    2  A    between atoms: C_7  and  C_11 
REMARK    3  A    between atoms: O_12  and  C_7 
REMARK    4  A    between atoms: C_11  and  C_9 
ROOT
ATOM      1  N   UNL d   1     -41.443-123.207 -52.311  0.00  0.00    -0.239 NA
ATOM      2  N   UNL d   1     -41.202-121.734 -53.025  0.00  0.00    -0.205 NA
ATOM      3  C   UNL d   1     -41.222-121.799 -52.203  0.00  0.00     0.297 A 
ATOM      4  C   UNL d   1     -41.344-122.539 -51.841  0.00  0.00     0.139 A 
ATOM      5  C   UNL d   1     -41.422-123.141 -53.131  0.00  0.00     0.099 A 
ATOM      6  C   UNL d   1     -41.302-122.407 -53.489  0.00  0.00     0.102 A 
ATOM      7  O   UNL d   1     -41.123-121.128 -51.729  0.00  0.00    -0.264 OA
ATOM      8  C   UNL d   1     -41.523-123.817 -53.598  0.00  0.00     0.021 A 
ATOM      9  C   UNL d   1     -41.282-122.350 -54.313  0.00  0.00     0.021 A 
ATOM     10  C   UNL d   1     -41.382-123.022 -54.776  0.00  0.00     0.002 A 
ATOM     11  C   UNL d   1     -41.503-123.756 -54.418  0.00  0.00     0.002 A 
ENDROOT
BRANCH   4  12
ATOM     12  C   UNL d   1     -41.364-122.599 -51.020  0.00  0.00     0.029 C 
BRANCH  12  13
ATOM     13  C   UNL d   1     -41.926-123.071 -50.655  0.00  0.00     0.070 C 
BRANCH  13  14
ATOM     14  C   UNL d   1     -41.983-123.075 -49.829  0.00  0.00     0.296 C 
ATOM     15  O   UNL d   1     -41.314-123.199 -49.363  0.00  0.00    -0.259 OA
BRANCH  14  16
ATOM     16  O   UNL d   1     -42.721-122.953 -49.467  0.00  0.00    -0.296 OA
ATOM     17  C   UNL d   1     -42.863-123.244 -48.708  0.00  0.00     0.185 C 
ENDBRANCH  14  16
ENDBRANCH  13  14
ENDBRANCH  12  13
ENDBRANCH   4  12
TORSDOF 4
ENDMDL
MODEL 2
REMARK VINA RESULT:      -4.6      1.552      3.741
REMARK  4 active torsions:
REMARK  status: ('A' for Active; 'I' for Inactive)
REMARK    1  A    between atoms: C_9  and  C_4 
REMARK    2  A    between atoms: C_7  and  C_11 
REMARK    3  A    between atoms: O_12  and  C_7 
REMARK    4  A    between atoms: C_11  and  C_9 
ROOT
ATOM      1  N   UNL d   1     -41.436-122.996 -51.982  0.00  0.00    -0.239 NA
ATOM      2  N   UNL d   1     -41.304-121.623 -51.070  0.00  0.00    -0.205 NA
ATOM      3  C   UNL d   1     -41.247-121.582 -51.892  0.00  0.00     0.297 A 
ATOM      4  C   UNL d   1     -41.313-122.272 -52.353  0.00  0.00     0.139 A 
ATOM      5  C   UNL d   1     -41.493-123.035 -51.163  0.00  0.00     0.099 A 
ATOM      6  C   UNL d   1     -41.428-122.351 -50.706  0.00  0.00     0.102 A 
ATOM      7  O   UNL d   1     -41.123-120.855 -52.266  0.00  0.00    -0.264 OA
ATOM      8  C   UNL d   1     -41.617-123.766 -50.796  0.00  0.00     0.021 A 
ATOM      9  C   UNL d   1     -41.486-122.398 -49.882  0.00  0.00     0.021 A 
ATOM     10  C   UNL d   1     -41.609-123.126 -49.519  0.00  0.00     0.002 A 
ATOM     11  C   UNL d   1     -41.675-123.810 -49.976  0.00  0.00     0.002 A 
ENDROOT
BRANCH   4  12
ATOM     12  C   UNL d   1     -41.255-122.227 -53.173  0.00  0.00     0.029 C 
BRANCH  12  13
ATOM     13  C   UNL d   1     -41.830-122.571 -53.647  0.00  0.00     0.070 C 
BRANCH  13  14
ATOM     14  C   UNL d   1     -41.825-122.432 -54.463  0.00  0.00     0.296 C 
ATOM     15  O   UNL d   1     -41.138-122.549 -54.904  0.00  0.00    -0.259 OA
BRANCH  14  16
ATOM     16  O   UNL d   1     -42.519-122.173 -54.840  0.00  0.00    -0.296 OA
ATOM     17  C   UNL d   1     -42.501-121.956 -55.636  0.00  0.00     0.185 C 
ENDBRANCH  14  16
ENDBRANCH  13  14
ENDBRANCH  12  13
ENDBRANCH   4  12
TORSDOF 4
ENDMDL
MODEL 3
REMARK VINA RESULT:      -3.0      1.698      3.961
REMARK  4 active torsions:
REMARK  status: ('A' for Active; 'I' for Inactive)
REMARK    1  A    between atoms: C_9  and  C_4 
REMARK    2  A    between atoms: C_7  and  C_11 
REMARK    3  A    between atoms: O_12  and  C_7 
REMARK    4  A    between atoms: C_11  and  C_9 
ROOT
ATOM      1  N   UNL d   1     -42.236-122.257 -51.315  0.00  0.00    -0.239 NA
ATOM      2  N   UNL d   1     -41.701-123.799 -51.047  0.00  0.00    -0.205 NA
ATOM      3  C   UNL d   1     -41.547-123.425 -51.766  0.00  0.00     0.297 A 
ATOM      4  C   UNL d   1     -41.815-122.649 -51.902  0.00  0.00     0.139 A 
ATOM      5  C   UNL d   1     -42.389-122.631 -50.598  0.00  0.00     0.099 A 
ATOM      6  C   UNL d   1     -42.123-123.400 -50.463  0.00  0.00     0.102 A 
ATOM      7  O   UNL d   1     -41.123-123.817 -52.358  0.00  0.00    -0.264 OA
ATOM      8  C   UNL d   1     -42.814-122.232 -50.011  0.00  0.00     0.021 A 
ATOM      9  C   UNL d   1     -42.282-123.770 -49.740  0.00  0.00     0.021 A 
ATOM     10  C   UNL d   1     -42.704-123.371 -49.157  0.00  0.00     0.002 A 
ATOM     11  C   UNL d   1     -42.970-122.602 -49.293  0.00  0.00     0.002 A 
ENDROOT
BRANCH   4  12
ATOM     12  C   UNL d   1     -41.659-122.279 -52.622  0.00  0.00     0.029 C 
BRANCH  12  13
ATOM     13  C   UNL d   1     -42.268-122.135 -53.152  0.00  0.00     0.070 C 
BRANCH  13  14
ATOM     14  C   UNL d   1     -42.138-121.634 -53.798  0.00  0.00     0.296 C 
ATOM     15  O   UNL d   1     -41.462-121.161 -53.833  0.00  0.00    -0.259 OA
BRANCH  14  16
ATOM     16  O   UNL d   1     -42.692-121.607 -54.416  0.00  0.00    -0.296 OA
ATOM     17  C   UNL d   1     -42.474-121.835 -55.178  0.00  0.00     0.185 C 
ENDBRANCH  14  16
ENDBRANCH  13  14
ENDBRANCH  12  13
ENDBRANCH   4  12
TORSDOF 4
ENDMDL
