MODEL 1
REMARK VINA RESULT:      -0.8      0.000      0.000
REMARK  3 active torsions:
REMARK  status: ('A' for Active; 'I' for Inactive)
REMARK    1  A    between atoms: C_3  and  C_1 
REMARK    2  A    between atoms: N_4  and  C_3 
REMARK    3  A    between atoms: C_8  and  C_3 
ROOT
ATOM      1  C   UNL d   1      31.744  17.498 -24.383  0.00  0.00     0.069 C 
ENDROOT
BRANCH   1   2
ATOM      2  C   UNL d   1      32.094  18.248 -24.343  0.00  0.00     0.057 A 
ATOM      3  C   UNL d   1      32.200  18.615 -23.611  0.00  0.00     0.214 A 
ATOM      4  C   UNL d   1      32.547  19.356 -23.584  0.00  0.00     0.120 A 
ATOM      5  O   UNL d   1      31.960  18.244 -22.908  0.00  0.00    -0.285 OA
ATOM      6  N   UNL d   1      32.659  19.736 -22.861  0.00  0.00    -0.241 NA
ATOM      7  C   UNL d   1      32.787  19.728 -24.288  0.00  0.00     0.021 A 
ATOM      8  C   UNL d   1      33.011  20.484 -22.847  0.00  0.00     0.099 A 
ATOM      9  C   UNL d   1      33.241  20.841 -23.522  0.00  0.00     0.021 A 
ATOM     10  C   UNL d   1      33.136  20.475 -24.257  0.00  0.00     0.003 A 
ATOM     11  C   UNL d   1      32.676  19.354 -25.007  0.00  0.00     0.002 A 
ATOM     12  C   UNL d   1      32.324  18.605 -25.017  0.00  0.00     0.005 A 
ENDBRANCH   1   2
BRANCH   1  13
ATOM     13  N   UNL d   1      30.929  17.422 -24.390  0.00  0.00    -0.301 N 
ATOM     14  C   UNL d   1      30.516  17.575 -25.083  0.00  0.00     0.100 A 
ATOM     15  C   UNL d   1      29.688  17.498 -25.094  0.00  0.00     0.100 A 
ATOM     16  N   UNL d   1      29.289  17.273 -24.424  0.00  0.00    -0.299 N 
ATOM     17  C   UNL d   1      29.701  17.119 -23.727  0.00  0.00     0.100 A 
ATOM     18  C   UNL d   1      28.480  17.196 -24.428  0.00  0.00     0.100 C 
ATOM     19  C   UNL d   1      30.514  17.194 -23.716  0.00  0.00     0.100 A 
ENDBRANCH   1  13
BRANCH   1  20
ATOM     20  C   UNL d   1      32.197  16.821 -24.416  0.00  0.00     0.035 A 
ATOM     21  C   UNL d   1      32.155  16.323 -25.059  0.00  0.00     0.100 A 
ATOM     22  N   UNL d   1      32.611  15.636 -25.097  0.00  0.00    -0.242 NA
ATOM     23  C   UNL d   1      33.119  15.453 -24.470  0.00  0.00     0.099 A 
ATOM     24  C   UNL d   1      33.164  15.951 -23.822  0.00  0.00     0.021 A 
ATOM     25  C   UNL d   1      32.704  16.638 -23.789  0.00  0.00     0.005 A 
ENDBRANCH   1  20
TORSDOF 3
ENDMDL
