MODEL 1
REMARK VINA RESULT:      46.6      0.000      0.000
REMARK  7 active torsions:
REMARK  status: ('A' for Active; 'I' for Inactive)
REMARK    1  A    between atoms: C_3  and  N_1 
REMARK       I    between atoms: C_2  and  N_8 
REMARK    2  A    between atoms: O_16  and  C_2 
REMARK    3  A    between atoms: C_7  and  C_5 
REMARK    4  A    between atoms: C_12  and  C_7 
REMARK    5  A    between atoms: N_8  and  C_14 
REMARK    6  A    between atoms: S_11  and  C_12 
REMARK    7  A    between atoms: C_15  and  S_11 
ROOT
ATOM      1  S   UNL d   1     -55.148 -98.814 -43.712  0.00  0.00    -0.083 SA
ENDROOT
BRANCH   1   2
ATOM      2  C   UNL d   1     -54.712 -99.509 -43.729  0.00  0.00     0.077 C 
BRANCH   2   3
ATOM      3  C   UNL d   1     -54.870-100.110 -43.186  0.00  0.00     0.202 C 
ATOM      4  O   UNL d   1     -55.061 -99.921 -42.409  0.00  0.00    -0.286 OA
BRANCH   3   5
ATOM      5  C   UNL d   1     -54.837-100.899 -43.424  0.00  0.00     0.041 A 
ATOM      6  C   UNL d   1     -54.889-101.090 -44.219  0.00  0.00     0.027 A 
ATOM      7  C   UNL d   1     -54.856-101.879 -44.456  0.00  0.00     0.127 A 
ATOM      8  C   UNL d   1     -54.769-102.477 -43.890  0.00  0.00     0.024 A 
ATOM      9  C   UNL d   1     -54.717-102.282 -43.091  0.00  0.00     0.002 A 
ATOM     10  C   UNL d   1     -54.751-101.498 -42.857  0.00  0.00     0.003 A 
BRANCH   7  11
ATOM     11  N   UNL d   1     -54.908-102.074 -45.257  0.00  0.00    -0.114 N 
ATOM     12  O   UNL d   1     -54.922-102.844 -45.560  0.00  0.00    -0.532 OA
ATOM     13  O   UNL d   1     -54.952-101.523 -45.854  0.00  0.00    -0.532 OA
ENDBRANCH   7  11
ENDBRANCH   3   5
ENDBRANCH   2   3
ENDBRANCH   1   2
BRANCH   1  14
ATOM     14  C   UNL d   1     -55.920 -98.801 -44.010  0.00  0.00     0.030 A 
ATOM     15  C   UNL d   1     -56.583 -98.774 -43.499  0.00  0.00     0.008 A 
ATOM     16  C   UNL d   1     -57.353 -98.761 -43.796  0.00  0.00     0.020 A 
ATOM     17  C   UNL d   1     -57.478 -98.776 -44.612  0.00  0.00     0.087 A 
ATOM     18  C   UNL d   1     -56.840 -98.803 -45.127  0.00  0.00     0.020 A 
ATOM     19  C   UNL d   1     -56.070 -98.816 -44.830  0.00  0.00     0.008 A 
BRANCH  17  20
ATOM     20  N   UNL d   1     -58.251 -98.764 -44.910  0.00  0.00    -0.186 NA
ATOM     21  C   UNL d   1     -58.866 -99.086 -44.472  0.00  0.00     0.388 C 
ATOM     22  O   UNL d   1     -58.716 -99.424 -43.734  0.00  0.00    -0.236 OA
BRANCH  21  23
ATOM     23  O   UNL d   1     -59.636 -99.074 -44.769  0.00  0.00    -0.281 OA
ATOM     24  C   UNL d   1     -59.772 -98.828 -45.545  0.00  0.00     0.186 C 
ENDBRANCH  21  23
ENDBRANCH  17  20
ENDBRANCH   1  14
TORSDOF 7
ENDMDL
