MODEL 1
REMARK VINA RESULT:      -5.5      0.000      0.000
REMARK  5 active torsions:
REMARK  status: ('A' for Active; 'I' for Inactive)
REMARK    1  A    between atoms: C_7  and  N_2 
REMARK    2  A    between atoms: C_6  and  C_8 
REMARK       I    between atoms: N_9  and  C_6 
REMARK    3  A    between atoms: C_8  and  C_7 
REMARK    4  A    between atoms: C_11  and  N_9 
REMARK    5  A    between atoms: C_13  and  C_11 
ROOT
ATOM      1  C   UNL d   1     -41.936-122.676 -50.915  0.00  0.00     0.080 C 
ENDROOT
BRANCH   1   2
ATOM      2  C   UNL d   1     -41.687-122.206 -51.545  0.00  0.00     0.266 C 
ATOM      3  N   UNL d   1     -41.459-122.548 -52.257  0.00  0.00    -0.270 N 
ATOM      4  C   UNL d   1     -41.480-123.374 -52.343  0.00  0.00     0.102 C 
ATOM      5  O   UNL d   1     -41.666-121.384 -51.462  0.00  0.00    -0.267 OA
BRANCH   3   6
ATOM      6  C   UNL d   1     -41.212-122.079 -52.882  0.00  0.00     0.083 C 
BRANCH   6   7
ATOM      7  C   UNL d   1     -41.491-122.219 -53.642  0.00  0.00     0.018 A 
ATOM      8  C   UNL d   1     -41.131-122.786 -54.128  0.00  0.00     0.002 A 
ATOM      9  C   UNL d   1     -41.409-122.926 -54.888  0.00  0.00     0.000 A 
ATOM     10  C   UNL d   1     -42.050-122.505 -55.175  0.00  0.00     0.000 A 
ATOM     11  C   UNL d   1     -42.415-121.938 -54.697  0.00  0.00     0.000 A 
ATOM     12  C   UNL d   1     -42.131-121.797 -53.926  0.00  0.00     0.002 A 
ENDBRANCH   6   7
ENDBRANCH   3   6
ENDBRANCH   1   2
BRANCH   1  13
ATOM     13  C   UNL d   1     -41.993-122.362 -50.158  0.00  0.00     0.090 C 
BRANCH  13  14
ATOM     14  N   UNL d   1     -42.401-122.768 -49.570  0.00  0.00    -0.251 N 
ATOM     15  C   UNL d   1     -43.207-122.935 -49.564  0.00  0.00     0.378 A 
ATOM     16  O   UNL d   1     -43.308-123.344 -48.858  0.00  0.00    -0.258 OA
ATOM     17  O   UNL d   1     -43.748-122.722 -50.150  0.00  0.00    -0.237 OA
ATOM     18  C   UNL d   1     -42.675-123.439 -48.450  0.00  0.00     0.121 A 
ATOM     19  C   UNL d   1     -42.507-123.804 -47.725  0.00  0.00     0.026 A 
ATOM     20  C   UNL d   1     -42.069-123.080 -48.881  0.00  0.00     0.092 A 
ATOM     21  C   UNL d   1     -41.731-123.809 -47.431  0.00  0.00     0.002 A 
ATOM     22  C   UNL d   1     -41.133-123.446 -47.870  0.00  0.00     0.002 A 
ATOM     23  C   UNL d   1     -41.304-123.083 -48.593  0.00  0.00     0.020 A 
ENDBRANCH  13  14
ENDBRANCH   1  13
TORSDOF 5
ENDMDL
MODEL 2
REMARK VINA RESULT:      -4.3      1.166      5.195
REMARK  5 active torsions:
REMARK  status: ('A' for Active; 'I' for Inactive)
REMARK    1  A    between atoms: C_7  and  N_2 
REMARK    2  A    between atoms: C_6  and  C_8 
REMARK       I    between atoms: N_9  and  C_6 
REMARK    3  A    between atoms: C_8  and  C_7 
REMARK    4  A    between atoms: C_11  and  N_9 
REMARK    5  A    between atoms: C_13  and  C_11 
ROOT
ATOM      1  C   UNL d   1     -41.649-122.540 -51.738  0.00  0.00     0.080 C 
ENDROOT
BRANCH   1   2
ATOM      2  C   UNL d   1     -41.542-123.135 -51.177  0.00  0.00     0.266 C 
ATOM      3  N   UNL d   1     -41.848-123.054 -50.419  0.00  0.00    -0.270 N 
ATOM      4  C   UNL d   1     -42.270-122.368 -50.215  0.00  0.00     0.102 C 
ATOM      5  O   UNL d   1     -41.123-123.817 -51.379  0.00  0.00    -0.267 OA
BRANCH   3   6
ATOM      6  C   UNL d   1     -41.740-123.647 -49.863  0.00  0.00     0.083 C 
BRANCH   6   7
ATOM      7  C   UNL d   1     -42.010-123.549 -49.093  0.00  0.00     0.018 A 
ATOM      8  C   UNL d   1     -41.525-123.205 -48.516  0.00  0.00     0.002 A 
ATOM      9  C   UNL d   1     -41.794-123.107 -47.746  0.00  0.00     0.000 A 
ATOM     10  C   UNL d   1     -42.549-123.349 -47.540  0.00  0.00     0.000 A 
ATOM     11  C   UNL d   1     -43.038-123.692 -48.110  0.00  0.00     0.000 A 
ATOM     12  C   UNL d   1     -42.764-123.791 -48.892  0.00  0.00     0.002 A 
ENDBRANCH   6   7
ENDBRANCH   3   6
ENDBRANCH   1   2
BRANCH   1  13
ATOM     13  C   UNL d   1     -41.204-122.531 -52.428  0.00  0.00     0.090 C 
BRANCH  13  14
ATOM     14  N   UNL d   1     -41.469-122.118 -53.089  0.00  0.00    -0.251 N 
ATOM     15  C   UNL d   1     -41.607-121.308 -53.132  0.00  0.00     0.378 A 
ATOM     16  O   UNL d   1     -41.860-121.202 -53.907  0.00  0.00    -0.258 OA
ATOM     17  O   UNL d   1     -41.503-120.767 -52.517  0.00  0.00    -0.237 OA
ATOM     18  C   UNL d   1     -41.889-121.837 -54.323  0.00  0.00     0.121 A 
ATOM     19  C   UNL d   1     -42.103-122.002 -55.107  0.00  0.00     0.026 A 
ATOM     20  C   UNL d   1     -41.643-122.448 -53.826  0.00  0.00     0.092 A 
ATOM     21  C   UNL d   1     -42.070-122.781 -55.392  0.00  0.00     0.002 A 
ATOM     22  C   UNL d   1     -41.822-123.384 -54.885  0.00  0.00     0.002 A 
ATOM     23  C   UNL d   1     -41.610-123.216 -54.104  0.00  0.00     0.020 A 
ENDBRANCH  13  14
ENDBRANCH   1  13
TORSDOF 5
ENDMDL
