MODEL 1
REMARK VINA RESULT:      -4.3      0.000      0.000
REMARK  5 active torsions:
REMARK  status: ('A' for Active; 'I' for Inactive)
REMARK    1  A    between atoms: N_4  and  C_1 
REMARK    2  A    between atoms: S_3  and  C_9 
REMARK       I    between atoms: C_6  and  N_4 
REMARK    3  A    between atoms: C_11  and  C_5 
REMARK    4  A    between atoms: C_10  and  C_6 
REMARK    5  A    between atoms: O_25  and  C_22 
ROOT
ATOM      1  C   UNL d   1     -41.725-123.368 -52.055  0.00  0.00     0.197 A 
ATOM      2  N   UNL d   1     -42.053-122.874 -52.631  0.00  0.00    -0.221 NA
ATOM      3  C   UNL d   1     -41.678-123.022 -53.343  0.00  0.00     0.090 A 
ATOM      4  S   UNL d   1     -41.150-123.817 -52.422  0.00  0.00    -0.046 SA
ATOM      5  C   UNL d   1     -41.125-123.596 -53.222  0.00  0.00     0.058 A 
ENDROOT
BRANCH   1   6
ATOM      6  N   UNL d   1     -41.878-123.465 -51.251  0.00  0.00    -0.183 NA
ATOM      7  C   UNL d   1     -41.582-122.921 -50.706  0.00  0.00     0.281 C 
ATOM      8  O   UNL d   1     -41.137-122.288 -50.969  0.00  0.00    -0.265 OA
BRANCH   7   9
ATOM      9  C   UNL d   1     -41.735-123.017 -49.902  0.00  0.00     0.058 A 
ATOM     10  C   UNL d   1     -42.440-122.747 -49.581  0.00  0.00     0.005 A 
ATOM     11  C   UNL d   1     -42.593-122.843 -48.777  0.00  0.00     0.011 A 
ATOM     12  C   UNL d   1     -42.041-123.211 -48.293  0.00  0.00     0.084 A 
ATOM     13  C   UNL d   1     -41.332-123.483 -48.614  0.00  0.00     0.011 A 
ATOM     14  C   UNL d   1     -41.179-123.387 -49.417  0.00  0.00     0.005 A 
BRANCH  12  15
ATOM     15  S   UNL d   1     -42.194-123.307 -47.488  0.00  0.00     0.191 S 
ATOM     16  O   UNL d   1     -41.413-123.108 -47.316  0.00  0.00    -0.222 OA
ATOM     17  O   UNL d   1     -42.976-123.507 -47.661  0.00  0.00    -0.222 OA
ATOM     18  C   UNL d   1     -42.347-123.404 -46.685  0.00  0.00     0.145 C 
ENDBRANCH  12  15
ENDBRANCH   7   9
ENDBRANCH   1   6
BRANCH   3  19
ATOM     19  C   UNL d   1     -41.863-122.627 -54.044  0.00  0.00     0.018 A 
ATOM     20  C   UNL d   1     -42.611-122.263 -54.119  0.00  0.00     0.004 A 
ATOM     21  C   UNL d   1     -42.796-121.868 -54.821  0.00  0.00     0.024 A 
ATOM     22  C   UNL d   1     -42.250-121.830 -55.449  0.00  0.00     0.094 A 
ATOM     23  C   UNL d   1     -41.513-122.192 -55.368  0.00  0.00     0.024 A 
ATOM     24  C   UNL d   1     -41.325-122.590 -54.661  0.00  0.00     0.004 A 
BRANCH  22  25
ATOM     25  O   UNL d   1     -42.442-121.429 -56.157  0.00  0.00    -0.328 OA
ATOM     26  C   UNL d   1     -41.841-121.190 -56.679  0.00  0.00     0.181 C 
ENDBRANCH  22  25
ENDBRANCH   3  19
TORSDOF 5
ENDMDL
MODEL 2
REMARK VINA RESULT:      -4.1      1.095      6.090
REMARK  5 active torsions:
REMARK  status: ('A' for Active; 'I' for Inactive)
REMARK    1  A    between atoms: N_4  and  C_1 
REMARK    2  A    between atoms: S_3  and  C_9 
REMARK       I    between atoms: C_6  and  N_4 
REMARK    3  A    between atoms: C_11  and  C_5 
REMARK    4  A    between atoms: C_10  and  C_6 
REMARK    5  A    between atoms: O_25  and  C_22 
ROOT
ATOM      1  C   UNL d   1     -41.752-123.285 -51.522  0.00  0.00     0.197 A 
ATOM      2  N   UNL d   1     -42.140-123.053 -50.830  0.00  0.00    -0.221 NA
ATOM      3  C   UNL d   1     -41.749-123.381 -50.191  0.00  0.00     0.090 A 
ATOM      4  S   UNL d   1     -41.123-123.756 -51.298  0.00  0.00    -0.046 SA
ATOM      5  C   UNL d   1     -41.127-123.811 -50.470  0.00  0.00     0.058 A 
ENDROOT
BRANCH   1   6
ATOM      6  N   UNL d   1     -41.891-123.129 -52.319  0.00  0.00    -0.183 NA
ATOM      7  C   UNL d   1     -41.605-122.433 -52.659  0.00  0.00     0.281 C 
ATOM      8  O   UNL d   1     -41.184-121.903 -52.201  0.00  0.00    -0.265 OA
BRANCH   7   9
ATOM      9  C   UNL d   1     -41.745-122.276 -53.456  0.00  0.00     0.058 A 
ATOM     10  C   UNL d   1     -41.436-122.771 -54.034  0.00  0.00     0.005 A 
ATOM     11  C   UNL d   1     -41.576-122.614 -54.831  0.00  0.00     0.011 A 
ATOM     12  C   UNL d   1     -42.023-121.962 -55.051  0.00  0.00     0.084 A 
ATOM     13  C   UNL d   1     -42.334-121.464 -54.472  0.00  0.00     0.011 A 
ATOM     14  C   UNL d   1     -42.195-121.621 -53.675  0.00  0.00     0.005 A 
BRANCH  12  15
ATOM     15  S   UNL d   1     -42.163-121.805 -55.848  0.00  0.00     0.191 S 
ATOM     16  O   UNL d   1     -42.947-121.621 -55.675  0.00  0.00    -0.222 OA
ATOM     17  O   UNL d   1     -41.378-121.990 -56.022  0.00  0.00    -0.222 OA
ATOM     18  C   UNL d   1     -42.302-121.649 -56.645  0.00  0.00     0.145 C 
ENDBRANCH  12  15
ENDBRANCH   7   9
ENDBRANCH   1   6
BRANCH   3  19
ATOM     19  C   UNL d   1     -41.983-123.266 -49.408  0.00  0.00     0.018 A 
ATOM     20  C   UNL d   1     -42.793-123.335 -49.212  0.00  0.00     0.004 A 
ATOM     21  C   UNL d   1     -43.027-123.220 -48.428  0.00  0.00     0.024 A 
ATOM     22  C   UNL d   1     -42.470-123.038 -47.836  0.00  0.00     0.094 A 
ATOM     23  C   UNL d   1     -41.673-122.972 -48.036  0.00  0.00     0.024 A 
ATOM     24  C   UNL d   1     -41.435-123.087 -48.826  0.00  0.00     0.004 A 
BRANCH  22  25
ATOM     25  O   UNL d   1     -42.713-122.923 -47.045  0.00  0.00    -0.328 OA
ATOM     26  C   UNL d   1     -43.218-123.473 -46.678  0.00  0.00     0.181 C 
ENDBRANCH  22  25
ENDBRANCH   3  19
TORSDOF 5
ENDMDL
