MODEL 1
REMARK VINA RESULT:     143.7      0.000      0.000
REMARK  5 active torsions:
REMARK  status: ('A' for Active; 'I' for Inactive)
REMARK    1  A    between atoms: C_3  and  C_1 
REMARK    2  A    between atoms: C_7  and  C_2 
REMARK       I    between atoms: N_5  and  C_3 
REMARK    3  A    between atoms: C_6  and  N_5 
REMARK    4  A    between atoms: N_10  and  C_6 
REMARK    5  A    between atoms: C_11  and  N_10 
ROOT
ATOM      1  C   UNL d   1     -52.440  24.327  34.299  0.00  0.00     0.103 A 
ATOM      2  C   UNL d   1     -51.865  24.456  33.719  0.00  0.00     0.116 A 
ATOM      3  N   UNL d   1     -51.768  23.752  33.305  0.00  0.00    -0.126 NA
ATOM      4  O   UNL d   1     -52.279  23.189  33.626  0.00  0.00    -0.211 OA
ATOM      5  C   UNL d   1     -52.684  23.549  34.231  0.00  0.00     0.131 A 
ATOM      6  C   UNL d   1     -53.250  23.189  34.701  0.00  0.00     0.029 C 
ENDROOT
BRANCH   1   7
ATOM      7  C   UNL d   1     -52.700  24.888  34.832  0.00  0.00     0.285 C 
ATOM      8  N   UNL d   1     -52.594  24.800  35.637  0.00  0.00    -0.179 NA
ATOM      9  O   UNL d   1     -53.083  25.564  34.549  0.00  0.00    -0.265 OA
BRANCH   8  10
ATOM     10  C   UNL d   1     -52.855  25.362  36.170  0.00  0.00     0.224 C 
ATOM     11  S   UNL d   1     -53.664  25.420  36.329  0.00  0.00    -0.037 SA
BRANCH  10  12
ATOM     12  N   UNL d   1     -52.330  25.867  36.550  0.00  0.00    -0.215 NA
BRANCH  12  13
ATOM     13  C   UNL d   1     -52.225  25.805  37.347  0.00  0.00     0.111 A 
ATOM     14  C   UNL d   1     -51.608  26.210  37.714  0.00  0.00     0.158 A 
ATOM     15  F   UNL d   1     -51.097  26.677  37.265  0.00  0.00    -0.203 F 
ATOM     16  C   UNL d   1     -51.500  26.147  38.532  0.00  0.00     0.031 A 
ATOM     17  C   UNL d   1     -52.007  25.682  38.980  0.00  0.00     0.002 A 
ATOM     18  C   UNL d   1     -52.628  25.275  38.613  0.00  0.00     0.002 A 
ATOM     19  C   UNL d   1     -52.735  25.338  37.796  0.00  0.00     0.021 A 
ENDBRANCH  12  13
ENDBRANCH  10  12
ENDBRANCH   8  10
ENDBRANCH   1   7
BRANCH   2  20
ATOM     20  C   UNL d   1     -51.463  25.159  33.581  0.00  0.00     0.031 A 
ATOM     21  C   UNL d   1     -50.652  25.153  33.461  0.00  0.00     0.059 A 
ATOM     22 CL   UNL d   1     -50.243  24.442  33.479  0.00  0.00    -0.082 Cl
ATOM     23  C   UNL d   1     -50.258  25.854  33.325  0.00  0.00     0.011 A 
ATOM     24  C   UNL d   1     -50.669  26.572  33.306  0.00  0.00     0.001 A 
ATOM     25  C   UNL d   1     -51.483  26.570  33.427  0.00  0.00     0.000 A 
ATOM     26  C   UNL d   1     -51.892  25.866  33.566  0.00  0.00     0.002 A 
ENDBRANCH   2  20
TORSDOF 5
ENDMDL
