MODEL 1
REMARK VINA RESULT:      -7.9      0.000      0.000
REMARK  3 active torsions:
REMARK  status: ('A' for Active; 'I' for Inactive)
REMARK       I    between atoms: C_4  and  N_1 
REMARK    1  A    between atoms: C_2  and  S_8 
REMARK    2  A    between atoms: C_10  and  C_4 
REMARK    3  A    between atoms: S_8  and  C_10 
ROOT
ATOM      1  N   UNL d   1      53.440  33.142  54.065  0.00  0.00    -0.274 N 
ATOM      2  C   UNL d   1      53.230  33.940  54.026  0.00  0.00     0.067 A 
ATOM      3  C   UNL d   1      53.223  32.547  53.520  0.00  0.00     0.259 C 
ATOM      4  C   UNL d   1      53.907  33.029  54.744  0.00  0.00     0.083 A 
ATOM      5  C   UNL d   1      53.563  34.325  54.675  0.00  0.00     0.018 A 
ATOM      6  O   UNL d   1      52.750  32.732  52.858  0.00  0.00    -0.267 OA
ATOM      7  C   UNL d   1      53.977  33.761  55.112  0.00  0.00     0.021 A 
ATOM      8  C   UNL d   1      52.779  34.366  53.483  0.00  0.00     0.018 A 
ATOM      9  C   UNL d   1      53.450  35.128  54.787  0.00  0.00     0.002 A 
ATOM     10  C   UNL d   1      52.659  35.166  53.583  0.00  0.00     0.002 A 
ATOM     11  C   UNL d   1      52.992  35.561  54.235  0.00  0.00     0.000 A 
ENDROOT
BRANCH   3  12
ATOM     12  C   UNL d   1      53.479  31.760  53.633  0.00  0.00     0.127 C 
BRANCH  12  13
ATOM     13  S   UNL d   1      53.171  31.155  53.167  0.00  0.00    -0.069 SA
BRANCH  13  14
ATOM     14  C   UNL d   1      53.178  30.374  53.449  0.00  0.00     0.140 A 
ATOM     15  N   UNL d   1      53.691  29.960  53.957  0.00  0.00    -0.230 NA
ATOM     16  C   UNL d   1      53.401  29.190  54.027  0.00  0.00     0.107 A 
ATOM     17  C   UNL d   1      52.724  29.116  53.576  0.00  0.00     0.058 A 
ATOM     18  S   UNL d   1      52.578  29.844  53.215  0.00  0.00    -0.059 SA
ENDBRANCH  13  14
ENDBRANCH  12  13
ENDBRANCH   3  12
TORSDOF 3
ENDMDL
MODEL 2
REMARK VINA RESULT:      -7.5      2.569      3.917
REMARK  3 active torsions:
REMARK  status: ('A' for Active; 'I' for Inactive)
REMARK       I    between atoms: C_4  and  N_1 
REMARK    1  A    between atoms: C_2  and  S_8 
REMARK    2  A    between atoms: C_10  and  C_4 
REMARK    3  A    between atoms: S_8  and  C_10 
ROOT
ATOM      1  N   UNL d   1      52.549  33.377  53.433  0.00  0.00    -0.274 N 
ATOM      2  C   UNL d   1      53.204  33.359  53.936  0.00  0.00     0.067 A 
ATOM      3  C   UNL d   1      51.992  33.996  53.366  0.00  0.00     0.259 C 
ATOM      4  C   UNL d   1      52.536  32.666  52.999  0.00  0.00     0.083 A 
ATOM      5  C   UNL d   1      53.599  32.645  53.820  0.00  0.00     0.018 A 
ATOM      6  O   UNL d   1      52.067  34.683  53.834  0.00  0.00    -0.267 OA
ATOM      7  C   UNL d   1      53.185  32.224  53.244  0.00  0.00     0.021 A 
ATOM      8  C   UNL d   1      53.491  33.903  54.486  0.00  0.00     0.018 A 
ATOM      9  C   UNL d   1      54.275  32.469  54.245  0.00  0.00     0.002 A 
ATOM     10  C   UNL d   1      54.163  33.740  54.916  0.00  0.00     0.002 A 
ATOM     11  C   UNL d   1      54.568  33.021  54.804  0.00  0.00     0.000 A 
ENDROOT
BRANCH   3  12
ATOM     12  C   UNL d   1      51.356  33.933  52.829  0.00  0.00     0.127 C 
BRANCH  12  13
ATOM     13  S   UNL d   1      50.700  34.424  52.908  0.00  0.00    -0.069 SA
BRANCH  13  14
ATOM     14  C   UNL d   1      50.127  34.445  52.307  0.00  0.00     0.140 A 
ATOM     15  N   UNL d   1      50.134  34.206  51.510  0.00  0.00    -0.230 NA
ATOM     16  C   UNL d   1      49.389  34.373  51.196  0.00  0.00     0.107 A 
ATOM     17  C   UNL d   1      48.921  34.707  51.775  0.00  0.00     0.058 A 
ATOM     18  S   UNL d   1      49.370  34.757  52.467  0.00  0.00    -0.059 SA
ENDBRANCH  13  14
ENDBRANCH  12  13
ENDBRANCH   3  12
TORSDOF 3
ENDMDL
MODEL 3
REMARK VINA RESULT:      -7.5      2.374      3.813
REMARK  3 active torsions:
REMARK  status: ('A' for Active; 'I' for Inactive)
REMARK       I    between atoms: C_4  and  N_1 
REMARK    1  A    between atoms: C_2  and  S_8 
REMARK    2  A    between atoms: C_10  and  C_4 
REMARK    3  A    between atoms: S_8  and  C_10 
ROOT
ATOM      1  N   UNL d   1      52.685  33.982  53.820  0.00  0.00    -0.274 N 
ATOM      2  C   UNL d   1      53.390  33.592  54.003  0.00  0.00     0.067 A 
ATOM      3  C   UNL d   1      52.129  33.752  53.240  0.00  0.00     0.259 C 
ATOM      4  C   UNL d   1      52.621  34.649  54.314  0.00  0.00     0.083 A 
ATOM      5  C   UNL d   1      53.766  34.010  54.607  0.00  0.00     0.018 A 
ATOM      6  O   UNL d   1      52.257  33.069  52.778  0.00  0.00    -0.267 OA
ATOM      7  C   UNL d   1      53.290  34.657  54.794  0.00  0.00     0.021 A 
ATOM      8  C   UNL d   1      53.738  32.910  53.697  0.00  0.00     0.018 A 
ATOM      9  C   UNL d   1      54.483  33.754  54.907  0.00  0.00     0.002 A 
ATOM     10  C   UNL d   1      54.452  32.645  53.987  0.00  0.00     0.002 A 
ATOM     11  C   UNL d   1      54.837  33.061  54.596  0.00  0.00     0.000 A 
ENDROOT
BRANCH   3  12
ATOM     12  C   UNL d   1      51.438  34.205  53.118  0.00  0.00     0.127 C 
BRANCH  12  13
ATOM     13  S   UNL d   1      50.885  33.970  52.555  0.00  0.00    -0.069 SA
BRANCH  13  14
ATOM     14  C   UNL d   1      50.167  34.382  52.487  0.00  0.00     0.140 A 
ATOM     15  N   UNL d   1      49.745  34.874  53.008  0.00  0.00    -0.230 NA
ATOM     16  C   UNL d   1      49.062  35.121  52.616  0.00  0.00     0.107 A 
ATOM     17  C   UNL d   1      49.049  34.795  51.867  0.00  0.00     0.058 A 
ATOM     18  S   UNL d   1      49.730  34.336  51.778  0.00  0.00    -0.059 SA
ENDBRANCH  13  14
ENDBRANCH  12  13
ENDBRANCH   3  12
TORSDOF 3
ENDMDL
MODEL 4
REMARK VINA RESULT:      -7.4      1.541      4.403
REMARK  3 active torsions:
REMARK  status: ('A' for Active; 'I' for Inactive)
REMARK       I    between atoms: C_4  and  N_1 
REMARK    1  A    between atoms: C_2  and  S_8 
REMARK    2  A    between atoms: C_10  and  C_4 
REMARK    3  A    between atoms: S_8  and  C_10 
ROOT
ATOM      1  N   UNL d   1      53.200  31.608  53.626  0.00  0.00    -0.274 N 
ATOM      2  C   UNL d   1      53.241  30.791  53.745  0.00  0.00     0.067 A 
ATOM      3  C   UNL d   1      53.505  32.198  54.132  0.00  0.00     0.259 C 
ATOM      4  C   UNL d   1      52.798  31.746  52.910  0.00  0.00     0.083 A 
ATOM      5  C   UNL d   1      52.869  30.420  53.110  0.00  0.00     0.018 A 
ATOM      6  O   UNL d   1      53.899  31.987  54.838  0.00  0.00    -0.267 OA
ATOM      7  C   UNL d   1      52.600  31.010  52.601  0.00  0.00     0.021 A 
ATOM      8  C   UNL d   1      53.570  30.339  54.351  0.00  0.00     0.018 A 
ATOM      9  C   UNL d   1      52.823  29.604  53.074  0.00  0.00     0.002 A 
ATOM     10  C   UNL d   1      53.531  29.525  54.327  0.00  0.00     0.002 A 
ATOM     11  C   UNL d   1      53.157  29.143  53.689  0.00  0.00     0.000 A 
ENDROOT
BRANCH   3  12
ATOM     12  C   UNL d   1      53.420  33.006  53.937  0.00  0.00     0.127 C 
BRANCH  12  13
ATOM     13  S   UNL d   1      53.601  33.586  54.492  0.00  0.00    -0.069 SA
BRANCH  13  14
ATOM     14  C   UNL d   1      53.352  34.367  54.366  0.00  0.00     0.140 A 
ATOM     15  N   UNL d   1      53.122  34.786  53.685  0.00  0.00    -0.230 NA
ATOM     16  C   UNL d   1      52.933  35.554  53.919  0.00  0.00     0.107 A 
ATOM     17  C   UNL d   1      53.038  35.624  54.725  0.00  0.00     0.058 A 
ATOM     18  S   UNL d   1      53.297  34.894  55.011  0.00  0.00    -0.059 SA
ENDBRANCH  13  14
ENDBRANCH  12  13
ENDBRANCH   3  12
TORSDOF 3
ENDMDL
MODEL 5
REMARK VINA RESULT:      -6.0      4.292      5.422
REMARK  3 active torsions:
REMARK  status: ('A' for Active; 'I' for Inactive)
REMARK       I    between atoms: C_4  and  N_1 
REMARK    1  A    between atoms: C_2  and  S_8 
REMARK    2  A    between atoms: C_10  and  C_4 
REMARK    3  A    between atoms: S_8  and  C_10 
ROOT
ATOM      1  N   UNL d   1      48.715  35.386  52.738  0.00  0.00    -0.274 N 
ATOM      2  C   UNL d   1      48.010  35.594  52.360  0.00  0.00     0.067 A 
ATOM      3  C   UNL d   1      49.304  34.875  52.439  0.00  0.00     0.259 C 
ATOM      4  C   UNL d   1      48.739  35.775  53.473  0.00  0.00     0.083 A 
ATOM      5  C   UNL d   1      47.596  36.108  52.854  0.00  0.00     0.018 A 
ATOM      6  O   UNL d   1      49.213  34.518  51.690  0.00  0.00    -0.267 OA
ATOM      7  C   UNL d   1      48.047  36.216  53.535  0.00  0.00     0.021 A 
ATOM      8  C   UNL d   1      47.692  35.380  51.630  0.00  0.00     0.018 A 
ATOM      9  C   UNL d   1      46.870  36.410  52.626  0.00  0.00     0.002 A 
ATOM     10  C   UNL d   1      46.971  35.674  51.391  0.00  0.00     0.002 A 
ATOM     11  C   UNL d   1      46.547  36.194  51.884  0.00  0.00     0.000 A 
ENDROOT
BRANCH   3  12
ATOM     12  C   UNL d   1      49.991  34.717  52.888  0.00  0.00     0.127 C 
BRANCH  12  13
ATOM     13  S   UNL d   1      50.558  34.194  52.602  0.00  0.00    -0.069 SA
BRANCH  13  14
ATOM     14  C   UNL d   1      51.290  34.129  52.990  0.00  0.00     0.140 A 
ATOM     15  N   UNL d   1      51.862  34.689  53.217  0.00  0.00    -0.230 NA
ATOM     16  C   UNL d   1      52.476  34.279  53.586  0.00  0.00     0.107 A 
ATOM     17  C   UNL d   1      52.300  33.482  53.595  0.00  0.00     0.058 A 
ATOM     18  S   UNL d   1      51.567  33.379  53.228  0.00  0.00    -0.059 SA
ENDBRANCH  13  14
ENDBRANCH  12  13
ENDBRANCH   3  12
TORSDOF 3
ENDMDL
MODEL 6
REMARK VINA RESULT:      -6.0      9.500      9.930
REMARK  3 active torsions:
REMARK  status: ('A' for Active; 'I' for Inactive)
REMARK       I    between atoms: C_4  and  N_1 
REMARK    1  A    between atoms: C_2  and  S_8 
REMARK    2  A    between atoms: C_10  and  C_4 
REMARK    3  A    between atoms: S_8  and  C_10 
ROOT
ATOM      1  N   UNL d   1      44.703  29.953  57.212  0.00  0.00    -0.274 N 
ATOM      2  C   UNL d   1      44.608  30.766  57.102  0.00  0.00     0.067 A 
ATOM      3  C   UNL d   1      44.859  29.567  57.936  0.00  0.00     0.259 C 
ATOM      4  C   UNL d   1      44.617  29.579  56.473  0.00  0.00     0.083 A 
ATOM      5  C   UNL d   1      44.463  30.902  56.301  0.00  0.00     0.018 A 
ATOM      6  O   UNL d   1      44.933  30.006  58.642  0.00  0.00    -0.267 OA
ATOM      7  C   UNL d   1      44.470  30.171  55.920  0.00  0.00     0.021 A 
ATOM      8  C   UNL d   1      44.634  31.401  57.628  0.00  0.00     0.018 A 
ATOM      9  C   UNL d   1      44.345  31.662  56.022  0.00  0.00     0.002 A 
ATOM     10  C   UNL d   1      44.519  32.162  57.363  0.00  0.00     0.002 A 
ATOM     11  C   UNL d   1      44.372  32.307  56.557  0.00  0.00     0.000 A 
ENDROOT
BRANCH   3  12
ATOM     12  C   UNL d   1      44.942  28.736  57.960  0.00  0.00     0.127 C 
BRANCH  12  13
ATOM     13  S   UNL d   1      44.965  28.345  58.684  0.00  0.00    -0.069 SA
BRANCH  13  14
ATOM     14  C   UNL d   1      45.001  27.516  58.703  0.00  0.00     0.140 A 
ATOM     15  N   UNL d   1      45.410  26.956  58.242  0.00  0.00    -0.230 NA
ATOM     16  C   UNL d   1      45.219  26.208  58.534  0.00  0.00     0.107 A 
ATOM     17  C   UNL d   1      44.703  26.288  59.162  0.00  0.00     0.058 A 
ATOM     18  S   UNL d   1      44.562  27.095  59.273  0.00  0.00    -0.059 SA
ENDBRANCH  13  14
ENDBRANCH  12  13
ENDBRANCH   3  12
TORSDOF 3
ENDMDL
MODEL 7
REMARK VINA RESULT:      -5.9      2.682      3.868
REMARK  3 active torsions:
REMARK  status: ('A' for Active; 'I' for Inactive)
REMARK       I    between atoms: C_4  and  N_1 
REMARK    1  A    between atoms: C_2  and  S_8 
REMARK    2  A    between atoms: C_10  and  C_4 
REMARK    3  A    between atoms: S_8  and  C_10 
ROOT
ATOM      1  N   UNL d   1      50.713  34.315  52.729  0.00  0.00    -0.274 N 
ATOM      2  C   UNL d   1      50.144  34.396  52.135  0.00  0.00     0.067 A 
ATOM      3  C   UNL d   1      51.471  33.972  52.646  0.00  0.00     0.259 C 
ATOM      4  C   UNL d   1      50.402  34.635  53.432  0.00  0.00     0.083 A 
ATOM      5  C   UNL d   1      49.482  34.763  52.462  0.00  0.00     0.018 A 
ATOM      6  O   UNL d   1      51.718  33.669  51.908  0.00  0.00    -0.267 OA
ATOM      7  C   UNL d   1      49.646  34.908  53.257  0.00  0.00     0.021 A 
ATOM      8  C   UNL d   1      50.145  34.182  51.339  0.00  0.00     0.018 A 
ATOM      9  C   UNL d   1      48.823  34.919  52.002  0.00  0.00     0.002 A 
ATOM     10  C   UNL d   1      49.495  34.331  50.871  0.00  0.00     0.002 A 
ATOM     11  C   UNL d   1      48.823  34.702  51.193  0.00  0.00     0.000 A 
ENDROOT
BRANCH   3  12
ATOM     12  C   UNL d   1      51.987  33.929  53.300  0.00  0.00     0.127 C 
BRANCH  12  13
ATOM     13  S   UNL d   1      52.689  33.503  53.244  0.00  0.00    -0.069 SA
BRANCH  13  14
ATOM     14  C   UNL d   1      53.206  33.475  53.893  0.00  0.00     0.140 A 
ATOM     15  N   UNL d   1      53.448  34.044  54.450  0.00  0.00    -0.230 NA
ATOM     16  C   UNL d   1      53.976  33.676  54.966  0.00  0.00     0.107 A 
ATOM     17  C   UNL d   1      54.070  32.896  54.745  0.00  0.00     0.058 A 
ATOM     18  S   UNL d   1      53.596  32.762  54.081  0.00  0.00    -0.059 SA
ENDBRANCH  13  14
ENDBRANCH  12  13
ENDBRANCH   3  12
TORSDOF 3
ENDMDL
MODEL 8
REMARK VINA RESULT:      -5.8      9.633     10.047
REMARK  3 active torsions:
REMARK  status: ('A' for Active; 'I' for Inactive)
REMARK       I    between atoms: C_4  and  N_1 
REMARK    1  A    between atoms: C_2  and  S_8 
REMARK    2  A    between atoms: C_10  and  C_4 
REMARK    3  A    between atoms: S_8  and  C_10 
ROOT
ATOM      1  N   UNL d   1      44.941  28.944  57.328  0.00  0.00    -0.274 N 
ATOM      2  C   UNL d   1      44.977  29.643  57.767  0.00  0.00     0.067 A 
ATOM      3  C   UNL d   1      45.093  28.173  57.611  0.00  0.00     0.259 C 
ATOM      4  C   UNL d   1      44.725  29.139  56.548  0.00  0.00     0.083 A 
ATOM      5  C   UNL d   1      44.786  30.271  57.267  0.00  0.00     0.018 A 
ATOM      6  O   UNL d   1      45.306  28.051  58.409  0.00  0.00    -0.267 OA
ATOM      7  C   UNL d   1      44.633  29.956  56.521  0.00  0.00     0.021 A 
ATOM      8  C   UNL d   1      45.160  29.788  58.558  0.00  0.00     0.018 A 
ATOM      9  C   UNL d   1      44.776  31.039  57.549  0.00  0.00     0.002 A 
ATOM     10  C   UNL d   1      45.154  30.548  58.851  0.00  0.00     0.002 A 
ATOM     11  C   UNL d   1      44.962  31.187  58.353  0.00  0.00     0.000 A 
ENDROOT
BRANCH   3  12
ATOM     12  C   UNL d   1      45.033  27.517  57.098  0.00  0.00     0.127 C 
BRANCH  12  13
ATOM     13  S   UNL d   1      44.968  26.757  57.406  0.00  0.00    -0.069 SA
BRANCH  13  14
ATOM     14  C   UNL d   1      44.866  26.112  56.893  0.00  0.00     0.140 A 
ATOM     15  N   UNL d   1      45.188  25.923  56.150  0.00  0.00    -0.230 NA
ATOM     16  C   UNL d   1      44.867  25.199  55.918  0.00  0.00     0.107 A 
ATOM     17  C   UNL d   1      44.356  24.934  56.496  0.00  0.00     0.058 A 
ATOM     18  S   UNL d   1      44.348  25.493  57.104  0.00  0.00    -0.059 SA
ENDBRANCH  13  14
ENDBRANCH  12  13
ENDBRANCH   3  12
TORSDOF 3
ENDMDL
MODEL 9
REMARK VINA RESULT:      -5.7     10.523     11.035
REMARK  3 active torsions:
REMARK  status: ('A' for Active; 'I' for Inactive)
REMARK       I    between atoms: C_4  and  N_1 
REMARK    1  A    between atoms: C_2  and  S_8 
REMARK    2  A    between atoms: C_10  and  C_4 
REMARK    3  A    between atoms: S_8  and  C_10 
ROOT
ATOM      1  N   UNL d   1      44.623  29.537  60.571  0.00  0.00    -0.274 N 
ATOM      2  C   UNL d   1      44.560  30.125  61.148  0.00  0.00     0.067 A 
ATOM      3  C   UNL d   1      44.777  29.655  59.759  0.00  0.00     0.259 C 
ATOM      4  C   UNL d   1      44.506  28.799  60.939  0.00  0.00     0.083 A 
ATOM      5  C   UNL d   1      44.405  29.760  61.871  0.00  0.00     0.018 A 
ATOM      6  O   UNL d   1      44.884  30.426  59.457  0.00  0.00    -0.267 OA
ATOM      7  C   UNL d   1      44.373  28.947  61.738  0.00  0.00     0.021 A 
ATOM      8  C   UNL d   1      44.624  30.946  61.107  0.00  0.00     0.018 A 
ATOM      9  C   UNL d   1      44.314  30.207  62.551  0.00  0.00     0.002 A 
ATOM     10  C   UNL d   1      44.536  31.401  61.777  0.00  0.00     0.002 A 
ATOM     11  C   UNL d   1      44.379  31.041  62.510  0.00  0.00     0.000 A 
ENDROOT
BRANCH   3  12
ATOM     12  C   UNL d   1      44.825  29.002  59.240  0.00  0.00     0.127 C 
BRANCH  12  13
ATOM     13  S   UNL d   1      45.046  29.113  58.455  0.00  0.00    -0.069 SA
BRANCH  13  14
ATOM     14  C   UNL d   1      45.169  28.455  57.965  0.00  0.00     0.140 A 
ATOM     15  N   UNL d   1      45.554  27.727  58.082  0.00  0.00    -0.230 NA
ATOM     16  C   UNL d   1      45.490  27.298  57.379  0.00  0.00     0.107 A 
ATOM     17  C   UNL d   1      45.076  27.739  56.832  0.00  0.00     0.058 A 
ATOM     18  S   UNL d   1      44.873  28.458  57.185  0.00  0.00    -0.059 SA
ENDBRANCH  13  14
ENDBRANCH  12  13
ENDBRANCH   3  12
TORSDOF 3
ENDMDL
