MODEL 1
REMARK VINA RESULT:      -2.4      0.000      0.000
REMARK  2 active torsions:
REMARK  status: ('A' for Active; 'I' for Inactive)
REMARK    1  A    between atoms: C_10  and  N_3 
REMARK    2  A    between atoms: C_11  and  C_4 
ROOT
ATOM      1  C   UNL d   1      31.912  17.120 -23.707  0.00  0.00     0.152 A 
ATOM      2  C   UNL d   1      31.233  16.662 -23.725  0.00  0.00     0.065 A 
ATOM      3  N   UNL d   1      31.750  17.836 -24.086  0.00  0.00    -0.290 N 
ATOM      4  C   UNL d   1      30.644  17.091 -24.116  0.00  0.00     0.023 A 
ATOM      5  C   UNL d   1      30.965  17.812 -24.336  0.00  0.00     0.082 A 
ATOM      6  N   UNL d   1      32.598  16.834 -23.348  0.00  0.00    -0.206 NA
ATOM      7  C   UNL d   1      31.228  15.910 -23.385  0.00  0.00     0.143 A 
ATOM      8  N   UNL d   1      31.914  15.623 -23.027  0.00  0.00    -0.212 NA
ATOM      9  C   UNL d   1      32.593  16.081 -23.008  0.00  0.00     0.201 A 
ATOM     10 CL   UNL d   1      30.549  15.453 -23.404  0.00  0.00    -0.061 Cl
ENDROOT
BRANCH   3  11
ATOM     11  C   UNL d   1      32.241  18.474 -24.212  0.00  0.00     0.065 A 
ATOM     12  C   UNL d   1      32.686  18.522 -24.904  0.00  0.00     0.018 A 
ATOM     13  C   UNL d   1      33.185  19.168 -25.033  0.00  0.00     0.002 A 
ATOM     14  C   UNL d   1      33.241  19.774 -24.461  0.00  0.00     0.000 A 
ATOM     15  C   UNL d   1      32.791  19.717 -23.770  0.00  0.00     0.002 A 
ATOM     16  C   UNL d   1      32.295  19.071 -23.646  0.00  0.00     0.018 A 
ENDBRANCH   3  11
BRANCH   4  17
ATOM     17  C   UNL d   1      29.906  16.732 -24.198  0.00  0.00     0.002 A 
ATOM     18  C   UNL d   1      29.747  16.257 -24.856  0.00  0.00     0.000 A 
ATOM     19  C   UNL d   1      29.009  15.897 -24.938  0.00  0.00     0.000 A 
ATOM     20  C   UNL d   1      28.431  16.012 -24.364  0.00  0.00     0.000 A 
ATOM     21  C   UNL d   1      28.590  16.487 -23.706  0.00  0.00     0.000 A 
ATOM     22  C   UNL d   1      29.324  16.845 -23.624  0.00  0.00     0.000 A 
ENDBRANCH   4  17
TORSDOF 2
ENDMDL
MODEL 2
REMARK VINA RESULT:      -1.9      2.044      3.345
REMARK  2 active torsions:
REMARK  status: ('A' for Active; 'I' for Inactive)
REMARK    1  A    between atoms: C_10  and  N_3 
REMARK    2  A    between atoms: C_11  and  C_4 
ROOT
ATOM      1  C   UNL d   1      32.989  19.487 -23.479  0.00  0.00     0.152 A 
ATOM      2  C   UNL d   1      32.877  18.737 -23.786  0.00  0.00     0.065 A 
ATOM      3  N   UNL d   1      32.885  19.447 -22.659  0.00  0.00    -0.290 N 
ATOM      4  C   UNL d   1      32.702  18.226 -23.160  0.00  0.00     0.023 A 
ATOM      5  C   UNL d   1      32.708  18.666 -22.469  0.00  0.00     0.082 A 
ATOM      6  N   UNL d   1      33.172  20.119 -23.977  0.00  0.00    -0.206 NA
ATOM      7  C   UNL d   1      32.946  18.604 -24.598  0.00  0.00     0.143 A 
ATOM      8  N   UNL d   1      33.129  19.236 -25.097  0.00  0.00    -0.212 NA
ATOM      9  C   UNL d   1      33.241  19.987 -24.789  0.00  0.00     0.201 A 
ATOM     10 CL   UNL d   1      32.834  17.854 -24.906  0.00  0.00    -0.061 Cl
ENDROOT
BRANCH   3  11
ATOM     11  C   UNL d   1      32.938  20.043 -22.106  0.00  0.00     0.065 A 
ATOM     12  C   UNL d   1      32.742  20.817 -22.312  0.00  0.00     0.018 A 
ATOM     13  C   UNL d   1      32.795  21.421 -21.751  0.00  0.00     0.002 A 
ATOM     14  C   UNL d   1      33.047  21.251 -20.974  0.00  0.00     0.000 A 
ATOM     15  C   UNL d   1      33.241  20.472 -20.777  0.00  0.00     0.002 A 
ATOM     16  C   UNL d   1      33.187  19.872 -21.339  0.00  0.00     0.018 A 
ENDBRANCH   3  11
BRANCH   4  17
ATOM     17  C   UNL d   1      32.568  17.433 -23.346  0.00  0.00     0.002 A 
ATOM     18  C   UNL d   1      33.197  16.897 -23.358  0.00  0.00     0.000 A 
ATOM     19  C   UNL d   1      33.062  16.104 -23.544  0.00  0.00     0.000 A 
ATOM     20  C   UNL d   1      32.299  15.848 -23.717  0.00  0.00     0.000 A 
ATOM     21  C   UNL d   1      31.670  16.385 -23.705  0.00  0.00     0.000 A 
ATOM     22  C   UNL d   1      31.804  17.173 -23.520  0.00  0.00     0.000 A 
ENDBRANCH   4  17
TORSDOF 2
ENDMDL
MODEL 3
REMARK VINA RESULT:      -1.5      2.729      4.946
REMARK  2 active torsions:
REMARK  status: ('A' for Active; 'I' for Inactive)
REMARK    1  A    between atoms: C_10  and  N_3 
REMARK    2  A    between atoms: C_11  and  C_4 
ROOT
ATOM      1  C   UNL d   1      32.887  19.875 -23.307  0.00  0.00     0.152 A 
ATOM      2  C   UNL d   1      32.860  20.515 -22.798  0.00  0.00     0.065 A 
ATOM      3  N   UNL d   1      32.701  19.195 -22.875  0.00  0.00    -0.290 N 
ATOM      4  C   UNL d   1      32.656  20.238 -22.046  0.00  0.00     0.023 A 
ATOM      5  C   UNL d   1      32.559  19.426 -22.097  0.00  0.00     0.082 A 
ATOM      6  N   UNL d   1      33.078  19.982 -24.102  0.00  0.00    -0.206 NA
ATOM      7  C   UNL d   1      33.023  21.275 -23.075  0.00  0.00     0.143 A 
ATOM      8  N   UNL d   1      33.214  21.384 -23.871  0.00  0.00    -0.212 NA
ATOM      9  C   UNL d   1      33.241  20.743 -24.380  0.00  0.00     0.201 A 
ATOM     10 CL   UNL d   1      32.995  21.916 -22.565  0.00  0.00    -0.061 Cl
ENDROOT
BRANCH   3  11
ATOM     11  C   UNL d   1      32.654  18.422 -23.129  0.00  0.00     0.065 A 
ATOM     12  C   UNL d   1      32.022  18.180 -23.600  0.00  0.00     0.018 A 
ATOM     13  C   UNL d   1      31.974  17.397 -23.858  0.00  0.00     0.002 A 
ATOM     14  C   UNL d   1      32.564  16.847 -23.642  0.00  0.00     0.000 A 
ATOM     15  C   UNL d   1      33.193  17.099 -23.170  0.00  0.00     0.002 A 
ATOM     16  C   UNL d   1      33.238  17.881 -22.914  0.00  0.00     0.018 A 
ENDBRANCH   3  11
BRANCH   4  17
ATOM     17  C   UNL d   1      32.596  20.796 -21.440  0.00  0.00     0.002 A 
ATOM     18  C   UNL d   1      31.895  21.219 -21.334  0.00  0.00     0.000 A 
ATOM     19  C   UNL d   1      31.835  21.777 -20.729  0.00  0.00     0.000 A 
ATOM     20  C   UNL d   1      32.476  21.911 -20.231  0.00  0.00     0.000 A 
ATOM     21  C   UNL d   1      33.178  21.487 -20.337  0.00  0.00     0.000 A 
ATOM     22  C   UNL d   1      33.238  20.932 -20.939  0.00  0.00     0.000 A 
ENDBRANCH   4  17
TORSDOF 2
ENDMDL
MODEL 4
REMARK VINA RESULT:      -0.5      1.801      4.089
REMARK  2 active torsions:
REMARK  status: ('A' for Active; 'I' for Inactive)
REMARK    1  A    between atoms: C_10  and  N_3 
REMARK    2  A    between atoms: C_11  and  C_4 
ROOT
ATOM      1  C   UNL d   1      29.719  17.058 -24.388  0.00  0.00     0.152 A 
ATOM      2  C   UNL d   1      30.535  17.036 -24.453  0.00  0.00     0.065 A 
ATOM      3  N   UNL d   1      29.473  16.364 -24.012  0.00  0.00    -0.290 N 
ATOM      4  C   UNL d   1      30.801  16.328 -24.119  0.00  0.00     0.023 A 
ATOM      5  C   UNL d   1      30.145  15.918 -23.849  0.00  0.00     0.082 A 
ATOM      6  N   UNL d   1      29.295  17.705 -24.675  0.00  0.00    -0.206 NA
ATOM      7  C   UNL d   1      30.942  17.660 -24.809  0.00  0.00     0.143 A 
ATOM      8  N   UNL d   1      30.517  18.308 -25.097  0.00  0.00    -0.212 NA
ATOM      9  C   UNL d   1      29.701  18.330 -25.031  0.00  0.00     0.201 A 
ATOM     10 CL   UNL d   1      31.758  17.638 -24.875  0.00  0.00    -0.061 Cl
ENDROOT
BRANCH   3  11
ATOM     11  C   UNL d   1      28.718  16.125 -23.819  0.00  0.00     0.065 A 
ATOM     12  C   UNL d   1      28.270  15.696 -24.362  0.00  0.00     0.018 A 
ATOM     13  C   UNL d   1      27.505  15.453 -24.167  0.00  0.00     0.002 A 
ATOM     14  C   UNL d   1      27.182  15.641 -23.420  0.00  0.00     0.000 A 
ATOM     15  C   UNL d   1      27.639  16.072 -22.883  0.00  0.00     0.002 A 
ATOM     16  C   UNL d   1      28.402  16.312 -23.081  0.00  0.00     0.018 A 
ENDBRANCH   3  11
BRANCH   4  17
ATOM     17  C   UNL d   1      31.615  16.189 -24.126  0.00  0.00     0.002 A 
ATOM     18  C   UNL d   1      32.084  16.442 -23.494  0.00  0.00     0.000 A 
ATOM     19  C   UNL d   1      32.897  16.304 -23.500  0.00  0.00     0.000 A 
ATOM     20  C   UNL d   1      33.241  15.912 -24.138  0.00  0.00     0.000 A 
ATOM     21  C   UNL d   1      32.771  15.660 -24.770  0.00  0.00     0.000 A 
ATOM     22  C   UNL d   1      31.962  15.797 -24.764  0.00  0.00     0.000 A 
ENDBRANCH   4  17
TORSDOF 2
ENDMDL
MODEL 5
REMARK VINA RESULT:       0.5      3.118      5.243
REMARK  2 active torsions:
REMARK  status: ('A' for Active; 'I' for Inactive)
REMARK    1  A    between atoms: C_10  and  N_3 
REMARK    2  A    between atoms: C_11  and  C_4 
ROOT
ATOM      1  C   UNL d   1      33.006  19.966 -21.981  0.00  0.00     0.152 A 
ATOM      2  C   UNL d   1      32.940  20.690 -21.604  0.00  0.00     0.065 A 
ATOM      3  N   UNL d   1      32.897  20.087 -22.792  0.00  0.00    -0.290 N 
ATOM      4  C   UNL d   1      32.790  21.266 -22.178  0.00  0.00     0.023 A 
ATOM      5  C   UNL d   1      32.764  20.891 -22.907  0.00  0.00     0.082 A 
ATOM      6  N   UNL d   1      33.157  19.281 -21.546  0.00  0.00    -0.206 NA
ATOM      7  C   UNL d   1      33.024  20.743 -20.785  0.00  0.00     0.143 A 
ATOM      8  N   UNL d   1      33.175  20.058 -20.349  0.00  0.00    -0.212 NA
ATOM      9  C   UNL d   1      33.241  19.334 -20.726  0.00  0.00     0.201 A 
ATOM     10 CL   UNL d   1      32.958  21.467 -20.408  0.00  0.00    -0.061 Cl
ENDROOT
BRANCH   3  11
ATOM     11  C   UNL d   1      32.910  19.543 -23.398  0.00  0.00     0.065 A 
ATOM     12  C   UNL d   1      32.616  18.783 -23.278  0.00  0.00     0.018 A 
ATOM     13  C   UNL d   1      32.629  18.231 -23.892  0.00  0.00     0.002 A 
ATOM     14  C   UNL d   1      32.940  18.441 -24.638  0.00  0.00     0.000 A 
ATOM     15  C   UNL d   1      33.233  19.205 -24.749  0.00  0.00     0.002 A 
ATOM     16  C   UNL d   1      33.218  19.753 -24.133  0.00  0.00     0.018 A 
ENDBRANCH   3  11
BRANCH   4  17
ATOM     17  C   UNL d   1      32.702  22.044 -21.919  0.00  0.00     0.002 A 
ATOM     18  C   UNL d   1      33.240  22.624 -22.159  0.00  0.00     0.000 A 
ATOM     19  C   UNL d   1      33.152  23.403 -21.899  0.00  0.00     0.000 A 
ATOM     20  C   UNL d   1      32.529  23.601 -21.400  0.00  0.00     0.000 A 
ATOM     21  C   UNL d   1      31.991  23.020 -21.160  0.00  0.00     0.000 A 
ATOM     22  C   UNL d   1      32.078  22.246 -21.418  0.00  0.00     0.000 A 
ENDBRANCH   4  17
TORSDOF 2
ENDMDL
