MODEL 1
REMARK VINA RESULT:      -4.8      0.000      0.000
REMARK  7 active torsions:
REMARK  status: ('A' for Active; 'I' for Inactive)
REMARK    1  A    between atoms: C_8  and  C_1 
REMARK    2  A    between atoms: N_7  and  C_2 
REMARK    3  A    between atoms: C_10  and  C_4 
REMARK       I    between atoms: C_6  and  N_7 
REMARK       I    between atoms: N_9  and  C_6 
REMARK    4  A    between atoms: O_14  and  C_8 
REMARK    5  A    between atoms: C_13  and  N_9 
REMARK    6  A    between atoms: O_20  and  C_15 
REMARK    7  A    between atoms: C_23  and  O_20 
ROOT
ATOM      1  C   UNL d   1     -48.766  12.315  23.090  0.00  0.00     0.110 A 
ATOM      2  C   UNL d   1     -48.031  12.639  23.422  0.00  0.00     0.098 A 
ATOM      3  S   UNL d   1     -49.250  12.914  22.898  0.00  0.00    -0.080 SA
ATOM      4  C   UNL d   1     -48.872  13.646  23.088  0.00  0.00     0.031 A 
ATOM      5  C   UNL d   1     -48.103  13.458  23.417  0.00  0.00     0.026 A 
ENDROOT
BRANCH   2   6
ATOM      6  N   UNL d   1     -47.368  12.239  23.698  0.00  0.00    -0.190 NA
ATOM      7  C   UNL d   1     -46.618  12.388  23.356  0.00  0.00     0.369 C 
ATOM      8  N   UNL d   1     -46.530  12.915  22.761  0.00  0.00    -0.191 NA
ATOM      9  O   UNL d   1     -45.948  11.968  23.652  0.00  0.00    -0.242 OA
BRANCH   8  10
ATOM     10  C   UNL d   1     -45.794  13.050  22.437  0.00  0.00     0.086 A 
ATOM     11  C   UNL d   1     -45.460  13.790  22.490  0.00  0.00     0.021 A 
ATOM     12  C   UNL d   1     -44.716  13.939  22.166  0.00  0.00     0.026 A 
ATOM     13  C   UNL d   1     -44.310  13.336  21.788  0.00  0.00     0.100 A 
ATOM     14  C   UNL d   1     -44.645  12.596  21.735  0.00  0.00     0.026 A 
ATOM     15  C   UNL d   1     -45.389  12.451  22.060  0.00  0.00     0.021 A 
BRANCH  13  16
ATOM     16  O   UNL d   1     -43.574  13.485  21.468  0.00  0.00    -0.305 OA
BRANCH  16  17
ATOM     17  C   UNL d   1     -43.013  12.884  21.436  0.00  0.00     0.123 C 
ATOM     18  C   UNL d   1     -42.290  13.018  21.042  0.00  0.00     0.029 C 
ENDBRANCH  16  17
ENDBRANCH  13  16
ENDBRANCH   8  10
ENDBRANCH   2   6
BRANCH   1  19
ATOM     19  C   UNL d   1     -48.950  11.507  22.982  0.00  0.00     0.303 C 
ATOM     20  O   UNL d   1     -48.793  11.149  22.269  0.00  0.00    -0.259 OA
BRANCH  19  21
ATOM     21  O   UNL d   1     -49.288  11.122  23.629  0.00  0.00    -0.295 OA
ATOM     22  C   UNL d   1     -50.040  10.773  23.605  0.00  0.00     0.185 C 
ENDBRANCH  19  21
ENDBRANCH   1  19
BRANCH   4  23
ATOM     23  C   UNL d   1     -49.198  14.404  22.971  0.00  0.00     0.006 A 
ATOM     24  C   UNL d   1     -49.475  14.861  23.609  0.00  0.00     0.001 A 
ATOM     25  C   UNL d   1     -49.796  15.609  23.489  0.00  0.00     0.000 A 
ATOM     26  C   UNL d   1     -49.847  15.920  22.712  0.00  0.00     0.000 A 
ATOM     27  C   UNL d   1     -49.562  15.451  22.050  0.00  0.00     0.000 A 
ATOM     28  C   UNL d   1     -49.249  14.716  22.194  0.00  0.00     0.001 A 
ENDBRANCH   4  23
TORSDOF 7
ENDMDL
MODEL 2
REMARK VINA RESULT:      -4.7      1.739      2.822
REMARK  7 active torsions:
REMARK  status: ('A' for Active; 'I' for Inactive)
REMARK    1  A    between atoms: C_8  and  C_1 
REMARK    2  A    between atoms: N_7  and  C_2 
REMARK    3  A    between atoms: C_10  and  C_4 
REMARK       I    between atoms: C_6  and  N_7 
REMARK       I    between atoms: N_9  and  C_6 
REMARK    4  A    between atoms: O_14  and  C_8 
REMARK    5  A    between atoms: C_13  and  N_9 
REMARK    6  A    between atoms: O_20  and  C_15 
REMARK    7  A    between atoms: C_23  and  O_20 
ROOT
ATOM      1  C   UNL d   1     -49.552  14.694  22.974  0.00  0.00     0.110 A 
ATOM      2  C   UNL d   1     -48.711  14.475  22.960  0.00  0.00     0.098 A 
ATOM      3  S   UNL d   1     -49.987  14.048  23.122  0.00  0.00    -0.080 SA
ATOM      4  C   UNL d   1     -49.472  13.384  23.212  0.00  0.00     0.031 A 
ATOM      5  C   UNL d   1     -48.669  13.668  23.108  0.00  0.00     0.026 A 
ENDROOT
BRANCH   2   6
ATOM      6  N   UNL d   1     -48.055  14.951  22.830  0.00  0.00    -0.190 NA
ATOM      7  C   UNL d   1     -47.310  14.602  22.671  0.00  0.00     0.369 C 
ATOM      8  N   UNL d   1     -47.222  13.807  22.644  0.00  0.00    -0.191 NA
ATOM      9  O   UNL d   1     -46.646  15.107  22.539  0.00  0.00    -0.242 OA
BRANCH   8  10
ATOM     10  C   UNL d   1     -46.491  13.480  22.488  0.00  0.00     0.086 A 
ATOM     11  C   UNL d   1     -46.012  13.254  23.105  0.00  0.00     0.021 A 
ATOM     12  C   UNL d   1     -45.270  12.921  22.960  0.00  0.00     0.026 A 
ATOM     13  C   UNL d   1     -45.016  12.819  22.189  0.00  0.00     0.100 A 
ATOM     14  C   UNL d   1     -45.495  13.045  21.572  0.00  0.00     0.026 A 
ATOM     15  C   UNL d   1     -46.236  13.377  21.721  0.00  0.00     0.021 A 
BRANCH  13  16
ATOM     16  O   UNL d   1     -44.282  12.490  22.047  0.00  0.00    -0.305 OA
BRANCH  16  17
ATOM     17  C   UNL d   1     -43.722  12.910  21.616  0.00  0.00     0.123 C 
ATOM     18  C   UNL d   1     -43.040  12.519  21.336  0.00  0.00     0.029 C 
ENDBRANCH  16  17
ENDBRANCH  13  16
ENDBRANCH   8  10
ENDBRANCH   2   6
BRANCH   1  19
ATOM     19  C   UNL d   1     -49.869  15.459  22.852  0.00  0.00     0.303 C 
ATOM     20  O   UNL d   1     -49.856  15.787  22.108  0.00  0.00    -0.259 OA
BRANCH  19  21
ATOM     21  O   UNL d   1     -50.181  15.833  23.518  0.00  0.00    -0.295 OA
ATOM     22  C   UNL d   1     -50.996  15.922  23.646  0.00  0.00     0.185 C 
ENDBRANCH  19  21
ENDBRANCH   1  19
BRANCH   4  23
ATOM     23  C   UNL d   1     -49.713  12.602  23.373  0.00  0.00     0.006 A 
ATOM     24  C   UNL d   1     -49.159  12.002  23.538  0.00  0.00     0.001 A 
ATOM     25  C   UNL d   1     -49.401  11.233  23.697  0.00  0.00     0.000 A 
ATOM     26  C   UNL d   1     -50.218  11.044  23.693  0.00  0.00     0.000 A 
ATOM     27  C   UNL d   1     -50.793  11.660  23.522  0.00  0.00     0.000 A 
ATOM     28  C   UNL d   1     -50.530  12.413  23.369  0.00  0.00     0.001 A 
ENDBRANCH   4  23
TORSDOF 7
ENDMDL
