MODEL 1
REMARK VINA RESULT:      -2.9      0.000      0.000
REMARK  5 active torsions:
REMARK  status: ('A' for Active; 'I' for Inactive)
REMARK    1  A    between atoms: N_7  and  C_1 
REMARK    2  A    between atoms: O_17  and  C_5 
REMARK    3  A    between atoms: C_10  and  N_7 
REMARK    4  A    between atoms: O_18  and  C_8 
REMARK    5  A    between atoms: O_19  and  C_9 
ROOT
ATOM      1  C   UNL d   1      59.172  -1.362  29.158  0.00  0.00     0.139 A 
ATOM      2  C   UNL d   1      58.707  -1.899  29.578  0.00  0.00     0.120 A 
ATOM      3  C   UNL d   1      58.998  -0.545  29.201  0.00  0.00     0.120 A 
ATOM      4  C   UNL d   1      57.912  -0.824  30.075  0.00  0.00     0.087 A 
ATOM      5  C   UNL d   1      58.367  -0.279  29.661  0.00  0.00     0.045 A 
ATOM      6  C   UNL d   1      58.067  -1.633  30.045  0.00  0.00     0.045 A 
ENDROOT
BRANCH   4   7
ATOM      7  N   UNL d   1      57.277  -0.552  30.537  0.00  0.00    -0.226 NA
BRANCH   7   8
ATOM      8  C   UNL d   1      57.420  -0.203  31.267  0.00  0.00     0.169 A 
ATOM      9  C   UNL d   1      56.997  -0.397  31.892  0.00  0.00     0.094 A 
ATOM     10  C   UNL d   1      57.134  -0.062  32.592  0.00  0.00     0.190 A 
ATOM     11  C   UNL d   1      55.994  -1.136  32.447  0.00  0.00     0.128 A 
ATOM     12  N   UNL d   1      56.702  -0.267  33.209  0.00  0.00    -0.128 NA
ATOM     13  N   UNL d   1      57.693   0.466  32.665  0.00  0.00    -0.203 NA
ATOM     14  N   UNL d   1      56.141  -0.793  33.145  0.00  0.00    -0.145 NA
ATOM     15  C   UNL d   1      58.137   0.679  32.041  0.00  0.00     0.202 A 
ATOM     16  N   UNL d   1      58.001   0.345  31.341  0.00  0.00    -0.205 NA
ENDBRANCH   7   8
ENDBRANCH   4   7
BRANCH   3  17
ATOM     17  O   UNL d   1      59.465   0.001  28.779  0.00  0.00    -0.326 OA
ATOM     18  C   UNL d   1      59.112   0.682  28.455  0.00  0.00     0.181 C 
ENDBRANCH   3  17
BRANCH   2  19
ATOM     19  O   UNL d   1      58.874  -2.713  29.539  0.00  0.00    -0.326 OA
ATOM     20  C   UNL d   1      58.302  -3.243  29.243  0.00  0.00     0.181 C 
ENDBRANCH   2  19
BRANCH   1  21
ATOM     21  O   UNL d   1      59.807  -1.622  28.694  0.00  0.00    -0.324 OA
ATOM     22  C   UNL d   1      60.498  -1.913  29.069  0.00  0.00     0.182 C 
ENDBRANCH   1  21
TORSDOF 5
ENDMDL
MODEL 2
REMARK VINA RESULT:      -2.3      0.439      1.679
REMARK  5 active torsions:
REMARK  status: ('A' for Active; 'I' for Inactive)
REMARK    1  A    between atoms: N_7  and  C_1 
REMARK    2  A    between atoms: O_17  and  C_5 
REMARK    3  A    between atoms: C_10  and  N_7 
REMARK    4  A    between atoms: O_18  and  C_8 
REMARK    5  A    between atoms: O_19  and  C_9 
ROOT
ATOM      1  C   UNL d   1      59.438  -1.469  29.040  0.00  0.00     0.139 A 
ATOM      2  C   UNL d   1      59.383  -0.651  28.947  0.00  0.00     0.120 A 
ATOM      3  C   UNL d   1      58.891  -1.866  29.534  0.00  0.00     0.120 A 
ATOM      4  C   UNL d   1      58.256  -0.627  29.822  0.00  0.00     0.087 A 
ATOM      5  C   UNL d   1      58.301  -1.441  29.923  0.00  0.00     0.045 A 
ATOM      6  C   UNL d   1      58.786  -0.218  29.340  0.00  0.00     0.045 A 
ENDROOT
BRANCH   4   7
ATOM      7  N   UNL d   1      57.660  -0.203  30.217  0.00  0.00    -0.226 NA
BRANCH   7   8
ATOM      8  C   UNL d   1      57.759   0.009  31.004  0.00  0.00     0.169 A 
ATOM      9  C   UNL d   1      57.262  -0.241  31.551  0.00  0.00     0.094 A 
ATOM     10  C   UNL d   1      57.357  -0.038  32.305  0.00  0.00     0.190 A 
ATOM     11  C   UNL d   1      56.152  -0.959  31.887  0.00  0.00     0.128 A 
ATOM     12  N   UNL d   1      56.851  -0.296  32.841  0.00  0.00    -0.128 NA
ATOM     13  N   UNL d   1      57.948   0.414  32.513  0.00  0.00    -0.203 NA
ATOM     14  N   UNL d   1      56.258  -0.748  32.643  0.00  0.00    -0.145 NA
ATOM     15  C   UNL d   1      58.467   0.681  31.973  0.00  0.00     0.202 A 
ATOM     16  N   UNL d   1      58.373   0.478  31.218  0.00  0.00    -0.205 NA
ENDBRANCH   7   8
ENDBRANCH   4   7
BRANCH   3  17
ATOM     17  O   UNL d   1      58.943  -2.692  29.631  0.00  0.00    -0.326 OA
ATOM     18  C   UNL d   1      58.433  -3.191  29.204  0.00  0.00     0.181 C 
ENDBRANCH   3  17
BRANCH   2  19
ATOM     19  O   UNL d   1      59.924  -0.250  28.458  0.00  0.00    -0.326 OA
ATOM     20  C   UNL d   1      59.990   0.580  28.502  0.00  0.00     0.181 C 
ENDBRANCH   2  19
BRANCH   1  21
ATOM     21  O   UNL d   1      60.028  -1.902  28.652  0.00  0.00    -0.324 OA
ATOM     22  C   UNL d   1      60.807  -1.906  28.963  0.00  0.00     0.182 C 
ENDBRANCH   1  21
TORSDOF 5
ENDMDL
MODEL 3
REMARK VINA RESULT:      -1.9      2.329      4.238
REMARK  5 active torsions:
REMARK  status: ('A' for Active; 'I' for Inactive)
REMARK    1  A    between atoms: N_7  and  C_1 
REMARK    2  A    between atoms: O_17  and  C_5 
REMARK    3  A    between atoms: C_10  and  N_7 
REMARK    4  A    between atoms: O_18  and  C_8 
REMARK    5  A    between atoms: O_19  and  C_9 
ROOT
ATOM      1  C   UNL d   1      56.293  -0.228  33.216  0.00  0.00     0.139 A 
ATOM      2  C   UNL d   1      55.918  -0.821  32.782  0.00  0.00     0.120 A 
ATOM      3  C   UNL d   1      57.022   0.083  32.948  0.00  0.00     0.120 A 
ATOM      4  C   UNL d   1      56.981  -0.795  31.831  0.00  0.00     0.087 A 
ATOM      5  C   UNL d   1      57.364  -0.205  32.254  0.00  0.00     0.045 A 
ATOM      6  C   UNL d   1      56.262  -1.114  32.079  0.00  0.00     0.045 A 
ENDROOT
BRANCH   4   7
ATOM      7  N   UNL d   1      57.329  -1.082  31.132  0.00  0.00    -0.226 NA
BRANCH   7   8
ATOM      8  C   UNL d   1      57.565  -0.557  30.545  0.00  0.00     0.169 A 
ATOM      9  C   UNL d   1      58.094  -0.765  30.012  0.00  0.00     0.094 A 
ATOM     10  C   UNL d   1      58.319  -0.262  29.450  0.00  0.00     0.190 A 
ATOM     11  C   UNL d   1      58.940  -1.706  29.505  0.00  0.00     0.128 A 
ATOM     12  N   UNL d   1      58.851  -0.484  28.923  0.00  0.00    -0.128 NA
ATOM     13  N   UNL d   1      58.016   0.448  29.421  0.00  0.00    -0.203 NA
ATOM     14  N   UNL d   1      59.159  -1.191  28.944  0.00  0.00    -0.145 NA
ATOM     15  C   UNL d   1      57.474   0.682  29.955  0.00  0.00     0.202 A 
ATOM     16  N   UNL d   1      57.248   0.179  30.517  0.00  0.00    -0.205 NA
ENDBRANCH   7   8
ENDBRANCH   4   7
BRANCH   3  17
ATOM     17  O   UNL d   1      57.404   0.682  33.383  0.00  0.00    -0.326 OA
ATOM     18  C   UNL d   1      58.162   0.545  33.696  0.00  0.00     0.181 C 
ENDBRANCH   3  17
BRANCH   2  19
ATOM     19  O   UNL d   1      55.193  -1.133  33.044  0.00  0.00    -0.326 OA
ATOM     20  C   UNL d   1      55.037  -1.949  32.963  0.00  0.00     0.181 C 
ENDBRANCH   2  19
BRANCH   1  21
ATOM     21  O   UNL d   1      55.956   0.065  33.914  0.00  0.00    -0.324 OA
ATOM     22  C   UNL d   1      55.232   0.487  33.876  0.00  0.00     0.182 C 
ENDBRANCH   1  21
TORSDOF 5
ENDMDL
MODEL 4
REMARK VINA RESULT:      -1.6      2.190      4.347
REMARK  5 active torsions:
REMARK  status: ('A' for Active; 'I' for Inactive)
REMARK    1  A    between atoms: N_7  and  C_1 
REMARK    2  A    between atoms: O_17  and  C_5 
REMARK    3  A    between atoms: C_10  and  N_7 
REMARK    4  A    between atoms: O_18  and  C_8 
REMARK    5  A    between atoms: O_19  and  C_9 
ROOT
ATOM      1  C   UNL d   1      56.857  -0.260  32.994  0.00  0.00     0.139 A 
ATOM      2  C   UNL d   1      57.457   0.224  32.700  0.00  0.00     0.120 A 
ATOM      3  C   UNL d   1      56.399  -0.719  32.464  0.00  0.00     0.120 A 
ATOM      4  C   UNL d   1      57.149  -0.200  31.373  0.00  0.00     0.087 A 
ATOM      5  C   UNL d   1      56.549  -0.686  31.653  0.00  0.00     0.045 A 
ATOM      6  C   UNL d   1      57.611   0.259  31.879  0.00  0.00     0.045 A 
ENDROOT
BRANCH   4   7
ATOM      7  N   UNL d   1      57.297  -0.170  30.555  0.00  0.00    -0.226 NA
BRANCH   7   8
ATOM      8  C   UNL d   1      57.853  -0.672  30.219  0.00  0.00     0.169 A 
ATOM      9  C   UNL d   1      58.429  -0.392  29.776  0.00  0.00     0.094 A 
ATOM     10  C   UNL d   1      58.962  -0.873  29.454  0.00  0.00     0.190 A 
ATOM     11  C   UNL d   1      59.054   0.677  29.203  0.00  0.00     0.128 A 
ATOM     12  N   UNL d   1      59.533  -0.578  29.011  0.00  0.00    -0.128 NA
ATOM     13  N   UNL d   1      58.918  -1.635  29.575  0.00  0.00    -0.203 NA
ATOM     14  N   UNL d   1      59.584   0.182  28.884  0.00  0.00    -0.145 NA
ATOM     15  C   UNL d   1      58.339  -1.944  30.025  0.00  0.00     0.202 A 
ATOM     16  N   UNL d   1      57.806  -1.463  30.347  0.00  0.00    -0.205 NA
ENDBRANCH   7   8
ENDBRANCH   4   7
BRANCH   3  17
ATOM     17  O   UNL d   1      55.792  -1.209  32.755  0.00  0.00    -0.326 OA
ATOM     18  C   UNL d   1      55.924  -2.027  32.834  0.00  0.00     0.181 C 
ENDBRANCH   3  17
BRANCH   2  19
ATOM     19  O   UNL d   1      57.914   0.682  33.222  0.00  0.00    -0.326 OA
ATOM     20  C   UNL d   1      58.746   0.623  33.210  0.00  0.00     0.181 C 
ENDBRANCH   2  19
BRANCH   1  21
ATOM     21  O   UNL d   1      56.701  -0.298  33.807  0.00  0.00    -0.324 OA
ATOM     22  C   UNL d   1      55.995   0.041  34.106  0.00  0.00     0.182 C 
ENDBRANCH   1  21
TORSDOF 5
ENDMDL
