MODEL 1
REMARK VINA RESULT:      -9.3      0.000      0.000
REMARK  4 active torsions:
REMARK  status: ('A' for Active; 'I' for Inactive)
REMARK    1  A    between atoms: C_3  and  C_14 
REMARK    2  A    between atoms: C_21  and  C_4 
REMARK    3  A    between atoms: S_15  and  C_5 
REMARK    4  A    between atoms: C_14  and  S_15 
ROOT
ATOM      1  C   UNL d   1     -47.194  14.057  22.846  0.00  0.00     0.092 A 
ATOM      2  C   UNL d   1     -46.765  12.731  23.135  0.00  0.00     0.057 A 
ATOM      3  C   UNL d   1     -46.586  13.507  22.933  0.00  0.00     0.016 A 
ATOM      4  C   UNL d   1     -47.979  13.826  22.961  0.00  0.00     0.120 A 
ATOM      5  N   UNL d   1     -48.161  13.057  23.161  0.00  0.00    -0.239 NA
ATOM      6  C   UNL d   1     -47.550  12.500  23.250  0.00  0.00     0.081 A 
ATOM      7  C   UNL d   1     -46.155  12.178  23.223  0.00  0.00     0.193 A 
ATOM      8  C   UNL d   1     -47.017  14.836  22.643  0.00  0.00     0.103 C 
ATOM      9  N   UNL d   1     -46.840  15.617  22.440  0.00  0.00    -0.191 NA
ATOM     10  C   UNL d   1     -47.124  11.164  23.542  0.00  0.00     0.042 A 
ATOM     11  C   UNL d   1     -46.328  11.390  23.427  0.00  0.00     0.019 A 
ATOM     12  C   UNL d   1     -47.737  11.715  23.455  0.00  0.00    -0.003 A 
ATOM     13  O   UNL d   1     -45.370  12.409  23.107  0.00  0.00    -0.287 OA
ATOM     14  C   UNL d   1     -47.809  10.738  23.698  0.00  0.00     0.009 C 
ATOM     15  C   UNL d   1     -46.509  10.618  23.628  0.00  0.00     0.009 C 
ENDROOT
BRANCH   3  16
ATOM     16  C   UNL d   1     -45.801  13.737  22.818  0.00  0.00     0.001 C 
ATOM     17  C   UNL d   1     -45.453  13.621  22.085  0.00  0.00     0.000 C 
ENDBRANCH   3  16
BRANCH   4  18
ATOM     18  S   UNL d   1     -48.585  14.380  22.872  0.00  0.00    -0.067 SA
BRANCH  18  19
ATOM     19  C   UNL d   1     -49.371  14.133  22.899  0.00  0.00     0.041 C 
BRANCH  19  20
ATOM     20  C   UNL d   1     -49.975  14.648  22.677  0.00  0.00     0.051 A 
ATOM     21  C   UNL d   1     -50.174  15.302  22.973  0.00  0.00     0.127 A 
ATOM     22  O   UNL d   1     -50.795  15.684  22.633  0.00  0.00    -0.211 OA
ATOM     23  C   UNL d   1     -50.104  15.861  23.469  0.00  0.00     0.029 C 
ATOM     24  N   UNL d   1     -51.002  15.172  22.034  0.00  0.00    -0.126 NA
ATOM     25  C   UNL d   1     -50.499  14.530  22.057  0.00  0.00     0.111 A 
ATOM     26  C   UNL d   1     -50.511  13.884  21.553  0.00  0.00     0.023 C 
ENDBRANCH  19  20
ENDBRANCH  18  19
ENDBRANCH   4  18
TORSDOF 4
ENDMDL
MODEL 2
REMARK VINA RESULT:      -8.3      1.319      4.659
REMARK  4 active torsions:
REMARK  status: ('A' for Active; 'I' for Inactive)
REMARK    1  A    between atoms: C_3  and  C_14 
REMARK    2  A    between atoms: C_21  and  C_4 
REMARK    3  A    between atoms: S_15  and  C_5 
REMARK    4  A    between atoms: C_14  and  S_15 
ROOT
ATOM      1  C   UNL d   1     -48.887  12.607  22.423  0.00  0.00     0.092 A 
ATOM      2  C   UNL d   1     -49.672  13.776  22.632  0.00  0.00     0.057 A 
ATOM      3  C   UNL d   1     -49.613  12.995  22.381  0.00  0.00     0.016 A 
ATOM      4  C   UNL d   1     -48.224  13.003  22.716  0.00  0.00     0.120 A 
ATOM      5  N   UNL d   1     -48.278  13.777  22.966  0.00  0.00    -0.239 NA
ATOM      6  C   UNL d   1     -49.009  14.171  22.924  0.00  0.00     0.081 A 
ATOM      7  C   UNL d   1     -50.401  14.167  22.590  0.00  0.00     0.193 A 
ATOM      8  C   UNL d   1     -48.825  11.824  22.172  0.00  0.00     0.103 C 
ATOM      9  N   UNL d   1     -48.763  11.040  21.922  0.00  0.00    -0.191 NA
ATOM     10  C   UNL d   1     -49.793  15.351  23.136  0.00  0.00     0.042 A 
ATOM     11  C   UNL d   1     -50.469  14.957  22.841  0.00  0.00     0.019 A 
ATOM     12  C   UNL d   1     -49.062  14.962  23.180  0.00  0.00    -0.003 A 
ATOM     13  O   UNL d   1     -51.064  13.771  22.297  0.00  0.00    -0.287 OA
ATOM     14  C   UNL d   1     -49.280  15.911  23.449  0.00  0.00     0.009 C 
ATOM     15  C   UNL d   1     -50.525  15.734  23.091  0.00  0.00     0.009 C 
ENDROOT
BRANCH   3  16
ATOM     16  C   UNL d   1     -50.276  12.600  22.088  0.00  0.00     0.001 C 
ATOM     17  C   UNL d   1     -50.786  12.231  22.613  0.00  0.00     0.000 C 
ENDBRANCH   3  16
BRANCH   4  18
ATOM     18  S   UNL d   1     -47.499  12.609  22.756  0.00  0.00    -0.067 SA
BRANCH  18  19
ATOM     19  C   UNL d   1     -46.818  13.029  22.960  0.00  0.00     0.041 C 
BRANCH  19  20
ATOM     20  C   UNL d   1     -46.082  12.657  22.945  0.00  0.00     0.051 A 
ATOM     21  C   UNL d   1     -45.864  12.024  23.273  0.00  0.00     0.127 A 
ATOM     22  O   UNL d   1     -45.101  11.797  23.157  0.00  0.00    -0.211 OA
ATOM     23  C   UNL d   1     -45.979  11.416  23.698  0.00  0.00     0.029 C 
ATOM     24  N   UNL d   1     -44.816  12.394  22.681  0.00  0.00    -0.126 NA
ATOM     25  C   UNL d   1     -45.418  12.928  22.547  0.00  0.00     0.111 A 
ATOM     26  C   UNL d   1     -45.372  13.611  22.098  0.00  0.00     0.023 C 
ENDBRANCH  19  20
ENDBRANCH  18  19
ENDBRANCH   4  18
TORSDOF 4
ENDMDL
MODEL 3
REMARK VINA RESULT:      -7.8      1.418      4.119
REMARK  4 active torsions:
REMARK  status: ('A' for Active; 'I' for Inactive)
REMARK    1  A    between atoms: C_3  and  C_14 
REMARK    2  A    between atoms: C_21  and  C_4 
REMARK    3  A    between atoms: S_15  and  C_5 
REMARK    4  A    between atoms: C_14  and  S_15 
ROOT
ATOM      1  C   UNL d   1     -47.924  14.201  22.892  0.00  0.00     0.092 A 
ATOM      2  C   UNL d   1     -49.234  13.729  23.189  0.00  0.00     0.057 A 
ATOM      3  C   UNL d   1     -48.723  14.352  23.027  0.00  0.00     0.016 A 
ATOM      4  C   UNL d   1     -47.640  13.426  22.920  0.00  0.00     0.120 A 
ATOM      5  N   UNL d   1     -48.142  12.805  23.081  0.00  0.00    -0.239 NA
ATOM      6  C   UNL d   1     -48.948  12.954  23.218  0.00  0.00     0.081 A 
ATOM      7  C   UNL d   1     -50.036  13.879  23.325  0.00  0.00     0.193 A 
ATOM      8  C   UNL d   1     -47.410  14.825  22.728  0.00  0.00     0.103 C 
ATOM      9  N   UNL d   1     -46.896  15.450  22.564  0.00  0.00    -0.191 NA
ATOM     10  C   UNL d   1     -50.264  12.472  23.518  0.00  0.00     0.042 A 
ATOM     11  C   UNL d   1     -50.559  13.254  23.491  0.00  0.00     0.019 A 
ATOM     12  C   UNL d   1     -49.460  12.318  23.382  0.00  0.00    -0.003 A 
ATOM     13  O   UNL d   1     -50.320  14.655  23.296  0.00  0.00    -0.287 OA
ATOM     14  C   UNL d   1     -50.195  11.657  23.592  0.00  0.00     0.009 C 
ATOM     15  C   UNL d   1     -51.064  12.631  23.653  0.00  0.00     0.009 C 
ENDROOT
BRANCH   3  16
ATOM     16  C   UNL d   1     -49.008  15.127  22.998  0.00  0.00     0.001 C 
ATOM     17  C   UNL d   1     -49.375  15.394  22.316  0.00  0.00     0.000 C 
ENDBRANCH   3  16
BRANCH   4  18
ATOM     18  S   UNL d   1     -46.838  13.280  22.784  0.00  0.00    -0.067 SA
BRANCH  18  19
ATOM     19  C   UNL d   1     -46.587  12.513  22.615  0.00  0.00     0.041 C 
BRANCH  19  20
ATOM     20  C   UNL d   1     -45.789  12.315  22.677  0.00  0.00     0.051 A 
ATOM     21  C   UNL d   1     -45.201  12.597  22.315  0.00  0.00     0.127 A 
ATOM     22  O   UNL d   1     -44.479  12.289  22.495  0.00  0.00    -0.211 OA
ATOM     23  C   UNL d   1     -44.878  13.062  21.823  0.00  0.00     0.029 C 
ATOM     24  N   UNL d   1     -44.669  11.730  23.057  0.00  0.00    -0.126 NA
ATOM     25  C   UNL d   1     -45.476  11.742  23.173  0.00  0.00     0.111 A 
ATOM     26  C   UNL d   1     -45.901  11.269  23.689  0.00  0.00     0.023 C 
ENDBRANCH  19  20
ENDBRANCH  18  19
ENDBRANCH   4  18
TORSDOF 4
ENDMDL
MODEL 4
REMARK VINA RESULT:      -6.4      1.700      4.756
REMARK  4 active torsions:
REMARK  status: ('A' for Active; 'I' for Inactive)
REMARK    1  A    between atoms: C_3  and  C_14 
REMARK    2  A    between atoms: C_21  and  C_4 
REMARK    3  A    between atoms: S_15  and  C_5 
REMARK    4  A    between atoms: C_14  and  S_15 
ROOT
ATOM      1  C   UNL d   1     -47.658  12.226  23.204  0.00  0.00     0.092 A 
ATOM      2  C   UNL d   1     -48.459  13.387  23.013  0.00  0.00     0.057 A 
ATOM      3  C   UNL d   1     -48.387  12.606  23.259  0.00  0.00     0.016 A 
ATOM      4  C   UNL d   1     -47.004  12.630  22.901  0.00  0.00     0.120 A 
ATOM      5  N   UNL d   1     -47.071  13.405  22.655  0.00  0.00    -0.239 NA
ATOM      6  C   UNL d   1     -47.805  13.791  22.710  0.00  0.00     0.081 A 
ATOM      7  C   UNL d   1     -49.191  13.771  23.068  0.00  0.00     0.193 A 
ATOM      8  C   UNL d   1     -47.583  11.443  23.450  0.00  0.00     0.103 C 
ATOM      9  N   UNL d   1     -47.508  10.659  23.697  0.00  0.00    -0.191 NA
ATOM     10  C   UNL d   1     -48.606  14.962  22.516  0.00  0.00     0.042 A 
ATOM     11  C   UNL d   1     -49.272  14.560  22.821  0.00  0.00     0.019 A 
ATOM     12  C   UNL d   1     -47.871  14.582  22.459  0.00  0.00    -0.003 A 
ATOM     13  O   UNL d   1     -49.845  13.366  23.371  0.00  0.00    -0.287 OA
ATOM     14  C   UNL d   1     -48.104  15.529  22.197  0.00  0.00     0.009 C 
ATOM     15  C   UNL d   1     -49.341  15.338  22.575  0.00  0.00     0.009 C 
ENDROOT
BRANCH   3  16
ATOM     16  C   UNL d   1     -49.041  12.203  23.562  0.00  0.00     0.001 C 
ATOM     17  C   UNL d   1     -49.543  11.811  23.047  0.00  0.00     0.000 C 
ENDBRANCH   3  16
BRANCH   4  18
ATOM     18  S   UNL d   1     -46.275  12.245  22.847  0.00  0.00    -0.067 SA
BRANCH  18  19
ATOM     19  C   UNL d   1     -45.580  12.689  22.828  0.00  0.00     0.041 C 
BRANCH  19  20
ATOM     20  C   UNL d   1     -44.871  12.337  22.597  0.00  0.00     0.051 A 
ATOM     21  C   UNL d   1     -44.543  11.719  22.853  0.00  0.00     0.127 A 
ATOM     22  O   UNL d   1     -43.842  11.510  22.515  0.00  0.00    -0.211 OA
ATOM     23  C   UNL d   1     -44.503  11.118  23.300  0.00  0.00     0.029 C 
ATOM     24  N   UNL d   1     -43.735  12.104  21.967  0.00  0.00    -0.126 NA
ATOM     25  C   UNL d   1     -44.367  12.617  22.014  0.00  0.00     0.111 A 
ATOM     26  C   UNL d   1     -44.482  13.291  21.562  0.00  0.00     0.023 C 
ENDBRANCH  19  20
ENDBRANCH  18  19
ENDBRANCH   4  18
TORSDOF 4
ENDMDL
