MODEL 1
REMARK VINA RESULT:      -7.8      0.000      0.000
REMARK  2 active torsions:
REMARK  status: ('A' for Active; 'I' for Inactive)
REMARK    1  A    between atoms: C_5  and  C_1 
REMARK    2  A    between atoms: N_2  and  C_6 
ROOT
ATOM      1  C   UNL d   1      56.485   0.170  32.428  0.00  0.00     0.077 A 
ATOM      2  C   UNL d   1      56.094  -1.103  32.757  0.00  0.00     0.160 A 
ATOM      3  C   UNL d   1      56.645  -0.599  32.284  0.00  0.00     0.024 A 
ATOM      4  C   UNL d   1      55.920   0.268  32.917  0.00  0.00    -0.014 A 
ATOM      5  C   UNL d   1      55.940   0.679  32.903  0.00  0.00    -0.014 A 
ATOM      6  C   UNL d   1      55.478   0.278  33.299  0.00  0.00    -0.000 A 
ATOM      7  C   UNL d   1      55.351  -0.247  33.406  0.00  0.00    -0.000 A 
ATOM      8  C   UNL d   1      55.660  -0.714  33.136  0.00  0.00     0.038 A 
ATOM      9  C   UNL d   1      55.506  -0.997  33.266  0.00  0.00     0.038 A 
ATOM     10  C   UNL d   1      54.787   0.254  33.897  0.00  0.00    -0.000 A 
ATOM     11  O   UNL d   1      56.258  -1.800  32.610  0.00  0.00    -0.290 OA
ENDROOT
BRANCH   1  12
ATOM     12  C   UNL d   1      57.098   0.278  31.898  0.00  0.00    -0.011 A 
ATOM     13  C   UNL d   1      57.007   0.100  31.102  0.00  0.00    -0.002 A 
ATOM     14  C   UNL d   1      57.637   0.212  30.567  0.00  0.00     0.023 A 
ATOM     15  C   UNL d   1      58.356   0.504  30.849  0.00  0.00     0.127 A 
ATOM     16  C   UNL d   1      58.443   0.681  31.650  0.00  0.00     0.023 A 
ATOM     17  C   UNL d   1      57.803   0.564  32.174  0.00  0.00    -0.002 A 
BRANCH  15  18
ATOM     18  N   UNL d   1      58.990   0.621  30.333  0.00  0.00    -0.114 N 
ATOM     19  O   UNL d   1      59.739   0.680  30.662  0.00  0.00    -0.532 OA
ATOM     20  O   UNL d   1      58.866   0.678  29.487  0.00  0.00    -0.532 OA
ENDBRANCH  15  18
ENDBRANCH   1  12
TORSDOF 2
ENDMDL
MODEL 2
REMARK VINA RESULT:      -7.0      1.197      1.620
REMARK  2 active torsions:
REMARK  status: ('A' for Active; 'I' for Inactive)
REMARK    1  A    between atoms: C_5  and  C_1 
REMARK    2  A    between atoms: N_2  and  C_6 
ROOT
ATOM      1  C   UNL d   1      55.963   0.232  32.957  0.00  0.00     0.077 A 
ATOM      2  C   UNL d   1      56.572   0.550  34.144  0.00  0.00     0.160 A 
ATOM      3  C   UNL d   1      56.680   0.324  33.298  0.00  0.00     0.024 A 
ATOM      4  C   UNL d   1      55.392   0.359  33.433  0.00  0.00    -0.014 A 
ATOM      5  C   UNL d   1      55.102   0.284  33.151  0.00  0.00    -0.014 A 
ATOM      6  C   UNL d   1      54.996   0.470  33.848  0.00  0.00    -0.000 A 
ATOM      7  C   UNL d   1      55.277   0.593  34.305  0.00  0.00    -0.000 A 
ATOM      8  C   UNL d   1      55.898   0.594  34.310  0.00  0.00     0.038 A 
ATOM      9  C   UNL d   1      55.975   0.682  34.637  0.00  0.00     0.038 A 
ATOM     10  C   UNL d   1      54.404   0.650  34.522  0.00  0.00    -0.000 A 
ATOM     11  O   UNL d   1      57.239   0.628  34.434  0.00  0.00    -0.290 OA
ENDROOT
BRANCH   1  12
ATOM     12  C   UNL d   1      56.422   0.058  32.304  0.00  0.00    -0.011 A 
ATOM     13  C   UNL d   1      56.734   0.654  31.833  0.00  0.00    -0.002 A 
ATOM     14  C   UNL d   1      57.202   0.468  31.168  0.00  0.00     0.023 A 
ATOM     15  C   UNL d   1      57.349  -0.324  30.989  0.00  0.00     0.127 A 
ATOM     16  C   UNL d   1      57.034  -0.920  31.465  0.00  0.00     0.023 A 
ATOM     17  C   UNL d   1      56.567  -0.718  32.128  0.00  0.00    -0.002 A 
BRANCH  15  18
ATOM     18  N   UNL d   1      57.810  -0.525  30.334  0.00  0.00    -0.114 N 
ATOM     19  O   UNL d   1      58.007  -1.316  30.240  0.00  0.00    -0.532 OA
ATOM     20  O   UNL d   1      58.071   0.071  29.778  0.00  0.00    -0.532 OA
ENDBRANCH  15  18
ENDBRANCH   1  12
TORSDOF 2
ENDMDL
MODEL 3
REMARK VINA RESULT:      -6.8      2.054      3.665
REMARK  2 active torsions:
REMARK  status: ('A' for Active; 'I' for Inactive)
REMARK    1  A    between atoms: C_5  and  C_1 
REMARK    2  A    between atoms: N_2  and  C_6 
ROOT
ATOM      1  C   UNL d   1      56.552   0.175  32.415  0.00  0.00     0.077 A 
ATOM      2  C   UNL d   1      56.692  -1.083  31.885  0.00  0.00     0.160 A 
ATOM      3  C   UNL d   1      56.332  -0.586  32.520  0.00  0.00     0.024 A 
ATOM      4  C   UNL d   1      56.999   0.272  31.816  0.00  0.00    -0.014 A 
ATOM      5  C   UNL d   1      57.036   0.678  31.873  0.00  0.00    -0.014 A 
ATOM      6  C   UNL d   1      57.341   0.283  31.342  0.00  0.00    -0.000 A 
ATOM      7  C   UNL d   1      57.373  -0.236  31.159  0.00  0.00    -0.000 A 
ATOM      8  C   UNL d   1      57.076  -0.698  31.451  0.00  0.00     0.038 A 
ATOM      9  C   UNL d   1      57.159  -0.977  31.262  0.00  0.00     0.038 A 
ATOM     10  C   UNL d   1      57.870   0.261  30.596  0.00  0.00    -0.000 A 
ATOM     11  O   UNL d   1      56.478  -1.772  32.002  0.00  0.00    -0.290 OA
ENDROOT
BRANCH   1  12
ATOM     12  C   UNL d   1      56.094   0.280  33.083  0.00  0.00    -0.011 A 
ATOM     13  C   UNL d   1      55.274   0.262  33.042  0.00  0.00    -0.002 A 
ATOM     14  C   UNL d   1      54.812   0.370  33.729  0.00  0.00     0.023 A 
ATOM     15  C   UNL d   1      55.191   0.496  34.451  0.00  0.00     0.127 A 
ATOM     16  C   UNL d   1      56.015   0.513  34.488  0.00  0.00     0.023 A 
ATOM     17  C   UNL d   1      56.464   0.403  33.792  0.00  0.00    -0.002 A 
BRANCH  15  18
ATOM     18  N   UNL d   1      54.749   0.605  35.140  0.00  0.00    -0.114 N 
ATOM     19  O   UNL d   1      55.158   0.636  35.850  0.00  0.00    -0.532 OA
ATOM     20  O   UNL d   1      53.896   0.681  35.111  0.00  0.00    -0.532 OA
ENDBRANCH  15  18
ENDBRANCH   1  12
TORSDOF 2
ENDMDL
MODEL 4
REMARK VINA RESULT:      -5.2      1.459      3.875
REMARK  2 active torsions:
REMARK  status: ('A' for Active; 'I' for Inactive)
REMARK    1  A    between atoms: C_5  and  C_1 
REMARK    2  A    between atoms: N_2  and  C_6 
ROOT
ATOM      1  C   UNL d   1      57.679   0.209  30.847  0.00  0.00     0.077 A 
ATOM      2  C   UNL d   1      58.956   0.570  31.192  0.00  0.00     0.160 A 
ATOM      3  C   UNL d   1      58.154   0.337  31.477  0.00  0.00     0.024 A 
ATOM      4  C   UNL d   1      58.028   0.317  30.187  0.00  0.00    -0.014 A 
ATOM      5  C   UNL d   1      57.695   0.225  29.963  0.00  0.00    -0.014 A 
ATOM      6  C   UNL d   1      58.352   0.416  29.712  0.00  0.00    -0.000 A 
ATOM      7  C   UNL d   1      58.854   0.557  29.890  0.00  0.00    -0.000 A 
ATOM      8  C   UNL d   1      58.983   0.587  30.497  0.00  0.00     0.038 A 
ATOM      9  C   UNL d   1      59.316   0.682  30.503  0.00  0.00     0.038 A 
ATOM     10  C   UNL d   1      58.890   0.579  28.990  0.00  0.00    -0.000 A 
ATOM     11  O   UNL d   1      59.372   0.682  31.783  0.00  0.00    -0.290 OA
ENDROOT
BRANCH   1  12
ATOM     12  C   UNL d   1      57.135   0.047  31.435  0.00  0.00    -0.011 A 
ATOM     13  C   UNL d   1      56.932  -0.726  31.623  0.00  0.00    -0.002 A 
ATOM     14  C   UNL d   1      56.377  -0.885  32.224  0.00  0.00     0.023 A 
ATOM     15  C   UNL d   1      56.032  -0.254  32.630  0.00  0.00     0.127 A 
ATOM     16  C   UNL d   1      56.239   0.521  32.438  0.00  0.00     0.023 A 
ATOM     17  C   UNL d   1      56.797   0.665  31.833  0.00  0.00    -0.002 A 
BRANCH  15  18
ATOM     18  N   UNL d   1      55.480  -0.394  33.228  0.00  0.00    -0.114 N 
ATOM     19  O   UNL d   1      55.266  -1.173  33.369  0.00  0.00    -0.532 OA
ATOM     20  O   UNL d   1      55.146   0.252  33.681  0.00  0.00    -0.532 OA
ENDBRANCH  15  18
ENDBRANCH   1  12
TORSDOF 2
ENDMDL
