MODEL 1
REMARK VINA RESULT:      -8.5      0.000      0.000
REMARK  3 active torsions:
REMARK  status: ('A' for Active; 'I' for Inactive)
REMARK    1  A    between atoms: C_8  and  N_1 
REMARK    2  A    between atoms: C_2  and  C_7 
REMARK    3  A    between atoms: C_7  and  C_9 
ROOT
ATOM      1  N   UNL d   1     -46.660  12.939  22.808  0.00  0.00    -0.242 N 
ATOM      2  C   UNL d   1     -46.687  13.704  23.142  0.00  0.00     0.267 A 
ATOM      3  C   UNL d   1     -47.291  12.877  22.277  0.00  0.00     0.267 A 
ATOM      4  C   UNL d   1     -47.707  13.593  22.279  0.00  0.00     0.062 A 
ATOM      5  C   UNL d   1     -47.335  14.103  22.813  0.00  0.00     0.066 A 
ATOM      6  O   UNL d   1     -46.160  14.001  23.698  0.00  0.00    -0.267 OA
ATOM      7  O   UNL d   1     -47.472  12.209  21.823  0.00  0.00    -0.267 OA
ENDROOT
BRANCH   4   8
ATOM      8  C   UNL d   1     -48.376  13.765  21.829  0.00  0.00     0.018 C 
BRANCH   8   9
ATOM      9  C   UNL d   1     -48.959  14.159  22.250  0.00  0.00     0.045 A 
ATOM     10  N   UNL d   1     -48.991  14.966  22.396  0.00  0.00    -0.308 N 
ATOM     11  C   UNL d   1     -49.663  15.127  22.836  0.00  0.00     0.060 A 
ATOM     12  C   UNL d   1     -48.436  15.523  22.140  0.00  0.00     0.099 C 
ATOM     13  C   UNL d   1     -49.971  15.825  23.135  0.00  0.00     0.017 A 
ATOM     14  C   UNL d   1     -50.054  14.416  22.967  0.00  0.00    -0.002 A 
ATOM     15  C   UNL d   1     -50.676  15.815  23.570  0.00  0.00     0.002 A 
ATOM     16  C   UNL d   1     -51.064  15.095  23.698  0.00  0.00    -0.000 A 
ATOM     17  C   UNL d   1     -50.756  14.402  23.399  0.00  0.00    -0.003 A 
ATOM     18  C   UNL d   1     -49.618  13.814  22.604  0.00  0.00     0.054 A 
ATOM     19  C   UNL d   1     -50.313  13.597  23.000  0.00  0.00     0.010 C 
ATOM     20  C   UNL d   1     -49.853  13.018  22.625  0.00  0.00     0.010 C 
ENDBRANCH   8   9
ENDBRANCH   4   8
BRANCH   1  21
ATOM     21  C   UNL d   1     -46.110  12.356  22.973  0.00  0.00     0.070 A 
ATOM     22  C   UNL d   1     -45.370  12.358  22.599  0.00  0.00     0.016 A 
ATOM     23  C   UNL d   1     -44.822  11.766  22.772  0.00  0.00     0.001 A 
ATOM     24  C   UNL d   1     -45.184  12.942  22.062  0.00  0.00     0.001 A 
ATOM     25  C   UNL d   1     -44.090  11.767  22.402  0.00  0.00     0.000 A 
ATOM     26  C   UNL d   1     -45.007  11.176  23.313  0.00  0.00     0.000 A 
ATOM     27  C   UNL d   1     -43.899  12.352  21.862  0.00  0.00     0.000 A 
ATOM     28  C   UNL d   1     -44.451  12.943  21.691  0.00  0.00     0.000 A 
ATOM     29  C   UNL d   1     -45.747  11.175  23.687  0.00  0.00     0.002 A 
ATOM     30  C   UNL d   1     -46.298  11.763  23.518  0.00  0.00     0.018 A 
ENDBRANCH   1  21
TORSDOF 3
ENDMDL
MODEL 2
REMARK VINA RESULT:      -8.4      1.686      4.883
REMARK  3 active torsions:
REMARK  status: ('A' for Active; 'I' for Inactive)
REMARK    1  A    between atoms: C_8  and  N_1 
REMARK    2  A    between atoms: C_2  and  C_7 
REMARK    3  A    between atoms: C_7  and  C_9 
ROOT
ATOM      1  N   UNL d   1     -48.630  12.143  23.025  0.00  0.00    -0.242 N 
ATOM      2  C   UNL d   1     -48.162  11.491  22.797  0.00  0.00     0.267 A 
ATOM      3  C   UNL d   1     -48.131  12.694  23.388  0.00  0.00     0.267 A 
ATOM      4  C   UNL d   1     -47.361  12.390  23.388  0.00  0.00     0.062 A 
ATOM      5  C   UNL d   1     -47.380  11.648  23.024  0.00  0.00     0.066 A 
ATOM      6  O   UNL d   1     -48.434  10.816  22.417  0.00  0.00    -0.267 OA
ATOM      7  O   UNL d   1     -48.369  13.424  23.698  0.00  0.00    -0.267 OA
ENDROOT
BRANCH   4   8
ATOM      8  C   UNL d   1     -46.694  12.763  23.698  0.00  0.00     0.018 C 
BRANCH   8   9
ATOM      9  C   UNL d   1     -46.038  12.713  23.209  0.00  0.00     0.045 A 
ATOM     10  N   UNL d   1     -45.508  12.087  23.169  0.00  0.00    -0.308 N 
ATOM     11  C   UNL d   1     -44.936  12.261  22.610  0.00  0.00     0.060 A 
ATOM     12  C   UNL d   1     -45.548  11.395  23.621  0.00  0.00     0.099 C 
ATOM     13  C   UNL d   1     -44.282  11.846  22.344  0.00  0.00     0.017 A 
ATOM     14  C   UNL d   1     -45.108  13.001  22.297  0.00  0.00    -0.002 A 
ATOM     15  C   UNL d   1     -43.793  12.171  21.759  0.00  0.00     0.002 A 
ATOM     16  C   UNL d   1     -43.973  12.916  21.448  0.00  0.00    -0.000 A 
ATOM     17  C   UNL d   1     -44.625  13.328  21.714  0.00  0.00    -0.003 A 
ATOM     18  C   UNL d   1     -45.792  13.282  22.667  0.00  0.00     0.054 A 
ATOM     19  C   UNL d   1     -45.441  13.768  22.093  0.00  0.00     0.010 C 
ATOM     20  C   UNL d   1     -46.127  14.020  22.484  0.00  0.00     0.010 C 
ENDBRANCH   8   9
ENDBRANCH   4   8
BRANCH   1  21
ATOM     21  C   UNL d   1     -49.436  12.225  22.910  0.00  0.00     0.070 A 
ATOM     22  C   UNL d   1     -49.727  12.642  22.256  0.00  0.00     0.016 A 
ATOM     23  C   UNL d   1     -50.542  12.720  22.148  0.00  0.00     0.001 A 
ATOM     24  C   UNL d   1     -49.212  12.975  21.719  0.00  0.00     0.001 A 
ATOM     25  C   UNL d   1     -50.830  13.133  21.500  0.00  0.00     0.000 A 
ATOM     26  C   UNL d   1     -51.063  12.385  22.686  0.00  0.00     0.000 A 
ATOM     27  C   UNL d   1     -50.315  13.469  20.959  0.00  0.00     0.000 A 
ATOM     28  C   UNL d   1     -49.500  13.389  21.071  0.00  0.00     0.000 A 
ATOM     29  C   UNL d   1     -50.772  11.968  23.341  0.00  0.00     0.002 A 
ATOM     30  C   UNL d   1     -49.961  11.887  23.454  0.00  0.00     0.018 A 
ENDBRANCH   1  21
TORSDOF 3
ENDMDL
MODEL 3
REMARK VINA RESULT:      -6.2      8.902     10.073
REMARK  3 active torsions:
REMARK  status: ('A' for Active; 'I' for Inactive)
REMARK    1  A    between atoms: C_8  and  N_1 
REMARK    2  A    between atoms: C_2  and  C_7 
REMARK    3  A    between atoms: C_7  and  C_9 
ROOT
ATOM      1  N   UNL d   1     -38.985  14.933  20.536  0.00  0.00    -0.242 N 
ATOM      2  C   UNL d   1     -38.547  15.407  20.007  0.00  0.00     0.267 A 
ATOM      3  C   UNL d   1     -39.537  14.506  20.091  0.00  0.00     0.267 A 
ATOM      4  C   UNL d   1     -39.445  14.710  19.294  0.00  0.00     0.062 A 
ATOM      5  C   UNL d   1     -38.834  15.266  19.242  0.00  0.00     0.066 A 
ATOM      6  O   UNL d   1     -37.941  15.920  20.215  0.00  0.00    -0.267 OA
ATOM      7  O   UNL d   1     -40.085  13.967  20.397  0.00  0.00    -0.267 OA
ENDROOT
BRANCH   4   8
ATOM      8  C   UNL d   1     -39.885  14.412  18.664  0.00  0.00     0.018 C 
BRANCH   8   9
ATOM      9  C   UNL d   1     -39.439  14.290  17.987  0.00  0.00     0.045 A 
ATOM     10  N   UNL d   1     -39.232  14.860  17.433  0.00  0.00    -0.308 N 
ATOM     11  C   UNL d   1     -38.787  14.505  16.844  0.00  0.00     0.060 A 
ATOM     12  C   UNL d   1     -39.440  15.660  17.466  0.00  0.00     0.099 C 
ATOM     13  C   UNL d   1     -38.438  14.800  16.164  0.00  0.00     0.017 A 
ATOM     14  C   UNL d   1     -38.715  13.708  17.030  0.00  0.00    -0.002 A 
ATOM     15  C   UNL d   1     -38.012  14.296  15.663  0.00  0.00     0.002 A 
ATOM     16  C   UNL d   1     -37.944  13.494  15.857  0.00  0.00    -0.000 A 
ATOM     17  C   UNL d   1     -38.292  13.202  16.534  0.00  0.00    -0.003 A 
ATOM     18  C   UNL d   1     -39.119  13.573  17.738  0.00  0.00     0.054 A 
ATOM     19  C   UNL d   1     -38.747  12.923  17.381  0.00  0.00     0.010 C 
ATOM     20  C   UNL d   1     -39.161  12.823  18.093  0.00  0.00     0.010 C 
ENDBRANCH   8   9
ENDBRANCH   4   8
BRANCH   1  21
ATOM     21  C   UNL d   1     -38.889  14.896  21.348  0.00  0.00     0.070 A 
ATOM     22  C   UNL d   1     -38.594  14.209  21.705  0.00  0.00     0.016 A 
ATOM     23  C   UNL d   1     -38.501  14.180  22.525  0.00  0.00     0.001 A 
ATOM     24  C   UNL d   1     -38.397  13.562  21.249  0.00  0.00     0.001 A 
ATOM     25  C   UNL d   1     -38.209  13.499  22.878  0.00  0.00     0.000 A 
ATOM     26  C   UNL d   1     -38.698  14.830  22.986  0.00  0.00     0.000 A 
ATOM     27  C   UNL d   1     -38.010  12.848  22.424  0.00  0.00     0.000 A 
ATOM     28  C   UNL d   1     -38.105  12.881  21.603  0.00  0.00     0.000 A 
ATOM     29  C   UNL d   1     -38.993  15.517  22.628  0.00  0.00     0.002 A 
ATOM     30  C   UNL d   1     -39.089  15.552  21.811  0.00  0.00     0.018 A 
ENDBRANCH   1  21
TORSDOF 3
ENDMDL
MODEL 4
REMARK VINA RESULT:      -5.8      7.551     10.580
REMARK  3 active torsions:
REMARK  status: ('A' for Active; 'I' for Inactive)
REMARK    1  A    between atoms: C_8  and  N_1 
REMARK    2  A    between atoms: C_2  and  C_7 
REMARK    3  A    between atoms: C_7  and  C_9 
ROOT
ATOM      1  N   UNL d   1     -39.801  14.769  19.030  0.00  0.00    -0.242 N 
ATOM      2  C   UNL d   1     -40.094  14.419  18.331  0.00  0.00     0.267 A 
ATOM      3  C   UNL d   1     -38.993  14.906  18.920  0.00  0.00     0.267 A 
ATOM      4  C   UNL d   1     -38.783  14.645  18.163  0.00  0.00     0.062 A 
ATOM      5  C   UNL d   1     -39.463  14.345  17.799  0.00  0.00     0.066 A 
ATOM      6  O   UNL d   1     -40.872  14.192  18.201  0.00  0.00    -0.267 OA
ATOM      7  O   UNL d   1     -38.484  15.246  19.477  0.00  0.00    -0.267 OA
ENDROOT
BRANCH   4   8
ATOM      8  C   UNL d   1     -38.029  14.679  17.831  0.00  0.00     0.018 C 
BRANCH   8   9
ATOM      9  C   UNL d   1     -38.017  14.485  17.034  0.00  0.00     0.045 A 
ATOM     10  N   UNL d   1     -38.036  15.013  16.406  0.00  0.00    -0.308 N 
ATOM     11  C   UNL d   1     -38.014  14.589  15.705  0.00  0.00     0.060 A 
ATOM     12  C   UNL d   1     -38.071  15.837  16.471  0.00  0.00     0.099 C 
ATOM     13  C   UNL d   1     -38.019  14.823  14.920  0.00  0.00     0.017 A 
ATOM     14  C   UNL d   1     -37.981  13.791  15.896  0.00  0.00    -0.002 A 
ATOM     15  C   UNL d   1     -37.992  14.255  14.317  0.00  0.00     0.002 A 
ATOM     16  C   UNL d   1     -37.959  13.453  14.517  0.00  0.00    -0.000 A 
ATOM     17  C   UNL d   1     -37.954  13.222  15.299  0.00  0.00    -0.003 A 
ATOM     18  C   UNL d   1     -37.983  13.725  16.720  0.00  0.00     0.054 A 
ATOM     19  C   UNL d   1     -37.951  13.022  16.280  0.00  0.00     0.010 C 
ATOM     20  C   UNL d   1     -37.954  12.992  17.109  0.00  0.00     0.010 C 
ENDBRANCH   8   9
ENDBRANCH   4   8
BRANCH   1  21
ATOM     21  C   UNL d   1     -40.233  14.946  19.702  0.00  0.00     0.070 A 
ATOM     22  C   UNL d   1     -40.147  14.489  20.389  0.00  0.00     0.016 A 
ATOM     23  C   UNL d   1     -40.586  14.675  21.062  0.00  0.00     0.001 A 
ATOM     24  C   UNL d   1     -39.630  13.858  20.400  0.00  0.00     0.001 A 
ATOM     25  C   UNL d   1     -40.501  14.223  21.742  0.00  0.00     0.000 A 
ATOM     26  C   UNL d   1     -41.107  15.309  21.054  0.00  0.00     0.000 A 
ATOM     27  C   UNL d   1     -39.983  13.589  21.757  0.00  0.00     0.000 A 
ATOM     28  C   UNL d   1     -39.545  13.406  21.080  0.00  0.00     0.000 A 
ATOM     29  C   UNL d   1     -41.193  15.765  20.367  0.00  0.00     0.002 A 
ATOM     30  C   UNL d   1     -40.757  15.585  19.692  0.00  0.00     0.018 A 
ENDBRANCH   1  21
TORSDOF 3
ENDMDL
