MODEL 1
REMARK VINA RESULT:      43.1      0.000      0.000
REMARK  4 active torsions:
REMARK  status: ('A' for Active; 'I' for Inactive)
REMARK    1  A    between atoms: N_2  and  S_1 
REMARK    2  A    between atoms: C_5  and  S_1 
REMARK    3  A    between atoms: C_4  and  C_3 
REMARK    4  A    between atoms: C_12  and  C_3 
ROOT
ATOM      1  N   UNL d   1      14.346  13.189  -1.960  0.00  0.00    -0.230 N 
ATOM      2  C   UNL d   1      14.842  14.642  -1.354  0.00  0.00     0.137 A 
ATOM      3  C   UNL d   1      14.569  14.582  -2.124  0.00  0.00     0.011 A 
ATOM      4  C   UNL d   1      14.866  13.964  -0.883  0.00  0.00     0.011 A 
ATOM      5  C   UNL d   1      14.618  13.238  -1.186  0.00  0.00     0.088 A 
ATOM      6  C   UNL d   1      14.322  13.855  -2.426  0.00  0.00     0.088 A 
ENDROOT
BRANCH   1   7
ATOM      7  S   UNL d   1      14.099  12.463  -2.262  0.00  0.00     0.271 S 
ATOM      8  O   UNL d   1      14.182  11.779  -1.812  0.00  0.00    -0.200 OA
ATOM      9  O   UNL d   1      14.395  12.300  -1.513  0.00  0.00    -0.200 OA
BRANCH   7  10
ATOM     10  C   UNL d   1      13.768  12.421  -3.015  0.00  0.00     0.104 A 
ATOM     11  C   UNL d   1      14.002  11.834  -3.533  0.00  0.00     0.013 A 
ATOM     12  C   UNL d   1      13.674  11.786  -4.291  0.00  0.00     0.001 A 
ATOM     13  C   UNL d   1      13.100  12.346  -4.522  0.00  0.00     0.000 A 
ATOM     14  C   UNL d   1      12.869  12.936  -3.994  0.00  0.00     0.001 A 
ATOM     15  C   UNL d   1      12.772  12.298  -5.280  0.00  0.00     0.000 C 
ATOM     16  C   UNL d   1      13.202  12.972  -3.246  0.00  0.00     0.013 A 
ENDBRANCH   7  10
ENDBRANCH   1   7
BRANCH   2  17
ATOM     17  C   UNL d   1      15.057  14.413  -0.582  0.00  0.00     0.196 C 
ATOM     18  O   UNL d   1      14.486  14.273  -0.014  0.00  0.00    -0.647 OA
ATOM     19  O   UNL d   1      15.857  14.327  -0.393  0.00  0.00    -0.647 OA
ENDBRANCH   2  17
BRANCH   2  20
ATOM     20  C   UNL d   1      15.039  15.435  -1.239  0.00  0.00    -0.005 A 
ATOM     21  C   UNL d   1      14.992  15.954  -1.876  0.00  0.00    -0.003 A 
ATOM     22  C   UNL d   1      15.188  16.751  -1.769  0.00  0.00    -0.000 A 
ATOM     23  C   UNL d   1      15.431  17.026  -1.026  0.00  0.00    -0.000 A 
ATOM     24  C   UNL d   1      15.476  16.494  -0.391  0.00  0.00    -0.000 A 
ATOM     25  C   UNL d   1      15.281  15.708  -0.503  0.00  0.00    -0.003 A 
ENDBRANCH   2  20
TORSDOF 4
ENDMDL
