MODEL 1
REMARK VINA RESULT:      54.7      0.000      0.000
REMARK  3 active torsions:
REMARK  status: ('A' for Active; 'I' for Inactive)
REMARK    1  A    between atoms: C_4  and  S_1 
REMARK    2  A    between atoms: N_7  and  S_1 
REMARK    3  A    between atoms: C_14  and  N_7 
ROOT
ATOM      1  S   UNL d   1     -50.931  26.741  33.358  0.00  0.00     0.285 S 
ATOM      2  O   UNL d   1     -50.230  26.335  33.307  0.00  0.00    -0.198 OA
ATOM      3  O   UNL d   1     -51.660  27.180  33.413  0.00  0.00    -0.198 OA
ENDROOT
BRANCH   1   4
ATOM      4  C   UNL d   1     -51.363  26.023  33.346  0.00  0.00     0.105 A 
ATOM      5  C   UNL d   1     -52.169  26.042  33.321  0.00  0.00     0.012 A 
ATOM      6  C   UNL d   1     -52.600  25.310  33.310  0.00  0.00     0.001 A 
ATOM      7  C   UNL d   1     -52.595  26.779  33.306  0.00  0.00     0.001 C 
ATOM      8  C   UNL d   1     -52.232  24.603  33.323  0.00  0.00     0.000 A 
ATOM      9  C   UNL d   1     -51.359  24.583  33.350  0.00  0.00     0.001 A 
ATOM     10  C   UNL d   1     -52.719  23.939  33.309  0.00  0.00     0.000 C 
ATOM     11  C   UNL d   1     -50.965  25.272  33.361  0.00  0.00     0.013 A 
ENDBRANCH   1   4
BRANCH   1  12
ATOM     12  N   UNL d   1     -50.531  27.456  33.372  0.00  0.00    -0.158 NA
BRANCH  12  13
ATOM     13  C   UNL d   1     -49.975  27.648  33.996  0.00  0.00     0.094 A 
ATOM     14  C   UNL d   1     -49.511  28.323  33.964  0.00  0.00     0.029 A 
ATOM     15  C   UNL d   1     -48.988  28.504  34.552  0.00  0.00     0.059 A 
ATOM     16  S   UNL d   1     -48.461  29.152  34.642  0.00  0.00    -0.018 SA
ATOM     17  C   UNL d   1     -48.905  28.018  35.197  0.00  0.00     0.110 A 
ATOM     18  C   UNL d   1     -48.088  28.997  35.367  0.00  0.00     0.332 A 
ATOM     19  O   UNL d   1     -47.497  29.534  35.674  0.00  0.00    -0.251 OA
ATOM     20  O   UNL d   1     -48.335  28.344  35.698  0.00  0.00    -0.268 OA
ATOM     21  C   UNL d   1     -49.341  27.353  35.260  0.00  0.00     0.027 A 
ATOM     22  C   UNL d   1     -49.892  27.136  34.669  0.00  0.00     0.022 A 
ENDBRANCH  12  13
ENDBRANCH   1  12
TORSDOF 3
ENDMDL
