MODEL 1
REMARK VINA RESULT:      56.2      0.000      0.000
REMARK  5 active torsions:
REMARK  status: ('A' for Active; 'I' for Inactive)
REMARK    1  A    between atoms: C_11  and  C_1 
REMARK    2  A    between atoms: C_14  and  N_4 
REMARK    3  A    between atoms: C_5  and  S_12 
REMARK    4  A    between atoms: C_16  and  C_11 
REMARK    5  A    between atoms: S_12  and  C_16 
ROOT
ATOM      1  C   UNL d   1     -50.235  26.797  33.710  0.00  0.00     0.057 A 
ATOM      2  C   UNL d   1     -50.312  25.968  33.694  0.00  0.00     0.067 A 
ATOM      3  N   UNL d   1     -51.093  25.791  33.544  0.00  0.00    -0.306 N 
ATOM      4  C   UNL d   1     -51.520  26.504  33.464  0.00  0.00     0.064 A 
ATOM      5  C   UNL d   1     -50.972  27.122  33.570  0.00  0.00     0.022 A 
ATOM      6  C   UNL d   1     -49.684  25.398  33.813  0.00  0.00     0.019 C 
ATOM      7  C   UNL d   1     -52.335  26.582  33.309  0.00  0.00     0.019 C 
ENDROOT
BRANCH   1   8
ATOM      8  C   UNL d   1     -49.496  27.127  33.852  0.00  0.00     0.204 C 
ATOM      9  O   UNL d   1     -48.830  26.700  33.649  0.00  0.00    -0.286 OA
BRANCH   8  10
ATOM     10  C   UNL d   1     -49.426  27.879  34.194  0.00  0.00     0.080 C 
BRANCH  10  11
ATOM     11  S   UNL d   1     -48.706  28.268  34.199  0.00  0.00    -0.044 SA
BRANCH  11  12
ATOM     12  C   UNL d   1     -48.393  28.567  34.906  0.00  0.00     0.201 A 
ATOM     13  N   UNL d   1     -48.077  29.306  35.046  0.00  0.00    -0.268 N 
ATOM     14  C   UNL d   1     -47.837  29.341  35.842  0.00  0.00     0.171 A 
ATOM     15  C   UNL d   1     -47.968  29.977  34.550  0.00  0.00     0.084 A 
ATOM     16  C   UNL d   1     -47.490  30.041  36.141  0.00  0.00     0.039 A 
ATOM     17  N   UNL d   1     -48.011  28.619  36.177  0.00  0.00    -0.128 NA
ATOM     18  C   UNL d   1     -47.383  30.698  35.655  0.00  0.00     0.005 A 
ATOM     19  C   UNL d   1     -47.623  30.657  34.869  0.00  0.00     0.019 A 
ATOM     20  N   UNL d   1     -48.346  28.153  35.612  0.00  0.00    -0.121 NA
ENDBRANCH  11  12
ENDBRANCH  10  11
ENDBRANCH   8  10
ENDBRANCH   1   8
BRANCH   3  21
ATOM     21  C   UNL d   1     -51.491  25.062  33.467  0.00  0.00     0.064 A 
ATOM     22  C   UNL d   1     -51.060  24.362  33.389  0.00  0.00     0.018 A 
ATOM     23  C   UNL d   1     -51.453  23.643  33.313  0.00  0.00     0.002 A 
ATOM     24  C   UNL d   1     -52.268  23.620  33.313  0.00  0.00     0.000 A 
ATOM     25  C   UNL d   1     -52.706  24.323  33.391  0.00  0.00     0.002 A 
ATOM     26  C   UNL d   1     -52.309  25.035  33.467  0.00  0.00     0.018 A 
ENDBRANCH   3  21
TORSDOF 5
ENDMDL
