MODEL 1
REMARK VINA RESULT:      -9.9      0.000      0.000
REMARK  3 active torsions:
REMARK  status: ('A' for Active; 'I' for Inactive)
REMARK    1  A    between atoms: C_4  and  C_1 
REMARK    2  A    between atoms: C_9  and  N_2 
REMARK    3  A    between atoms: C_8  and  C_13 
ROOT
ATOM      1  N   UNL d   1      52.640  33.031  53.369  0.00  0.00    -0.273 N 
ATOM      2  C   UNL d   1      51.384  33.374  53.021  0.00  0.00     0.056 A 
ATOM      3  C   UNL d   1      52.216  32.333  53.201  0.00  0.00     0.265 A 
ATOM      4  C   UNL d   1      52.127  33.665  53.258  0.00  0.00     0.086 A 
ATOM      5  C   UNL d   1      51.448  32.544  52.989  0.00  0.00     0.066 A 
ATOM      6  O   UNL d   1      52.524  31.564  53.244  0.00  0.00    -0.267 OA
ENDROOT
BRANCH   1   7
ATOM      7  C   UNL d   1      53.417  33.037  53.598  0.00  0.00     0.067 A 
ATOM      8  C   UNL d   1      53.610  33.171  54.382  0.00  0.00     0.021 A 
ATOM      9  C   UNL d   1      54.404  33.180  54.632  0.00  0.00     0.073 A 
ATOM     10  C   UNL d   1      55.011  33.050  54.070  0.00  0.00     0.004 A 
ATOM     11  C   UNL d   1      54.817  32.915  53.286  0.00  0.00     0.001 A 
ATOM     12  C   UNL d   1      54.020  32.909  53.046  0.00  0.00     0.018 A 
BRANCH   9  13
ATOM     13  C   UNL d   1      54.580  33.315  55.413  0.00  0.00     0.419 C 
ATOM     14  F   UNL d   1      54.758  33.447  56.221  0.00  0.00    -0.166 F 
ATOM     15  F   UNL d   1      54.848  34.068  55.231  0.00  0.00    -0.166 F 
ATOM     16  F   UNL d   1      54.312  32.557  55.614  0.00  0.00    -0.166 F 
ENDBRANCH   9  13
ENDBRANCH   1   7
BRANCH   2  17
ATOM     17  C   UNL d   1      50.744  33.860  52.863  0.00  0.00     0.142 A 
ATOM     18  N   UNL d   1      50.360  33.988  52.176  0.00  0.00    -0.227 NA
ATOM     19  C   UNL d   1      49.747  34.533  52.310  0.00  0.00     0.099 A 
ATOM     20  C   UNL d   1      49.188  34.856  51.808  0.00  0.00     0.021 A 
ATOM     21  C   UNL d   1      49.767  34.733  53.102  0.00  0.00     0.076 A 
ATOM     22  C   UNL d   1      48.637  35.398  52.119  0.00  0.00     0.002 A 
ATOM     23  C   UNL d   1      48.658  35.599  52.912  0.00  0.00     0.002 A 
ATOM     24  C   UNL d   1      49.230  35.264  53.416  0.00  0.00     0.019 A 
ATOM     25  N   UNL d   1      50.393  34.311  53.448  0.00  0.00    -0.338 N 
ATOM     26  H   UNL d   1      50.626  34.339  54.253  0.00  0.00     0.167 HD
ENDBRANCH   2  17
TORSDOF 3
ENDMDL
MODEL 2
REMARK VINA RESULT:      -9.9      1.605      2.087
REMARK  3 active torsions:
REMARK  status: ('A' for Active; 'I' for Inactive)
REMARK    1  A    between atoms: C_4  and  C_1 
REMARK    2  A    between atoms: C_9  and  N_2 
REMARK    3  A    between atoms: C_8  and  C_13 
ROOT
ATOM      1  N   UNL d   1      52.391  33.226  53.378  0.00  0.00    -0.273 N 
ATOM      2  C   UNL d   1      51.316  34.001  53.134  0.00  0.00     0.056 A 
ATOM      3  C   UNL d   1      52.388  33.849  53.932  0.00  0.00     0.265 A 
ATOM      4  C   UNL d   1      51.734  33.322  52.893  0.00  0.00     0.086 A 
ATOM      5  C   UNL d   1      51.730  34.322  53.782  0.00  0.00     0.066 A 
ATOM      6  O   UNL d   1      52.954  33.964  54.527  0.00  0.00    -0.267 OA
ENDROOT
BRANCH   1   7
ATOM      7  C   UNL d   1      52.960  32.649  53.359  0.00  0.00     0.067 A 
ATOM      8  C   UNL d   1      52.742  31.861  53.336  0.00  0.00     0.021 A 
ATOM      9  C   UNL d   1      53.315  31.257  53.316  0.00  0.00     0.073 A 
ATOM     10  C   UNL d   1      54.127  31.465  53.320  0.00  0.00     0.004 A 
ATOM     11  C   UNL d   1      54.344  32.254  53.343  0.00  0.00     0.001 A 
ATOM     12  C   UNL d   1      53.763  32.849  53.363  0.00  0.00     0.018 A 
BRANCH   9  13
ATOM     13  C   UNL d   1      53.082  30.480  53.293  0.00  0.00     0.419 C 
ATOM     14  F   UNL d   1      52.840  29.679  53.263  0.00  0.00    -0.166 F 
ATOM     15  F   UNL d   1      53.244  30.400  54.093  0.00  0.00    -0.166 F 
ATOM     16  F   UNL d   1      52.913  30.545  52.485  0.00  0.00    -0.166 F 
ENDBRANCH   9  13
ENDBRANCH   1   7
BRANCH   2  17
ATOM     17  C   UNL d   1      50.631  34.257  52.767  0.00  0.00     0.142 A 
ATOM     18  N   UNL d   1      50.385  34.148  52.016  0.00  0.00    -0.227 NA
ATOM     19  C   UNL d   1      49.648  34.521  51.919  0.00  0.00     0.099 A 
ATOM     20  C   UNL d   1      49.151  34.583  51.273  0.00  0.00     0.021 A 
ATOM     21  C   UNL d   1      49.451  34.862  52.636  0.00  0.00     0.076 A 
ATOM     22  C   UNL d   1      48.436  35.002  51.357  0.00  0.00     0.002 A 
ATOM     23  C   UNL d   1      48.239  35.343  52.074  0.00  0.00     0.002 A 
ATOM     24  C   UNL d   1      48.751  35.275  52.727  0.00  0.00     0.019 A 
ATOM     25  N   UNL d   1      50.068  34.696  53.167  0.00  0.00    -0.338 N 
ATOM     26  H   UNL d   1      50.110  34.933  53.970  0.00  0.00     0.167 HD
ENDBRANCH   2  17
TORSDOF 3
ENDMDL
MODEL 3
REMARK VINA RESULT:      -9.2      2.926      4.980
REMARK  3 active torsions:
REMARK  status: ('A' for Active; 'I' for Inactive)
REMARK    1  A    between atoms: C_4  and  C_1 
REMARK    2  A    between atoms: C_9  and  N_2 
REMARK    3  A    between atoms: C_8  and  C_13 
ROOT
ATOM      1  N   UNL d   1      53.033  32.925  53.402  0.00  0.00    -0.273 N 
ATOM      2  C   UNL d   1      53.483  31.686  53.681  0.00  0.00     0.056 A 
ATOM      3  C   UNL d   1      53.860  32.920  53.300  0.00  0.00     0.265 A 
ATOM      4  C   UNL d   1      52.806  32.170  53.634  0.00  0.00     0.086 A 
ATOM      5  C   UNL d   1      54.134  32.161  53.471  0.00  0.00     0.066 A 
ATOM      6  O   UNL d   1      54.318  33.571  53.067  0.00  0.00    -0.267 OA
ENDROOT
BRANCH   1   7
ATOM      7  C   UNL d   1      52.573  33.582  53.281  0.00  0.00     0.067 A 
ATOM      8  C   UNL d   1      52.015  33.585  52.682  0.00  0.00     0.021 A 
ATOM      9  C   UNL d   1      51.536  34.252  52.547  0.00  0.00     0.073 A 
ATOM     10  C   UNL d   1      51.629  34.927  53.033  0.00  0.00     0.004 A 
ATOM     11  C   UNL d   1      52.186  34.924  53.632  0.00  0.00     0.001 A 
ATOM     12  C   UNL d   1      52.661  34.251  53.759  0.00  0.00     0.018 A 
BRANCH   9  13
ATOM     13  C   UNL d   1      50.987  34.239  51.948  0.00  0.00     0.419 C 
ATOM     14  F   UNL d   1      50.417  34.225  51.336  0.00  0.00    -0.166 F 
ATOM     15  F   UNL d   1      51.575  34.390  51.396  0.00  0.00    -0.166 F 
ATOM     16  F   UNL d   1      50.383  34.087  52.493  0.00  0.00    -0.166 F 
ENDBRANCH   9  13
ENDBRANCH   1   7
BRANCH   2  17
ATOM     17  C   UNL d   1      53.454  30.898  53.898  0.00  0.00     0.142 A 
ATOM     18  N   UNL d   1      53.470  30.243  53.442  0.00  0.00    -0.227 NA
ATOM     19  C   UNL d   1      53.427  29.574  53.932  0.00  0.00     0.099 A 
ATOM     20  C   UNL d   1      53.422  28.774  53.761  0.00  0.00     0.021 A 
ATOM     21  C   UNL d   1      53.384  29.840  54.705  0.00  0.00     0.076 A 
ATOM     22  C   UNL d   1      53.372  28.231  54.391  0.00  0.00     0.002 A 
ATOM     23  C   UNL d   1      53.329  28.497  55.164  0.00  0.00     0.002 A 
ATOM     24  C   UNL d   1      53.334  29.314  55.329  0.00  0.00     0.019 A 
ATOM     25  N   UNL d   1      53.401  30.670  54.682  0.00  0.00    -0.338 N 
ATOM     26  H   UNL d   1      53.370  31.186  55.342  0.00  0.00     0.167 HD
ENDBRANCH   2  17
TORSDOF 3
ENDMDL
