MODEL 1
REMARK VINA RESULT:      14.2      0.000      0.000
REMARK  3 active torsions:
REMARK  status: ('A' for Active; 'I' for Inactive)
REMARK    1  A    between atoms: C_3  and  C_1 
REMARK    2  A    between atoms: C_8  and  C_3 
REMARK    3  A    between atoms: C_10  and  C_4 
ROOT
ATOM      1  C   UNL d   1      46.343 -18.266  43.141  0.00  0.00     0.092 C 
ATOM      2  C   UNL d   1      46.494 -18.027  42.367  0.00  0.00     0.103 C 
ATOM      3  N   UNL d   1      46.647 -17.760  41.586  0.00  0.00    -0.191 NA
ENDROOT
BRANCH   1   4
ATOM      4  C   UNL d   1      46.228 -17.685  43.733  0.00  0.00     0.120 A 
ATOM      5  N   UNL d   1      45.932 -16.905  43.623  0.00  0.00    -0.238 NA
ATOM      6  C   UNL d   1      45.913 -16.528  44.362  0.00  0.00     0.088 A 
ATOM      7  C   UNL d   1      46.195 -17.074  44.913  0.00  0.00     0.056 A 
ATOM      8  S   UNL d   1      46.378 -17.762  44.510  0.00  0.00    -0.065 SA
BRANCH   6   9
ATOM      9  C   UNL d   1      45.650 -15.735  44.493  0.00  0.00     0.018 A 
ATOM     10  C   UNL d   1      46.150 -15.107  44.281  0.00  0.00     0.002 A 
ATOM     11  C   UNL d   1      45.902 -14.332  44.405  0.00  0.00     0.000 A 
ATOM     12  C   UNL d   1      45.138 -14.164  44.748  0.00  0.00     0.000 A 
ATOM     13  C   UNL d   1      44.649 -14.798  44.954  0.00  0.00     0.000 A 
ATOM     14  C   UNL d   1      44.913 -15.592  44.823  0.00  0.00     0.002 A 
ENDBRANCH   6   9
ENDBRANCH   1   4
BRANCH   1  15
ATOM     15  C   UNL d   1      46.311 -19.069  43.307  0.00  0.00     0.012 A 
ATOM     16  C   UNL d   1      46.621 -19.551  43.912  0.00  0.00     0.001 A 
ATOM     17  C   UNL d   1      46.394 -20.324  43.772  0.00  0.00     0.000 A 
ATOM     18  C   UNL d   1      45.948 -20.328  43.091  0.00  0.00     0.000 A 
ATOM     19  C   UNL d   1      45.893 -19.563  42.801  0.00  0.00     0.001 A 
ENDBRANCH   1  15
TORSDOF 3
ENDMDL
MODEL 2
REMARK VINA RESULT:      14.6      2.102      4.955
REMARK  3 active torsions:
REMARK  status: ('A' for Active; 'I' for Inactive)
REMARK    1  A    between atoms: C_3  and  C_1 
REMARK    2  A    between atoms: C_8  and  C_3 
REMARK    3  A    between atoms: C_10  and  C_4 
ROOT
ATOM      1  C   UNL d   1      45.481 -13.157  44.109  0.00  0.00     0.092 C 
ATOM      2  C   UNL d   1      46.035 -12.706  44.521  0.00  0.00     0.103 C 
ATOM      3  N   UNL d   1      46.603 -12.266  44.955  0.00  0.00    -0.191 NA
ENDROOT
BRANCH   1   4
ATOM      4  C   UNL d   1      45.347 -13.951  44.341  0.00  0.00     0.120 A 
ATOM      5  N   UNL d   1      45.745 -14.635  44.052  0.00  0.00    -0.238 NA
ATOM      6  C   UNL d   1      45.432 -15.299  44.438  0.00  0.00     0.088 A 
ATOM      7  C   UNL d   1      44.852 -15.021  44.954  0.00  0.00     0.056 A 
ATOM      8  S   UNL d   1      44.819 -14.207  44.878  0.00  0.00    -0.065 SA
BRANCH   6   9
ATOM      9  C   UNL d   1      45.681 -16.096  44.305  0.00  0.00     0.018 A 
ATOM     10  C   UNL d   1      45.720 -16.616  44.951  0.00  0.00     0.002 A 
ATOM     11  C   UNL d   1      45.962 -17.394  44.830  0.00  0.00     0.000 A 
ATOM     12  C   UNL d   1      46.172 -17.673  44.051  0.00  0.00     0.000 A 
ATOM     13  C   UNL d   1      46.130 -17.146  43.416  0.00  0.00     0.000 A 
ATOM     14  C   UNL d   1      45.880 -16.348  43.550  0.00  0.00     0.002 A 
ENDBRANCH   6   9
ENDBRANCH   1   4
BRANCH   1  15
ATOM     15  C   UNL d   1      45.077 -12.812  43.484  0.00  0.00     0.012 A 
ATOM     16  C   UNL d   1      44.281 -12.604  43.349  0.00  0.00     0.001 A 
ATOM     17  C   UNL d   1      44.221 -12.273  42.605  0.00  0.00     0.000 A 
ATOM     18  C   UNL d   1      44.965 -12.272  42.276  0.00  0.00     0.000 A 
ATOM     19  C   UNL d   1      45.494 -12.601  42.809  0.00  0.00     0.001 A 
ENDBRANCH   1  15
TORSDOF 3
ENDMDL
