MODEL 1
REMARK VINA RESULT:      62.6      0.000      0.000
REMARK  2 active torsions:
REMARK  status: ('A' for Active; 'I' for Inactive)
REMARK    1  A    between atoms: N_9  and  C_3 
REMARK    2  A    between atoms: C_13  and  C_5 
ROOT
ATOM      1  N   UNL d   1     -57.498 -99.073 -45.186  0.00  0.00    -0.196 N 
ATOM      2  C   UNL d   1     -56.993 -99.152 -44.516  0.00  0.00     0.167 A 
ATOM      3  C   UNL d   1     -58.314 -98.960 -45.075  0.00  0.00     0.153 A 
ATOM      4  N   UNL d   1     -56.374 -99.222 -46.051  0.00  0.00    -0.163 NA
ATOM      5  C   UNL d   1     -56.197 -99.262 -44.623  0.00  0.00     0.055 A 
ATOM      6  N   UNL d   1     -57.321 -99.114 -43.758  0.00  0.00    -0.227 NA
ATOM      7  C   UNL d   1     -58.622 -98.925 -44.321  0.00  0.00     0.052 A 
ATOM      8  C   UNL d   1     -55.877 -99.299 -45.391  0.00  0.00     0.104 A 
ATOM      9  C   UNL d   1     -58.124 -99.002 -43.645  0.00  0.00     0.086 A 
ATOM     10  C   UNL d   1     -59.380 -98.821 -44.041  0.00  0.00     0.005 A 
ATOM     11  C   UNL d   1     -55.069 -99.411 -45.491  0.00  0.00     0.023 C 
ATOM     12  C   UNL d   1     -58.587 -98.945 -42.968  0.00  0.00     0.019 A 
ATOM     13  C   UNL d   1     -59.375 -98.831 -43.220  0.00  0.00     0.002 A 
ENDROOT
BRANCH   5  14
ATOM     14  C   UNL d   1     -55.702 -99.339 -43.967  0.00  0.00     0.004 A 
ATOM     15  C   UNL d   1     -55.216 -99.997 -43.889  0.00  0.00     0.000 A 
ATOM     16  C   UNL d   1     -54.716-100.074 -43.226  0.00  0.00     0.000 A 
ATOM     17  C   UNL d   1     -54.713 -99.493 -42.655  0.00  0.00     0.000 A 
ATOM     18  C   UNL d   1     -55.202 -98.828 -42.730  0.00  0.00     0.000 A 
ATOM     19  C   UNL d   1     -55.692 -98.755 -43.384  0.00  0.00     0.000 A 
ENDBRANCH   5  14
BRANCH   3  20
ATOM     20  N   UNL d   1     -58.827 -98.880 -45.749  0.00  0.00    -0.271 N 
ATOM     21  C   UNL d   1     -58.576 -98.837 -46.558  0.00  0.00     0.184 A 
ATOM     22  N   UNL d   1     -59.275 -98.760 -47.033  0.00  0.00    -0.222 NA
ATOM     23  C   UNL d   1     -59.955 -98.756 -46.520  0.00  0.00     0.120 A 
ATOM     24  C   UNL d   1     -59.665 -98.832 -45.720  0.00  0.00     0.104 A 
ENDBRANCH   3  20
TORSDOF 2
ENDMDL
