MODEL 1
REMARK VINA RESULT:      -2.7      0.000      0.000
REMARK  1 active torsions:
REMARK  status: ('A' for Active; 'I' for Inactive)
REMARK    1  A    between atoms: C_24  and  N_4 
ROOT
ATOM      1  C   UNL d   1      33.081  22.323 -22.442  0.00  0.00     0.111 A 
ATOM      2  C   UNL d   1      33.145  22.043 -21.063  0.00  0.00     0.062 A 
ATOM      3  C   UNL d   1      33.122  21.798 -21.821  0.00  0.00     0.018 A 
ATOM      4  N   UNL d   1      33.202  18.165 -22.680  0.00  0.00    -0.305 N 
ATOM      5  C   UNL d   1      33.062  23.139 -22.275  0.00  0.00     0.213 A 
ATOM      6  C   UNL d   1      33.126  22.859 -20.896  0.00  0.00     0.101 A 
ATOM      7  C   UNL d   1      33.149  19.455 -22.997  0.00  0.00     0.018 A 
ATOM      8  C   UNL d   1      33.191  18.924 -22.368  0.00  0.00     0.064 A 
ATOM      9  O   UNL d   1      33.085  23.410 -21.492  0.00  0.00    -0.288 OA
ATOM     10  C   UNL d   1      33.187  21.516 -20.434  0.00  0.00     0.194 A 
ATOM     11  C   UNL d   1      33.168  18.226 -23.484  0.00  0.00     0.064 A 
ATOM     12  C   UNL d   1      33.152  20.548 -22.077  0.00  0.00     0.001 A 
ATOM     13  C   UNL d   1      33.135  19.020 -23.693  0.00  0.00     0.018 A 
ATOM     14  C   UNL d   1      33.129  20.276 -22.848  0.00  0.00     0.002 A 
ATOM     15  C   UNL d   1      33.058  22.061 -23.229  0.00  0.00     0.105 C 
ATOM     16  N   UNL d   1      33.033  21.794 -24.044  0.00  0.00    -0.191 NA
ATOM     17  C   UNL d   1      33.212  19.224 -21.599  0.00  0.00     0.018 A 
ATOM     18  C   UNL d   1      33.150  23.128 -20.105  0.00  0.00     0.002 A 
ATOM     19  C   UNL d   1      33.192  22.574 -19.492  0.00  0.00     0.042 A 
ATOM     20  C   UNL d   1      33.211  21.758 -19.659  0.00  0.00     0.019 A 
ATOM     21  C   UNL d   1      33.193  20.032 -21.462  0.00  0.00     0.002 A 
ATOM     22  O   UNL d   1      33.206  20.691 -20.603  0.00  0.00    -0.287 OA
ATOM     23  N   UNL d   1      33.020  23.695 -22.895  0.00  0.00    -0.120 N 
ATOM     24  C   UNL d   1      33.162  17.652 -24.094  0.00  0.00     0.018 A 
ATOM     25  C   UNL d   1      33.095  19.245 -24.504  0.00  0.00     0.002 A 
ATOM     26  C   UNL d   1      33.228  22.416 -18.717  0.00  0.00     0.009 C 
ATOM     27  C   UNL d   1      33.181  23.311 -19.172  0.00  0.00     0.009 C 
ATOM     28  C   UNL d   1      33.089  18.672 -25.096  0.00  0.00     0.000 A 
ATOM     29  C   UNL d   1      33.123  17.870 -24.882  0.00  0.00     0.002 A 
ENDROOT
BRANCH   4  30
ATOM     30  C   UNL d   1      33.241  17.459 -22.275  0.00  0.00     0.080 C 
ATOM     31  C   UNL d   1      32.688  16.860 -22.411  0.00  0.00     0.021 C 
ENDBRANCH   4  30
TORSDOF 1
ENDMDL
MODEL 2
REMARK VINA RESULT:      -0.3      1.472      2.954
REMARK  1 active torsions:
REMARK  status: ('A' for Active; 'I' for Inactive)
REMARK    1  A    between atoms: C_24  and  N_4 
ROOT
ATOM      1  C   UNL d   1      33.119  20.931 -21.849  0.00  0.00     0.111 A 
ATOM      2  C   UNL d   1      33.145  21.503 -23.137  0.00  0.00     0.062 A 
ATOM      3  C   UNL d   1      33.140  20.863 -22.660  0.00  0.00     0.018 A 
ATOM      4  N   UNL d   1      33.213  17.406 -24.070  0.00  0.00    -0.305 N 
ATOM      5  C   UNL d   1      33.102  21.692 -21.511  0.00  0.00     0.213 A 
ATOM      6  C   UNL d   1      33.129  22.264 -22.799  0.00  0.00     0.101 A 
ATOM      7  C   UNL d   1      33.178  18.273 -23.061  0.00  0.00     0.018 A 
ATOM      8  C   UNL d   1      33.199  18.206 -23.883  0.00  0.00     0.064 A 
ATOM      9  O   UNL d   1      33.107  22.367 -21.993  0.00  0.00    -0.288 OA
ATOM     10  C   UNL d   1      33.167  21.439 -23.955  0.00  0.00     0.194 A 
ATOM     11  C   UNL d   1      33.200  16.989 -23.378  0.00  0.00     0.064 A 
ATOM     12  C   UNL d   1      33.166  19.697 -23.178  0.00  0.00     0.001 A 
ATOM     13  C   UNL d   1      33.178  17.515 -22.747  0.00  0.00     0.018 A 
ATOM     14  C   UNL d   1      33.161  19.028 -22.707  0.00  0.00     0.002 A 
ATOM     15  C   UNL d   1      33.113  20.261 -21.360  0.00  0.00     0.105 C 
ATOM     16  N   UNL d   1      33.108  19.571 -20.850  0.00  0.00    -0.191 NA
ATOM     17  C   UNL d   1      33.204  18.896 -24.336  0.00  0.00     0.018 A 
ATOM     18  C   UNL d   1      33.134  22.942 -23.288  0.00  0.00     0.002 A 
ATOM     19  C   UNL d   1      33.156  22.846 -24.109  0.00  0.00     0.042 A 
ATOM     20  C   UNL d   1      33.173  22.085 -24.447  0.00  0.00     0.019 A 
ATOM     21  C   UNL d   1      33.187  19.633 -23.978  0.00  0.00     0.002 A 
ATOM     22  O   UNL d   1      33.184  20.668 -24.297  0.00  0.00    -0.287 OA
ATOM     23  N   UNL d   1      33.080  21.785 -20.684  0.00  0.00    -0.120 N 
ATOM     24  C   UNL d   1      33.204  16.168 -23.214  0.00  0.00     0.018 A 
ATOM     25  C   UNL d   1      33.161  17.228 -21.955  0.00  0.00     0.002 A 
ATOM     26  C   UNL d   1      33.171  23.168 -24.833  0.00  0.00     0.009 C 
ATOM     27  C   UNL d   1      33.143  23.632 -23.942  0.00  0.00     0.009 C 
ATOM     28  C   UNL d   1      33.165  16.417 -21.805  0.00  0.00     0.000 A 
ATOM     29  C   UNL d   1      33.187  15.889 -22.445  0.00  0.00     0.002 A 
ENDROOT
BRANCH   4  30
ATOM     30  C   UNL d   1      33.235  17.066 -24.810  0.00  0.00     0.080 C 
ATOM     31  C   UNL d   1      32.594  16.630 -25.097  0.00  0.00     0.021 C 
ENDBRANCH   4  30
TORSDOF 1
ENDMDL
