MODEL 1
REMARK VINA RESULT:      -1.0      0.000      0.000
REMARK  7 active torsions:
REMARK  status: ('A' for Active; 'I' for Inactive)
REMARK    1  A    between atoms: O_8  and  C_2 
REMARK    2  A    between atoms: C_10  and  C_5 
REMARK    3  A    between atoms: C_21  and  O_8 
REMARK    4  A    between atoms: N_9  and  C_10 
REMARK    5  A    between atoms: C_12  and  C_15 
REMARK    6  A    between atoms: O_26  and  C_12 
REMARK    7  A    between atoms: C_32  and  O_26 
ROOT
ATOM      1  C   UNL d   1      57.702   0.646  32.126  0.00  0.00     0.108 A 
ATOM      2  C   UNL d   1      58.585   0.648  30.719  0.00  0.00     0.161 A 
ATOM      3  C   UNL d   1      58.538   0.664  32.155  0.00  0.00     0.064 A 
ATOM      4  C   UNL d   1      58.975   0.665  31.460  0.00  0.00     0.222 A 
ATOM      5  C   UNL d   1      57.260   0.646  32.829  0.00  0.00     0.079 A 
ATOM      6  O   UNL d   1      57.306   0.630  31.396  0.00  0.00    -0.305 OA
ATOM      7  C   UNL d   1      57.755   0.631  30.689  0.00  0.00     0.126 A 
ATOM      8  C   UNL d   1      58.916   0.680  32.896  0.00  0.00     0.009 A 
ATOM      9  C   UNL d   1      57.643   0.662  33.558  0.00  0.00     0.199 A 
ATOM     10  O   UNL d   1      59.800   0.682  31.486  0.00  0.00    -0.284 OA
ATOM     11  C   UNL d   1      58.475   0.680  33.592  0.00  0.00     0.042 A 
ATOM     12  O   UNL d   1      57.209   0.661  34.253  0.00  0.00    -0.286 OA
ATOM     13  C   UNL d   1      57.373   0.614  29.960  0.00  0.00     0.029 C 
ENDROOT
BRANCH   2  14
ATOM     14  O   UNL d   1      59.025   0.649  30.023  0.00  0.00    -0.302 OA
BRANCH  14  15
ATOM     15  C   UNL d   1      59.307  -0.060  29.715  0.00  0.00     0.100 A 
ATOM     16  C   UNL d   1      58.789  -0.688  29.589  0.00  0.00     0.025 A 
ATOM     17  C   UNL d   1      59.070  -1.396  29.281  0.00  0.00     0.007 A 
ATOM     18  C   UNL d   1      59.870  -1.478  29.097  0.00  0.00     0.064 A 
ATOM     19  C   UNL d   1      60.391  -0.840  29.227  0.00  0.00     0.007 A 
ATOM     20  C   UNL d   1      60.108  -0.138  29.533  0.00  0.00     0.025 A 
BRANCH  18  21
ATOM     21  C   UNL d   1      60.156  -2.189  28.788  0.00  0.00     0.300 C 
ATOM     22  O   UNL d   1      60.967  -2.340  28.772  0.00  0.00    -0.259 OA
BRANCH  21  23
ATOM     23  O   UNL d   1      59.634  -2.756  28.490  0.00  0.00    -0.271 OA
BRANCH  23  24
ATOM     24  C   UNL d   1      59.847  -3.553  28.506  0.00  0.00     0.126 C 
ATOM     25  C   UNL d   1      59.270  -4.138  28.457  0.00  0.00     0.029 C 
ENDBRANCH  23  24
ENDBRANCH  21  23
ENDBRANCH  18  21
ENDBRANCH  14  15
ENDBRANCH   2  14
BRANCH   5  26
ATOM     26  C   UNL d   1      56.444   0.629  32.795  0.00  0.00     0.086 C 
BRANCH  26  27
ATOM     27  N   UNL d   1      56.038  -0.067  32.984  0.00  0.00    -0.300 N 
ATOM     28  C   UNL d   1      55.407  -0.044  33.515  0.00  0.00     0.100 A 
ATOM     29  C   UNL d   1      55.005  -0.735  33.700  0.00  0.00     0.100 A 
ATOM     30  N   UNL d   1      55.227  -1.449  33.361  0.00  0.00    -0.299 N 
ATOM     31  C   UNL d   1      55.861  -1.472  32.828  0.00  0.00     0.100 A 
ATOM     32  C   UNL d   1      54.820  -2.149  33.549  0.00  0.00     0.100 C 
ATOM     33  C   UNL d   1      56.268  -0.777  32.640  0.00  0.00     0.100 A 
ENDBRANCH  26  27
ENDBRANCH   5  26
TORSDOF 7
ENDMDL
MODEL 2
REMARK VINA RESULT:       0.2      1.833      5.133
REMARK  7 active torsions:
REMARK  status: ('A' for Active; 'I' for Inactive)
REMARK    1  A    between atoms: O_8  and  C_2 
REMARK    2  A    between atoms: C_10  and  C_5 
REMARK    3  A    between atoms: C_21  and  O_8 
REMARK    4  A    between atoms: N_9  and  C_10 
REMARK    5  A    between atoms: C_12  and  C_15 
REMARK    6  A    between atoms: O_26  and  C_12 
REMARK    7  A    between atoms: C_32  and  O_26 
ROOT
ATOM      1  C   UNL d   1      59.763  -1.329  29.465  0.00  0.00     0.108 A 
ATOM      2  C   UNL d   1      59.064   0.016  30.148  0.00  0.00     0.161 A 
ATOM      3  C   UNL d   1      60.097  -0.984  30.151  0.00  0.00     0.064 A 
ATOM      4  C   UNL d   1      59.753  -0.320  30.488  0.00  0.00     0.222 A 
ATOM      5  C   UNL d   1      60.111  -2.000  29.124  0.00  0.00     0.079 A 
ATOM      6  O   UNL d   1      59.081  -1.003  29.120  0.00  0.00    -0.305 OA
ATOM      7  C   UNL d   1      58.732  -0.326  29.468  0.00  0.00     0.126 A 
ATOM      8  C   UNL d   1      60.780  -1.324  30.482  0.00  0.00     0.009 A 
ATOM      9  C   UNL d   1      60.788  -2.330  29.459  0.00  0.00     0.199 A 
ATOM     10  O   UNL d   1      60.080   0.023  31.165  0.00  0.00    -0.284 OA
ATOM     11  C   UNL d   1      61.124  -1.990  30.141  0.00  0.00     0.042 A 
ATOM     12  O   UNL d   1      61.133  -2.993  29.124  0.00  0.00    -0.286 OA
ATOM     13  C   UNL d   1      58.056   0.005  29.134  0.00  0.00     0.029 C 
ENDROOT
BRANCH   2  14
ATOM     14  O   UNL d   1      58.721   0.682  30.488  0.00  0.00    -0.302 OA
BRANCH  14  15
ATOM     15  C   UNL d   1      58.205   0.598  31.123  0.00  0.00     0.100 A 
ATOM     16  C   UNL d   1      57.399   0.499  30.987  0.00  0.00     0.025 A 
ATOM     17  C   UNL d   1      56.883   0.415  31.622  0.00  0.00     0.007 A 
ATOM     18  C   UNL d   1      57.172   0.431  32.395  0.00  0.00     0.064 A 
ATOM     19  C   UNL d   1      57.990   0.531  32.528  0.00  0.00     0.007 A 
ATOM     20  C   UNL d   1      58.498   0.614  31.894  0.00  0.00     0.025 A 
BRANCH  18  21
ATOM     21  C   UNL d   1      56.657   0.347  33.035  0.00  0.00     0.300 C 
ATOM     22  O   UNL d   1      56.946   0.360  33.807  0.00  0.00    -0.259 OA
BRANCH  21  23
ATOM     23  O   UNL d   1      55.846   0.249  32.909  0.00  0.00    -0.271 OA
BRANCH  23  24
ATOM     24  C   UNL d   1      55.388  -0.132  33.480  0.00  0.00     0.126 C 
ATOM     25  C   UNL d   1      54.679   0.199  33.735  0.00  0.00     0.029 C 
ENDBRANCH  23  24
ENDBRANCH  21  23
ENDBRANCH  18  21
ENDBRANCH  14  15
ENDBRANCH   2  14
BRANCH   5  26
ATOM     26  C   UNL d   1      59.782  -2.333  28.455  0.00  0.00     0.086 C 
BRANCH  26  27
ATOM     27  N   UNL d   1      59.389  -3.060  28.506  0.00  0.00    -0.300 N 
ATOM     28  C   UNL d   1      59.819  -3.763  28.471  0.00  0.00     0.100 A 
ATOM     29  C   UNL d   1      59.429  -4.483  28.521  0.00  0.00     0.100 A 
ATOM     30  N   UNL d   1      58.612  -4.508  28.607  0.00  0.00    -0.299 N 
ATOM     31  C   UNL d   1      58.180  -3.801  28.643  0.00  0.00     0.100 A 
ATOM     32  C   UNL d   1      58.217  -5.237  28.658  0.00  0.00     0.100 C 
ATOM     33  C   UNL d   1      58.572  -3.074  28.592  0.00  0.00     0.100 A 
ENDBRANCH  26  27
ENDBRANCH   5  26
TORSDOF 7
ENDMDL
MODEL 3
REMARK VINA RESULT:       1.6      7.417      9.861
REMARK  7 active torsions:
REMARK  status: ('A' for Active; 'I' for Inactive)
REMARK    1  A    between atoms: O_8  and  C_2 
REMARK    2  A    between atoms: C_10  and  C_5 
REMARK    3  A    between atoms: C_21  and  O_8 
REMARK    4  A    between atoms: N_9  and  C_10 
REMARK    5  A    between atoms: C_12  and  C_15 
REMARK    6  A    between atoms: O_26  and  C_12 
REMARK    7  A    between atoms: C_32  and  O_26 
ROOT
ATOM      1  C   UNL d   1      59.640  -9.795  31.266  0.00  0.00     0.108 A 
ATOM      2  C   UNL d   1      59.634  -9.799  32.928  0.00  0.00     0.161 A 
ATOM      3  C   UNL d   1      60.362  -9.787  31.689  0.00  0.00     0.064 A 
ATOM      4  C   UNL d   1      60.360  -9.789  32.510  0.00  0.00     0.222 A 
ATOM      5  C   UNL d   1      59.642  -9.794  30.436  0.00  0.00     0.079 A 
ATOM      6  O   UNL d   1      58.915  -9.806  31.672  0.00  0.00    -0.305 OA
ATOM      7  C   UNL d   1      58.917  -9.808  32.509  0.00  0.00     0.126 A 
ATOM      8  C   UNL d   1      61.078  -9.777  31.265  0.00  0.00     0.009 A 
ATOM      9  C   UNL d   1      60.356  -9.783  30.025  0.00  0.00     0.199 A 
ATOM     10  O   UNL d   1      61.071  -9.781  32.930  0.00  0.00    -0.284 OA
ATOM     11  C   UNL d   1      61.077  -9.775  30.442  0.00  0.00     0.042 A 
ATOM     12  O   UNL d   1      60.361  -9.781  29.206  0.00  0.00    -0.286 OA
ATOM     13  C   UNL d   1      58.204  -9.818  32.921  0.00  0.00     0.029 C 
ENDROOT
BRANCH   2  14
ATOM     14  O   UNL d   1      59.634  -9.801  33.751  0.00  0.00    -0.302 OA
BRANCH  14  15
ATOM     15  C   UNL d   1      59.624  -9.089  34.163  0.00  0.00     0.100 A 
ATOM     16  C   UNL d   1      58.932  -8.645  34.198  0.00  0.00     0.025 A 
ATOM     17  C   UNL d   1      58.922  -7.933  34.610  0.00  0.00     0.007 A 
ATOM     18  C   UNL d   1      59.605  -7.665  34.988  0.00  0.00     0.064 A 
ATOM     19  C   UNL d   1      60.303  -8.119  34.950  0.00  0.00     0.007 A 
ATOM     20  C   UNL d   1      60.309  -8.824  34.540  0.00  0.00     0.025 A 
BRANCH  18  21
ATOM     21  C   UNL d   1      59.598  -6.950  35.403  0.00  0.00     0.300 C 
ATOM     22  O   UNL d   1      58.924  -6.475  35.404  0.00  0.00    -0.259 OA
BRANCH  21  23
ATOM     23  O   UNL d   1      60.267  -6.703  35.821  0.00  0.00    -0.271 OA
BRANCH  23  24
ATOM     24  C   UNL d   1      60.286  -5.946  36.147  0.00  0.00     0.126 C 
ATOM     25  C   UNL d   1      61.005  -5.589  36.329  0.00  0.00     0.029 C 
ENDBRANCH  23  24
ENDBRANCH  21  23
ENDBRANCH  18  21
ENDBRANCH  14  15
ENDBRANCH   2  14
BRANCH   5  26
ATOM     26  C   UNL d   1      58.935  -9.802  30.029  0.00  0.00     0.086 C 
BRANCH  26  27
ATOM     27  N   UNL d   1      58.674  -9.119  29.640  0.00  0.00    -0.300 N 
ATOM     28  C   UNL d   1      59.182  -8.717  29.129  0.00  0.00     0.100 A 
ATOM     29  C   UNL d   1      58.922  -8.040  28.744  0.00  0.00     0.100 A 
ATOM     30  N   UNL d   1      58.159  -7.760  28.866  0.00  0.00    -0.299 N 
ATOM     31  C   UNL d   1      57.649  -8.164  29.380  0.00  0.00     0.100 A 
ATOM     32  C   UNL d   1      57.895  -7.075  28.477  0.00  0.00     0.100 C 
ATOM     33  C   UNL d   1      57.910  -8.847  29.768  0.00  0.00     0.100 A 
ENDBRANCH  26  27
ENDBRANCH   5  26
TORSDOF 7
ENDMDL
