MODEL 1
REMARK VINA RESULT:      41.1      0.000      0.000
REMARK  5 active torsions:
REMARK  status: ('A' for Active; 'I' for Inactive)
REMARK    1  A    between atoms: C_2  and  C_1 
REMARK    2  A    between atoms: C_5  and  C_2 
REMARK    3  A    between atoms: C_11  and  C_5 
REMARK    4  A    between atoms: C_10  and  C_12 
REMARK    5  A    between atoms: O_19  and  C_10 
ROOT
ATOM      1  C   UNL d   1      45.239 -15.286  44.518  0.00  0.00     0.131 C 
ATOM      2  C   UNL d   1      44.528 -15.664  44.740  0.00  0.00     0.106 C 
ATOM      3  N   UNL d   1      43.860 -16.029  44.954  0.00  0.00    -0.191 NA
ENDROOT
BRANCH   1   4
ATOM      4  C   UNL d   1      45.214 -14.541  44.200  0.00  0.00     0.123 A 
ATOM      5  N   UNL d   1      45.870 -14.123  43.931  0.00  0.00    -0.238 NA
ATOM      6  C   UNL d   1      45.591 -13.378  43.648  0.00  0.00     0.088 A 
ATOM      7  C   UNL d   1      45.973 -12.752  43.327  0.00  0.00     0.020 A 
ATOM      8  C   UNL d   1      44.773 -13.362  43.750  0.00  0.00     0.049 A 
ATOM      9  C   UNL d   1      45.548 -12.097  43.101  0.00  0.00     0.002 A 
ATOM     10  C   UNL d   1      44.708 -12.080  43.206  0.00  0.00     0.001 A 
ATOM     11  C   UNL d   1      44.328 -12.719  43.533  0.00  0.00     0.008 A 
ATOM     12  S   UNL d   1      44.544 -14.096  44.098  0.00  0.00    -0.066 SA
ENDBRANCH   1   4
BRANCH   1  13
ATOM     13  C   UNL d   1      45.960 -15.667  44.620  0.00  0.00     0.207 C 
ATOM     14  O   UNL d   1      46.600 -15.260  44.955  0.00  0.00    -0.286 OA
BRANCH  13  15
ATOM     15  C   UNL d   1      46.052 -16.482  44.383  0.00  0.00     0.040 A 
ATOM     16  C   UNL d   1      46.043 -17.073  44.949  0.00  0.00     0.003 A 
ATOM     17  C   UNL d   1      46.132 -17.861  44.719  0.00  0.00     0.005 A 
ATOM     18  C   UNL d   1      46.228 -18.044  43.928  0.00  0.00     0.063 A 
ATOM     19  C   UNL d   1      46.238 -17.451  43.353  0.00  0.00     0.005 A 
ATOM     20  C   UNL d   1      46.149 -16.663  43.583  0.00  0.00     0.003 A 
BRANCH  18  21
ATOM     21  C   UNL d   1      46.320 -18.859  43.690  0.00  0.00     0.296 C 
ATOM     22  O   UNL d   1      46.155 -19.466  44.229  0.00  0.00    -0.259 OA
BRANCH  21  23
ATOM     23  O   UNL d   1      46.572 -19.040  42.929  0.00  0.00    -0.296 OA
ATOM     24  C   UNL d   1      46.625 -19.829  42.688  0.00  0.00     0.185 C 
ENDBRANCH  21  23
ENDBRANCH  18  21
ENDBRANCH  13  15
ENDBRANCH   1  13
TORSDOF 5
ENDMDL
