MODEL 1
REMARK VINA RESULT:      -5.9      0.000      0.000
REMARK  7 active torsions:
REMARK  status: ('A' for Active; 'I' for Inactive)
REMARK    1  A    between atoms: S_7  and  C_1 
REMARK    2  A    between atoms: C_6  and  C_8 
REMARK       I    between atoms: N_10  and  C_6 
REMARK    3  A    between atoms: C_13  and  S_7 
REMARK    4  A    between atoms: C_21  and  N_10 
REMARK    5  A    between atoms: C_14  and  C_13 
REMARK    6  A    between atoms: C_17  and  C_21 
REMARK    7  A    between atoms: C_22  and  C_17 
ROOT
ATOM      1  C   UNL d   1     -42.551-123.179 -49.531  0.00  0.00     0.058 A 
ATOM      2  C   UNL d   1     -42.027-123.643 -49.951  0.00  0.00     0.005 A 
ATOM      3  C   UNL d   1     -42.691-122.390 -49.780  0.00  0.00     0.005 A 
ATOM      4  C   UNL d   1     -41.775-122.559 -50.865  0.00  0.00     0.007 A 
ATOM      5  C   UNL d   1     -42.318-122.091 -50.422  0.00  0.00     0.001 A 
ATOM      6  C   UNL d   1     -41.645-123.336 -50.610  0.00  0.00     0.001 A 
ENDROOT
BRANCH   4   7
ATOM      7  C   UNL d   1     -41.402-122.260 -51.507  0.00  0.00     0.038 C 
BRANCH   7   8
ATOM      8  S   UNL d   1     -41.123-122.775 -52.112  0.00  0.00    -0.048 SA
BRANCH   8   9
ATOM      9  C   UNL d   1     -41.331-122.640 -52.906  0.00  0.00     0.194 A 
ATOM     10  N   UNL d   1     -41.152-123.141 -53.538  0.00  0.00    -0.220 NA
ATOM     11  C   UNL d   1     -41.459-122.799 -54.215  0.00  0.00     0.101 A 
ATOM     12  C   UNL d   1     -41.460-123.026 -54.994  0.00  0.00     0.021 A 
ATOM     13  C   UNL d   1     -41.824-122.091 -53.998  0.00  0.00     0.101 A 
ATOM     14  C   UNL d   1     -41.808-122.573 -55.543  0.00  0.00     0.002 A 
ATOM     15  C   UNL d   1     -42.173-121.864 -55.327  0.00  0.00     0.002 A 
ATOM     16  C   UNL d   1     -42.191-121.608 -54.560  0.00  0.00     0.021 A 
ATOM     17  N   UNL d   1     -41.739-122.002 -53.189  0.00  0.00    -0.220 NA
ENDBRANCH   8   9
ENDBRANCH   7   8
ENDBRANCH   4   7
BRANCH   1  18
ATOM     18  C   UNL d   1     -42.921-123.516 -48.872  0.00  0.00     0.279 C 
ATOM     19  O   UNL d   1     -43.687-123.817 -48.952  0.00  0.00    -0.265 OA
ATOM     20  N   UNL d   1     -42.539-123.553 -48.143  0.00  0.00    -0.206 NA
BRANCH  20  21
ATOM     21  C   UNL d   1     -41.777-123.254 -48.058  0.00  0.00     0.106 C 
BRANCH  21  22
ATOM     22  C   UNL d   1     -41.299-123.502 -47.426  0.00  0.00     0.066 C 
BRANCH  22  23
ATOM     23  C   UNL d   1     -41.238-123.039 -46.753  0.00  0.00     0.236 C 
ATOM     24  O   UNL d   1     -41.132-122.220 -46.819  0.00  0.00    -0.283 OA
ENDBRANCH  22  23
ENDBRANCH  21  22
ENDBRANCH  20  21
ENDBRANCH   1  18
TORSDOF 7
ENDMDL
