MODEL 1
REMARK VINA RESULT:      -4.1      0.000      0.000
REMARK  0 active torsions:
REMARK  status: ('A' for Active; 'I' for Inactive)
ROOT
ATOM      1  C   UNL d   1     -41.337-122.597 -53.136  0.00  0.00     0.221 A 
ATOM      2  N   UNL d   1     -41.703-122.104 -53.686  0.00  0.00    -0.217 NA
ATOM      3  N   UNL d   1     -41.123-123.370 -53.340  0.00  0.00    -0.216 NA
ATOM      4  S   UNL d   1     -41.169-122.347 -52.368  0.00  0.00    -0.037 SA
ATOM      5  C   UNL d   1     -41.860-122.380 -54.446  0.00  0.00     0.085 A 
ATOM      6  C   UNL d   1     -41.283-123.643 -54.108  0.00  0.00     0.103 A 
ATOM      7  C   UNL d   1     -41.649-123.150 -54.658  0.00  0.00     0.040 A 
ATOM      8  C   UNL d   1     -42.227-121.872 -54.983  0.00  0.00     0.021 C 
ENDROOT
TORSDOF 0
ENDMDL
MODEL 2
REMARK VINA RESULT:      -3.9      1.213      1.752
REMARK  0 active torsions:
REMARK  status: ('A' for Active; 'I' for Inactive)
ROOT
ATOM      1  C   UNL d   1     -41.844-122.457 -54.464  0.00  0.00     0.221 A 
ATOM      2  N   UNL d   1     -41.699-122.140 -53.716  0.00  0.00    -0.217 NA
ATOM      3  N   UNL d   1     -41.643-123.241 -54.634  0.00  0.00    -0.216 NA
ATOM      4  S   UNL d   1     -42.190-122.013 -55.067  0.00  0.00    -0.037 SA
ATOM      5  C   UNL d   1     -41.351-122.605 -53.132  0.00  0.00     0.085 A 
ATOM      6  C   UNL d   1     -41.294-123.706 -54.042  0.00  0.00     0.103 A 
ATOM      7  C   UNL d   1     -41.148-123.389 -53.294  0.00  0.00     0.040 A 
ATOM      8  C   UNL d   1     -41.214-122.270 -52.391  0.00  0.00     0.021 C 
ENDROOT
TORSDOF 0
ENDMDL
MODEL 3
REMARK VINA RESULT:      -3.1      1.634      2.475
REMARK  0 active torsions:
REMARK  status: ('A' for Active; 'I' for Inactive)
ROOT
ATOM      1  C   UNL d   1     -41.195-122.822 -52.794  0.00  0.00     0.221 A 
ATOM      2  N   UNL d   1     -41.123-122.117 -52.372  0.00  0.00    -0.217 NA
ATOM      3  N   UNL d   1     -41.345-123.534 -52.398  0.00  0.00    -0.216 NA
ATOM      4  S   UNL d   1     -41.123-122.851 -53.614  0.00  0.00    -0.037 SA
ATOM      5  C   UNL d   1     -41.200-122.116 -51.553  0.00  0.00     0.085 A 
ATOM      6  C   UNL d   1     -41.421-123.528 -51.572  0.00  0.00     0.103 A 
ATOM      7  C   UNL d   1     -41.349-122.823 -51.151  0.00  0.00     0.040 A 
ATOM      8  C   UNL d   1     -41.125-121.400 -51.149  0.00  0.00     0.021 C 
ENDROOT
TORSDOF 0
ENDMDL
MODEL 4
REMARK VINA RESULT:      -2.8      2.923      3.292
REMARK  0 active torsions:
REMARK  status: ('A' for Active; 'I' for Inactive)
ROOT
ATOM      1  C   UNL d   1     -42.270-122.891 -50.104  0.00  0.00     0.221 A 
ATOM      2  N   UNL d   1     -42.074-122.324 -50.671  0.00  0.00    -0.217 NA
ATOM      3  N   UNL d   1     -41.898-123.630 -50.103  0.00  0.00    -0.216 NA
ATOM      4  S   UNL d   1     -42.837-122.749 -49.523  0.00  0.00    -0.037 SA
ATOM      5  C   UNL d   1     -41.504-122.491 -51.241  0.00  0.00     0.085 A 
ATOM      6  C   UNL d   1     -41.324-123.794 -50.680  0.00  0.00     0.103 A 
ATOM      7  C   UNL d   1     -41.128-123.227 -51.247  0.00  0.00     0.040 A 
ATOM      8  C   UNL d   1     -41.321-121.911 -51.799  0.00  0.00     0.021 C 
ENDROOT
TORSDOF 0
ENDMDL
MODEL 5
REMARK VINA RESULT:      -2.8      2.970      3.659
REMARK  0 active torsions:
REMARK  status: ('A' for Active; 'I' for Inactive)
ROOT
ATOM      1  C   UNL d   1     -41.478-122.496 -51.065  0.00  0.00     0.221 A 
ATOM      2  N   UNL d   1     -42.084-122.324 -50.532  0.00  0.00    -0.217 NA
ATOM      3  N   UNL d   1     -41.123-123.243 -51.070  0.00  0.00    -0.216 NA
ATOM      4  S   UNL d   1     -41.204-121.940 -51.609  0.00  0.00    -0.037 SA
ATOM      5  C   UNL d   1     -42.340-122.897 -50.000  0.00  0.00     0.085 A 
ATOM      6  C   UNL d   1     -41.383-123.817 -50.531  0.00  0.00     0.103 A 
ATOM      7  C   UNL d   1     -41.989-123.645 -49.998  0.00  0.00     0.040 A 
ATOM      8  C   UNL d   1     -42.947-122.706 -49.475  0.00  0.00     0.021 C 
ENDROOT
TORSDOF 0
ENDMDL
MODEL 6
REMARK VINA RESULT:      -2.8      9.928     10.402
REMARK  0 active torsions:
REMARK  status: ('A' for Active; 'I' for Inactive)
ROOT
ATOM      1  C   UNL d   1     -42.756-114.831 -47.301  0.00  0.00     0.221 A 
ATOM      2  N   UNL d   1     -42.343-115.498 -47.047  0.00  0.00    -0.217 NA
ATOM      3  N   UNL d   1     -42.358-114.121 -47.449  0.00  0.00    -0.216 NA
ATOM      4  S   UNL d   1     -43.572-114.841 -47.419  0.00  0.00    -0.037 SA
ATOM      5  C   UNL d   1     -41.527-115.460 -46.938  0.00  0.00     0.085 A 
ATOM      6  C   UNL d   1     -41.536-114.088 -47.337  0.00  0.00     0.103 A 
ATOM      7  C   UNL d   1     -41.123-114.755 -47.083  0.00  0.00     0.040 A 
ATOM      8  C   UNL d   1     -41.131-116.138 -46.682  0.00  0.00     0.021 C 
ENDROOT
TORSDOF 0
ENDMDL
MODEL 7
REMARK VINA RESULT:      -2.1      5.064      5.371
REMARK  0 active torsions:
REMARK  status: ('A' for Active; 'I' for Inactive)
ROOT
ATOM      1  C   UNL d   1     -42.064-123.341 -47.822  0.00  0.00     0.221 A 
ATOM      2  N   UNL d   1     -42.617-123.042 -48.357  0.00  0.00    -0.217 NA
ATOM      3  N   UNL d   1     -41.321-123.595 -48.084  0.00  0.00    -0.216 NA
ATOM      4  S   UNL d   1     -42.224-123.400 -47.015  0.00  0.00    -0.037 SA
ATOM      5  C   UNL d   1     -42.432-122.994 -49.158  0.00  0.00     0.085 A 
ATOM      6  C   UNL d   1     -41.139-123.545 -48.892  0.00  0.00     0.103 A 
ATOM      7  C   UNL d   1     -41.692-123.246 -49.427  0.00  0.00     0.040 A 
ATOM      8  C   UNL d   1     -42.998-122.693 -49.676  0.00  0.00     0.021 C 
ENDROOT
TORSDOF 0
ENDMDL
MODEL 8
REMARK VINA RESULT:      -2.1      1.644      2.236
REMARK  0 active torsions:
REMARK  status: ('A' for Active; 'I' for Inactive)
ROOT
ATOM      1  C   UNL d   1     -41.480-122.374 -51.336  0.00  0.00     0.221 A 
ATOM      2  N   UNL d   1     -41.284-123.041 -51.780  0.00  0.00    -0.217 NA
ATOM      3  N   UNL d   1     -41.719-121.675 -51.710  0.00  0.00    -0.216 NA
ATOM      4  S   UNL d   1     -41.449-122.372 -50.512  0.00  0.00    -0.037 SA
ATOM      5  C   UNL d   1     -41.324-123.015 -52.602  0.00  0.00     0.085 A 
ATOM      6  C   UNL d   1     -41.758-121.655 -52.539  0.00  0.00     0.103 A 
ATOM      7  C   UNL d   1     -41.561-122.322 -52.983  0.00  0.00     0.040 A 
ATOM      8  C   UNL d   1     -41.123-123.692 -53.028  0.00  0.00     0.021 C 
ENDROOT
TORSDOF 0
ENDMDL
