MODEL 1
REMARK VINA RESULT:      30.7      0.000      0.000
REMARK  3 active torsions:
REMARK  status: ('A' for Active; 'I' for Inactive)
REMARK    1  A    between atoms: C_7  and  N_1 
REMARK    2  A    between atoms: N_3  and  C_8 
REMARK    3  A    between atoms: C_11  and  C_4 
ROOT
ATOM      1  N   UNL d   1      13.373  12.440  -3.893  0.00  0.00    -0.230 N 
ATOM      2  N   UNL d   1      13.179  11.867  -4.441  0.00  0.00    -0.165 NA
ATOM      3  C   UNL d   1      13.316  13.187  -4.264  0.00  0.00     0.084 A 
ATOM      4  C   UNL d   1      13.000  12.241  -5.153  0.00  0.00     0.103 A 
ATOM      5  C   UNL d   1      13.083  13.049  -5.047  0.00  0.00     0.040 A 
ATOM      6  C   UNL d   1      12.777  11.779  -5.826  0.00  0.00     0.022 C 
ENDROOT
BRANCH   1   7
ATOM      7  C   UNL d   1      13.586  12.296  -3.116  0.00  0.00     0.083 A 
ATOM      8  C   UNL d   1      14.335  12.505  -2.852  0.00  0.00     0.021 A 
ATOM      9  C   UNL d   1      14.550  12.361  -2.069  0.00  0.00     0.025 A 
ATOM     10  C   UNL d   1      14.021  12.008  -1.545  0.00  0.00     0.127 A 
ATOM     11  C   UNL d   1      13.270  11.798  -1.810  0.00  0.00     0.025 A 
ATOM     12  C   UNL d   1      13.056  11.944  -2.597  0.00  0.00     0.021 A 
BRANCH  10  13
ATOM     13  N   UNL d   1      14.246  11.863  -0.750  0.00  0.00    -0.114 N 
ATOM     14  O   UNL d   1      13.705  11.781  -0.094  0.00  0.00    -0.532 OA
ATOM     15  O   UNL d   1      15.038  11.779  -0.487  0.00  0.00    -0.532 OA
ENDBRANCH  10  13
ENDBRANCH   1   7
BRANCH   3  16
ATOM     16  C   UNL d   1      13.454  13.943  -3.954  0.00  0.00     0.018 A 
ATOM     17  C   UNL d   1      12.801  14.452  -3.845  0.00  0.00     0.002 A 
ATOM     18  C   UNL d   1      12.921  15.218  -3.534  0.00  0.00     0.000 A 
ATOM     19  C   UNL d   1      13.683  15.462  -3.339  0.00  0.00     0.000 A 
ATOM     20  C   UNL d   1      14.321  14.958  -3.449  0.00  0.00     0.000 A 
ATOM     21  C   UNL d   1      14.223  14.200  -3.754  0.00  0.00     0.002 A 
ENDBRANCH   3  16
TORSDOF 3
ENDMDL
