MODEL 1
REMARK VINA RESULT:      37.5      0.000      0.000
REMARK  2 active torsions:
REMARK  status: ('A' for Active; 'I' for Inactive)
REMARK    1  A    between atoms: C_13  and  C_5 
REMARK    2  A    between atoms: C_16  and  C_13 
ROOT
ATOM      1  C   UNL d   1      46.150 -18.690  43.848  0.00  0.00     0.111 A 
ATOM      2  C   UNL d   1      46.024 -17.270  43.797  0.00  0.00     0.062 A 
ATOM      3  C   UNL d   1      45.788 -18.696  44.578  0.00  0.00     0.213 A 
ATOM      4  C   UNL d   1      45.661 -17.276  44.527  0.00  0.00     0.101 A 
ATOM      5  C   UNL d   1      46.269 -17.983  43.460  0.00  0.00     0.018 A 
ATOM      6  O   UNL d   1      45.545 -17.995  44.915  0.00  0.00    -0.288 OA
ATOM      7  C   UNL d   1      46.142 -16.564  43.409  0.00  0.00     0.194 A 
ATOM      8  C   UNL d   1      46.392 -19.444  43.526  0.00  0.00     0.105 C 
ATOM      9  N   UNL d   1      46.638 -20.179  43.189  0.00  0.00    -0.191 NA
ATOM     10  C   UNL d   1      45.418 -16.576  44.864  0.00  0.00     0.002 A 
ATOM     11  C   UNL d   1      45.535 -15.854  44.476  0.00  0.00     0.042 A 
ATOM     12  C   UNL d   1      45.897 -15.848  43.746  0.00  0.00     0.019 A 
ATOM     13  O   UNL d   1      46.514 -16.557  42.662  0.00  0.00    -0.287 OA
ATOM     14  N   UNL d   1      45.681 -19.456  44.955  0.00  0.00    -0.120 N 
ATOM     15  C   UNL d   1      45.563 -15.072  44.251  0.00  0.00     0.009 C 
ATOM     16  C   UNL d   1      45.235 -15.270  44.953  0.00  0.00     0.009 C 
ENDROOT
BRANCH   5  17
ATOM     17  C   UNL d   1      46.640 -17.977  42.713  0.00  0.00     0.001 C 
BRANCH  17  18
ATOM     18  C   UNL d   1      46.257 -18.286  42.059  0.00  0.00     0.000 A 
ATOM     19  C   UNL d   1      45.475 -18.053  41.882  0.00  0.00     0.000 A 
ATOM     20  C   UNL d   1      45.087 -18.373  41.209  0.00  0.00     0.000 A 
ATOM     21  C   UNL d   1      45.457 -18.898  40.739  0.00  0.00     0.000 A 
ATOM     22  C   UNL d   1      46.243 -19.142  40.904  0.00  0.00     0.000 A 
ATOM     23  C   UNL d   1      46.645 -18.837  41.565  0.00  0.00     0.000 A 
ENDBRANCH  17  18
ENDBRANCH   5  17
TORSDOF 2
ENDMDL
