MODEL 1
REMARK VINA RESULT:      11.4      0.000      0.000
REMARK  3 active torsions:
REMARK  status: ('A' for Active; 'I' for Inactive)
REMARK    1  A    between atoms: S_5  and  C_1 
REMARK    2  A    between atoms: C_11  and  S_5 
REMARK    3  A    between atoms: C_9  and  C_11 
ROOT
ATOM      1  C   UNL d   1      46.051 -14.172  44.687  0.00  0.00     0.068 A 
ATOM      2  C   UNL d   1      45.260 -13.992  44.832  0.00  0.00     0.068 A 
ATOM      3  C   UNL d   1      46.295 -14.957  44.655  0.00  0.00     0.013 A 
ATOM      4  C   UNL d   1      44.714 -14.600  44.944  0.00  0.00     0.012 A 
ATOM      5  C   UNL d   1      45.751 -15.557  44.766  0.00  0.00     0.007 A 
ATOM      6 CL   UNL d   1      46.603 -13.563  44.574  0.00  0.00    -0.082 Cl
ATOM      7 CL   UNL d   1      45.007 -13.205  44.866  0.00  0.00    -0.082 Cl
ATOM      8  C   UNL d   1      44.958 -15.384  44.911  0.00  0.00     0.001 A 
ENDROOT
BRANCH   5   9
ATOM      9  C   UNL d   1      45.996 -16.346  44.733  0.00  0.00     0.038 C 
BRANCH   9  10
ATOM     10  S   UNL d   1      45.653 -16.944  44.268  0.00  0.00    -0.048 SA
BRANCH  10  11
ATOM     11  C   UNL d   1      46.046 -17.676  44.180  0.00  0.00     0.194 A 
ATOM     12  N   UNL d   1      46.276 -18.182  44.790  0.00  0.00    -0.218 NA
ATOM     13  C   UNL d   1      46.647 -18.843  44.454  0.00  0.00     0.122 A 
ATOM     14  C   UNL d   1      46.645 -18.742  43.629  0.00  0.00     0.122 A 
ATOM     15  N   UNL d   1      46.275 -18.022  43.463  0.00  0.00    -0.218 NA
ENDBRANCH  10  11
ENDBRANCH   9  10
ENDBRANCH   5   9
TORSDOF 3
ENDMDL
