MODEL 1
REMARK VINA RESULT:      -5.4      0.000      0.000
REMARK  2 active torsions:
REMARK  status: ('A' for Active; 'I' for Inactive)
REMARK    1  A    between atoms: C_6  and  C_1 
REMARK    2  A    between atoms: O_12  and  C_9 
ROOT
ATOM      1  C   UNL d   1     -42.018-122.086 -54.732  0.00  0.00     0.123 A 
ATOM      2  C   UNL d   1     -42.067-121.457 -54.200  0.00  0.00     0.305 A 
ATOM      3  O   UNL d   1     -41.875-121.569 -53.423  0.00  0.00    -0.271 OA
ATOM      4  C   UNL d   1     -41.777-122.810 -54.473  0.00  0.00     0.012 A 
ATOM      5  C   UNL d   1     -41.621-122.320 -53.138  0.00  0.00     0.125 A 
ATOM      6  C   UNL d   1     -41.571-122.949 -53.670  0.00  0.00     0.025 A 
ATOM      7  O   UNL d   1     -42.308-120.730 -54.456  0.00  0.00    -0.259 OA
ATOM      8  C   UNL d   1     -41.422-122.445 -52.345  0.00  0.00     0.117 A 
ATOM      9  C   UNL d   1     -41.323-123.686 -53.394  0.00  0.00     0.002 A 
ATOM     10  C   UNL d   1     -41.123-123.817 -52.601  0.00  0.00     0.002 A 
ATOM     11  C   UNL d   1     -41.172-123.189 -52.069  0.00  0.00     0.026 A 
ENDROOT
BRANCH   1  12
ATOM     12  C   UNL d   1     -42.208-121.994 -55.525  0.00  0.00     0.302 C 
ATOM     13  O   UNL d   1     -43.016-121.974 -55.780  0.00  0.00    -0.263 OA
ATOM     14  N   UNL d   1     -41.586-121.923 -56.067  0.00  0.00    -0.102 N 
ENDBRANCH   1  12
BRANCH   8  15
ATOM     15  O   UNL d   1     -41.471-121.824 -51.819  0.00  0.00    -0.326 OA
ATOM     16  C   UNL d   1     -41.201-121.908 -51.060  0.00  0.00     0.181 C 
ENDBRANCH   8  15
TORSDOF 2
ENDMDL
MODEL 2
REMARK VINA RESULT:      -4.8      1.684      3.138
REMARK  2 active torsions:
REMARK  status: ('A' for Active; 'I' for Inactive)
REMARK    1  A    between atoms: C_6  and  C_1 
REMARK    2  A    between atoms: O_12  and  C_9 
ROOT
ATOM      1  C   UNL d   1     -41.663-122.786 -51.635  0.00  0.00     0.123 A 
ATOM      2  C   UNL d   1     -41.936-122.067 -51.934  0.00  0.00     0.305 A 
ATOM      3  O   UNL d   1     -41.938-121.936 -52.732  0.00  0.00    -0.271 OA
ATOM      4  C   UNL d   1     -41.400-123.355 -52.141  0.00  0.00     0.012 A 
ATOM      5  C   UNL d   1     -41.667-122.523 -53.273  0.00  0.00     0.125 A 
ATOM      6  C   UNL d   1     -41.394-123.241 -52.974  0.00  0.00     0.025 A 
ATOM      7  O   UNL d   1     -42.200-121.494 -51.431  0.00  0.00    -0.259 OA
ATOM      8  C   UNL d   1     -41.665-122.399 -54.091  0.00  0.00     0.117 A 
ATOM      9  C   UNL d   1     -41.127-123.817 -53.501  0.00  0.00     0.002 A 
ATOM     10  C   UNL d   1     -41.124-123.700 -54.321  0.00  0.00     0.002 A 
ATOM     11  C   UNL d   1     -41.396-122.981 -54.620  0.00  0.00     0.026 A 
ENDROOT
BRANCH   1  12
ATOM     12  C   UNL d   1     -41.651-122.939 -50.829  0.00  0.00     0.302 C 
ATOM     13  O   UNL d   1     -42.152-123.533 -50.491  0.00  0.00    -0.263 OA
ATOM     14  N   UNL d   1     -41.136-122.494 -50.358  0.00  0.00    -0.102 N 
ENDBRANCH   1  12
BRANCH   8  15
ATOM     15  O   UNL d   1     -41.935-121.688 -54.388  0.00  0.00    -0.326 OA
ATOM     16  C   UNL d   1     -42.236-121.646 -55.138  0.00  0.00     0.181 C 
ENDBRANCH   8  15
TORSDOF 2
ENDMDL
MODEL 3
REMARK VINA RESULT:      -3.4      1.318      1.958
REMARK  2 active torsions:
REMARK  status: ('A' for Active; 'I' for Inactive)
REMARK    1  A    between atoms: C_6  and  C_1 
REMARK    2  A    between atoms: O_12  and  C_9 
ROOT
ATOM      1  C   UNL d   1     -41.616-122.789 -53.112  0.00  0.00     0.123 A 
ATOM      2  C   UNL d   1     -42.101-122.183 -52.831  0.00  0.00     0.305 A 
ATOM      3  O   UNL d   1     -42.257-122.125 -52.040  0.00  0.00    -0.271 OA
ATOM      4  C   UNL d   1     -41.300-123.320 -52.595  0.00  0.00     0.012 A 
ATOM      5  C   UNL d   1     -41.933-122.673 -51.487  0.00  0.00     0.125 A 
ATOM      6  C   UNL d   1     -41.448-123.279 -51.769  0.00  0.00     0.025 A 
ATOM      7  O   UNL d   1     -42.420-121.649 -53.345  0.00  0.00    -0.259 OA
ATOM      8  C   UNL d   1     -42.085-122.623 -50.676  0.00  0.00     0.117 A 
ATOM      9  C   UNL d   1     -41.129-123.817 -51.231  0.00  0.00     0.002 A 
ATOM     10  C   UNL d   1     -41.278-123.771 -50.418  0.00  0.00     0.002 A 
ATOM     11  C   UNL d   1     -41.763-123.166 -50.136  0.00  0.00     0.026 A 
ENDROOT
BRANCH   1  12
ATOM     12  C   UNL d   1     -41.445-122.866 -53.911  0.00  0.00     0.302 C 
ATOM     13  O   UNL d   1     -41.219-122.195 -54.376  0.00  0.00    -0.263 OA
ATOM     14  N   UNL d   1     -41.502-123.621 -54.247  0.00  0.00    -0.102 N 
ENDBRANCH   1  12
BRANCH   8  15
ATOM     15  O   UNL d   1     -42.565-122.024 -50.397  0.00  0.00    -0.326 OA
ATOM     16  C   UNL d   1     -42.970-122.115 -49.702  0.00  0.00     0.181 C 
ENDBRANCH   8  15
TORSDOF 2
ENDMDL
MODEL 4
REMARK VINA RESULT:      -2.7      2.904      4.458
REMARK  2 active torsions:
REMARK  status: ('A' for Active; 'I' for Inactive)
REMARK    1  A    between atoms: C_6  and  C_1 
REMARK    2  A    between atoms: O_12  and  C_9 
ROOT
ATOM      1  C   UNL d   1     -42.482-123.127 -49.332  0.00  0.00     0.123 A 
ATOM      2  C   UNL d   1     -42.785-122.418 -49.627  0.00  0.00     0.305 A 
ATOM      3  O   UNL d   1     -42.604-122.185 -50.380  0.00  0.00    -0.271 OA
ATOM      4  C   UNL d   1     -42.006-123.582 -49.796  0.00  0.00     0.012 A 
ATOM      5  C   UNL d   1     -42.107-122.651 -50.877  0.00  0.00     0.125 A 
ATOM      6  C   UNL d   1     -41.804-123.359 -50.581  0.00  0.00     0.025 A 
ATOM      7  O   UNL d   1     -43.263-121.959 -49.166  0.00  0.00    -0.259 OA
ATOM      8  C   UNL d   1     -41.915-122.420 -51.648  0.00  0.00     0.117 A 
ATOM      9  C   UNL d   1     -41.318-123.817 -51.064  0.00  0.00     0.002 A 
ATOM     10  C   UNL d   1     -41.123-123.592 -51.837  0.00  0.00     0.002 A 
ATOM     11  C   UNL d   1     -41.425-122.884 -52.132  0.00  0.00     0.026 A 
ENDROOT
BRANCH   1  12
ATOM     12  C   UNL d   1     -42.654-123.383 -48.571  0.00  0.00     0.302 C 
ATOM     13  O   UNL d   1     -43.397-123.747 -48.391  0.00  0.00    -0.263 OA
ATOM     14  N   UNL d   1     -42.077-123.274 -47.987  0.00  0.00    -0.102 N 
ENDBRANCH   1  12
BRANCH   8  15
ATOM     15  O   UNL d   1     -42.215-121.720 -51.940  0.00  0.00    -0.326 OA
ATOM     16  C   UNL d   1     -42.034-121.481 -52.692  0.00  0.00     0.181 C 
ENDBRANCH   8  15
TORSDOF 2
ENDMDL
