MODEL 1
REMARK VINA RESULT:      -0.7      0.000      0.000
REMARK  5 active torsions:
REMARK  status: ('A' for Active; 'I' for Inactive)
REMARK    1  A    between atoms: S_2  and  N_1 
REMARK    2  A    between atoms: C_10  and  S_2 
REMARK    3  A    between atoms: N_7  and  C_3 
REMARK    4  A    between atoms: C_12  and  C_6 
REMARK    5  A    between atoms: C_13  and  N_7 
ROOT
ATOM      1  N   UNL d   1      58.183  -1.454  29.978  0.00  0.00    -0.176 N 
ATOM      2  C   UNL d   1      58.535  -0.733  29.803  0.00  0.00     0.191 A 
ATOM      3  C   UNL d   1      57.656  -1.356  30.593  0.00  0.00     0.281 A 
ATOM      4  S   UNL d   1      58.213  -0.181  30.327  0.00  0.00    -0.044 SA
ATOM      5  C   UNL d   1      57.666  -0.594  30.811  0.00  0.00     0.089 A 
ATOM      6  O   UNL d   1      57.167  -1.940  30.960  0.00  0.00    -0.265 OA
ENDROOT
BRANCH   1   7
ATOM      7  S   UNL d   1      58.329  -2.169  29.600  0.00  0.00     0.275 S 
ATOM      8  O   UNL d   1      57.886  -1.949  28.929  0.00  0.00    -0.199 OA
ATOM      9  O   UNL d   1      58.780  -2.430  30.251  0.00  0.00    -0.199 OA
BRANCH   7  10
ATOM     10  C   UNL d   1      58.478  -2.882  29.231  0.00  0.00     0.104 A 
ATOM     11  C   UNL d   1      59.238  -3.217  29.271  0.00  0.00     0.013 A 
ATOM     12  C   UNL d   1      59.415  -3.942  28.903  0.00  0.00     0.001 A 
ATOM     13  C   UNL d   1      58.803  -4.355  28.474  0.00  0.00     0.000 A 
ATOM     14  C   UNL d   1      58.079  -4.002  28.457  0.00  0.00     0.001 A 
ATOM     15  C   UNL d   1      57.908  -3.297  28.814  0.00  0.00     0.013 A 
ENDBRANCH   7  10
ENDBRANCH   1   7
BRANCH   2  16
ATOM     16  N   UNL d   1      59.084  -0.674  29.211  0.00  0.00    -0.222 NA
BRANCH  16  17
ATOM     17  C   UNL d   1      59.771  -0.220  29.330  0.00  0.00     0.084 A 
ATOM     18  C   UNL d   1      60.252  -0.036  28.691  0.00  0.00     0.019 A 
ATOM     19  C   UNL d   1      60.937   0.414  28.796  0.00  0.00     0.002 A 
ATOM     20  C   UNL d   1      61.133   0.681  29.572  0.00  0.00     0.000 A 
ATOM     21  C   UNL d   1      60.651   0.496  30.210  0.00  0.00     0.002 A 
ATOM     22  C   UNL d   1      59.967   0.043  30.084  0.00  0.00     0.019 A 
ENDBRANCH  16  17
ENDBRANCH   2  16
BRANCH   5  23
ATOM     23  C   UNL d   1      57.200  -0.300  31.418  0.00  0.00     0.011 A 
ATOM     24  C   UNL d   1      57.177  -0.680  32.132  0.00  0.00     0.001 A 
ATOM     25  C   UNL d   1      56.709  -0.388  32.748  0.00  0.00     0.000 A 
ATOM     26  C   UNL d   1      56.260   0.290  32.649  0.00  0.00     0.000 A 
ATOM     27  C   UNL d   1      56.285   0.679  31.912  0.00  0.00     0.000 A 
ATOM     28  C   UNL d   1      56.754   0.389  31.292  0.00  0.00     0.001 A 
ENDBRANCH   5  23
TORSDOF 5
ENDMDL
MODEL 2
REMARK VINA RESULT:       0.5      1.397      1.977
REMARK  5 active torsions:
REMARK  status: ('A' for Active; 'I' for Inactive)
REMARK    1  A    between atoms: S_2  and  N_1 
REMARK    2  A    between atoms: C_10  and  S_2 
REMARK    3  A    between atoms: N_7  and  C_3 
REMARK    4  A    between atoms: C_12  and  C_6 
REMARK    5  A    between atoms: C_13  and  N_7 
ROOT
ATOM      1  N   UNL d   1      57.812  -0.361  31.067  0.00  0.00    -0.176 N 
ATOM      2  C   UNL d   1      58.130   0.326  31.384  0.00  0.00     0.191 A 
ATOM      3  C   UNL d   1      57.156  -0.580  31.500  0.00  0.00     0.281 A 
ATOM      4  S   UNL d   1      57.655   0.530  32.028  0.00  0.00    -0.044 SA
ATOM      5  C   UNL d   1      57.052  -0.051  32.081  0.00  0.00     0.089 A 
ATOM      6  O   UNL d   1      56.650  -1.247  31.380  0.00  0.00    -0.265 OA
ENDROOT
BRANCH   1   7
ATOM      7  S   UNL d   1      58.098  -0.773  30.416  0.00  0.00     0.275 S 
ATOM      8  O   UNL d   1      57.801  -0.208  29.880  0.00  0.00    -0.199 OA
ATOM      9  O   UNL d   1      58.412  -1.361  30.916  0.00  0.00    -0.199 OA
BRANCH   7  10
ATOM     10  C   UNL d   1      58.386  -1.188  29.774  0.00  0.00     0.104 A 
ATOM     11  C   UNL d   1      58.451  -2.016  29.813  0.00  0.00     0.013 A 
ATOM     12  C   UNL d   1      58.741  -2.461  29.172  0.00  0.00     0.001 A 
ATOM     13  C   UNL d   1      58.980  -2.060  28.456  0.00  0.00     0.000 A 
ATOM     14  C   UNL d   1      58.903  -1.257  28.455  0.00  0.00     0.001 A 
ATOM     15  C   UNL d   1      58.621  -0.826  29.077  0.00  0.00     0.013 A 
ENDBRANCH   7  10
ENDBRANCH   1   7
BRANCH   2  16
ATOM     16  N   UNL d   1      58.789   0.665  31.058  0.00  0.00    -0.222 NA
BRANCH  16  17
ATOM     17  C   UNL d   1      59.503   0.669  31.484  0.00  0.00     0.084 A 
ATOM     18  C   UNL d   1      60.218   0.665  31.080  0.00  0.00     0.019 A 
ATOM     19  C   UNL d   1      60.934   0.669  31.490  0.00  0.00     0.002 A 
ATOM     20  C   UNL d   1      60.919   0.677  32.334  0.00  0.00     0.000 A 
ATOM     21  C   UNL d   1      60.204   0.681  32.737  0.00  0.00     0.002 A 
ATOM     22  C   UNL d   1      59.495   0.677  32.306  0.00  0.00     0.019 A 
ENDBRANCH  16  17
ENDBRANCH   2  16
BRANCH   5  23
ATOM     23  C   UNL d   1      56.439  -0.103  32.623  0.00  0.00     0.011 A 
ATOM     24  C   UNL d   1      56.353  -0.770  33.074  0.00  0.00     0.001 A 
ATOM     25  C   UNL d   1      55.737  -0.827  33.623  0.00  0.00     0.000 A 
ATOM     26  C   UNL d   1      55.205  -0.214  33.723  0.00  0.00     0.000 A 
ATOM     27  C   UNL d   1      55.296   0.471  33.257  0.00  0.00     0.000 A 
ATOM     28  C   UNL d   1      55.912   0.533  32.705  0.00  0.00     0.001 A 
ENDBRANCH   5  23
TORSDOF 5
ENDMDL
