MODEL 1
REMARK VINA RESULT:     -10.0      0.000      0.000
REMARK  5 active torsions:
REMARK  status: ('A' for Active; 'I' for Inactive)
REMARK    1  A    between atoms: C_3  and  S_1 
REMARK    2  A    between atoms: N_10  and  S_1 
REMARK    3  A    between atoms: C_19  and  N_10 
REMARK    4  A    between atoms: C_21  and  C_19 
REMARK    5  A    between atoms: C_22  and  C_21 
ROOT
ATOM      1  N   UNL d   1      52.689  34.595  53.767  0.00  0.00    -0.273 N 
ATOM      2  C   UNL d   1      52.967  32.157  53.466  0.00  0.00     0.104 A 
ATOM      3  C   UNL d   1      52.782  33.781  53.667  0.00  0.00     0.067 A 
ATOM      4  C   UNL d   1      53.286  33.363  54.164  0.00  0.00     0.017 A 
ATOM      5  C   UNL d   1      52.370  33.389  53.069  0.00  0.00     0.017 A 
ATOM      6  C   UNL d   1      53.101  34.987  54.365  0.00  0.00     0.265 A 
ATOM      7  C   UNL d   1      53.379  32.549  54.063  0.00  0.00     0.014 A 
ATOM      8  C   UNL d   1      52.462  32.579  52.968  0.00  0.00     0.014 A 
ATOM      9  C   UNL d   1      53.698  33.755  54.762  0.00  0.00     0.006 A 
ATOM     10  C   UNL d   1      53.606  34.564  54.862  0.00  0.00     0.061 A 
ATOM     11  O   UNL d   1      53.010  35.809  54.470  0.00  0.00    -0.267 OA
ATOM     12  C   UNL d   1      52.184  35.017  53.269  0.00  0.00     0.083 A 
ATOM     13  C   UNL d   1      51.869  33.804  52.574  0.00  0.00     0.003 A 
ATOM     14  C   UNL d   1      51.776  34.617  52.674  0.00  0.00     0.019 A 
ENDROOT
BRANCH   2  15
ATOM     15  S   UNL d   1      53.062  31.339  53.367  0.00  0.00     0.271 S 
ATOM     16  O   UNL d   1      53.888  31.439  53.372  0.00  0.00    -0.200 OA
ATOM     17  O   UNL d   1      52.239  31.233  53.362  0.00  0.00    -0.200 OA
BRANCH  15  18
ATOM     18  N   UNL d   1      53.162  30.515  53.269  0.00  0.00    -0.228 N 
ATOM     19  C   UNL d   1      52.915  30.144  52.578  0.00  0.00     0.111 C 
BRANCH  18  20
ATOM     20  C   UNL d   1      53.510  30.067  53.866  0.00  0.00     0.092 C 
BRANCH  20  21
ATOM     21  C   UNL d   1      53.244  29.299  54.016  0.00  0.00     0.020 C 
BRANCH  21  22
ATOM     22  C   UNL d   1      53.660  28.813  54.536  0.00  0.00     0.002 C 
ATOM     23  C   UNL d   1      53.293  28.501  55.191  0.00  0.00     0.000 C 
ENDBRANCH  21  22
ENDBRANCH  20  21
ENDBRANCH  18  20
ENDBRANCH  15  18
ENDBRANCH   2  15
TORSDOF 5
ENDMDL
MODEL 2
REMARK VINA RESULT:      -9.8      2.028      4.188
REMARK  5 active torsions:
REMARK  status: ('A' for Active; 'I' for Inactive)
REMARK    1  A    between atoms: C_3  and  S_1 
REMARK    2  A    between atoms: N_10  and  S_1 
REMARK    3  A    between atoms: C_19  and  N_10 
REMARK    4  A    between atoms: C_21  and  C_19 
REMARK    5  A    between atoms: C_22  and  C_21 
ROOT
ATOM      1  N   UNL d   1      53.810  32.877  54.148  0.00  0.00    -0.273 N 
ATOM      2  C   UNL d   1      51.710  33.754  53.182  0.00  0.00     0.104 A 
ATOM      3  C   UNL d   1      53.108  33.171  53.826  0.00  0.00     0.067 A 
ATOM      4  C   UNL d   1      52.850  33.924  54.026  0.00  0.00     0.017 A 
ATOM      5  C   UNL d   1      52.669  32.707  53.304  0.00  0.00     0.017 A 
ATOM      6  C   UNL d   1      54.249  33.341  54.670  0.00  0.00     0.265 A 
ATOM      7  C   UNL d   1      52.149  34.217  53.704  0.00  0.00     0.014 A 
ATOM      8  C   UNL d   1      51.971  32.997  52.982  0.00  0.00     0.014 A 
ATOM      9  C   UNL d   1      53.290  34.388  54.549  0.00  0.00     0.006 A 
ATOM     10  C   UNL d   1      53.987  34.097  54.870  0.00  0.00     0.061 A 
ATOM     11  O   UNL d   1      54.958  33.048  54.998  0.00  0.00    -0.267 OA
ATOM     12  C   UNL d   1      54.071  32.120  53.948  0.00  0.00     0.083 A 
ATOM     13  C   UNL d   1      52.924  31.957  53.103  0.00  0.00     0.003 A 
ATOM     14  C   UNL d   1      53.625  31.663  53.425  0.00  0.00     0.019 A 
ENDROOT
BRANCH   2  15
ATOM     15  S   UNL d   1      51.005  34.051  52.860  0.00  0.00     0.271 S 
ATOM     16  O   UNL d   1      50.570  33.619  53.422  0.00  0.00    -0.200 OA
ATOM     17  O   UNL d   1      51.434  34.485  52.297  0.00  0.00    -0.200 OA
BRANCH  15  18
ATOM     18  N   UNL d   1      50.294  34.350  52.537  0.00  0.00    -0.228 N 
ATOM     19  C   UNL d   1      50.094  34.196  51.755  0.00  0.00     0.111 C 
BRANCH  18  20
ATOM     20  C   UNL d   1      49.787  34.801  53.004  0.00  0.00     0.092 C 
BRANCH  20  21
ATOM     21  C   UNL d   1      49.106  35.131  52.674  0.00  0.00     0.020 C 
BRANCH  21  22
ATOM     22  C   UNL d   1      48.597  35.581  53.143  0.00  0.00     0.002 C 
ATOM     23  C   UNL d   1      47.960  35.962  52.811  0.00  0.00     0.000 C 
ENDBRANCH  21  22
ENDBRANCH  20  21
ENDBRANCH  18  20
ENDBRANCH  15  18
ENDBRANCH   2  15
TORSDOF 5
ENDMDL
MODEL 3
REMARK VINA RESULT:      -9.2      2.090      4.453
REMARK  5 active torsions:
REMARK  status: ('A' for Active; 'I' for Inactive)
REMARK    1  A    between atoms: C_3  and  S_1 
REMARK    2  A    between atoms: N_10  and  S_1 
REMARK    3  A    between atoms: C_19  and  N_10 
REMARK    4  A    between atoms: C_21  and  C_19 
REMARK    5  A    between atoms: C_22  and  C_21 
ROOT
ATOM      1  N   UNL d   1      53.573  32.687  53.894  0.00  0.00    -0.273 N 
ATOM      2  C   UNL d   1      51.491  33.746  53.082  0.00  0.00     0.104 A 
ATOM      3  C   UNL d   1      52.877  33.040  53.623  0.00  0.00     0.067 A 
ATOM      4  C   UNL d   1      52.374  32.622  53.126  0.00  0.00     0.017 A 
ATOM      5  C   UNL d   1      52.690  33.811  53.850  0.00  0.00     0.017 A 
ATOM      6  C   UNL d   1      53.760  31.917  53.667  0.00  0.00     0.265 A 
ATOM      7  C   UNL d   1      51.679  32.975  52.854  0.00  0.00     0.014 A 
ATOM      8  C   UNL d   1      51.999  34.163  53.581  0.00  0.00     0.014 A 
ATOM      9  C   UNL d   1      52.562  31.852  52.899  0.00  0.00     0.006 A 
ATOM     10  C   UNL d   1      53.253  31.499  53.168  0.00  0.00     0.061 A 
ATOM     11  O   UNL d   1      54.461  31.556  53.939  0.00  0.00    -0.267 OA
ATOM     12  C   UNL d   1      54.080  33.106  54.394  0.00  0.00     0.083 A 
ATOM     13  C   UNL d   1      53.190  34.228  54.344  0.00  0.00     0.003 A 
ATOM     14  C   UNL d   1      53.885  33.876  54.616  0.00  0.00     0.019 A 
ENDROOT
BRANCH   2  15
ATOM     15  S   UNL d   1      50.792  34.098  52.807  0.00  0.00     0.271 S 
ATOM     16  O   UNL d   1      50.373  33.741  53.431  0.00  0.00    -0.200 OA
ATOM     17  O   UNL d   1      51.205  34.456  52.183  0.00  0.00    -0.200 OA
BRANCH  15  18
ATOM     18  N   UNL d   1      50.086  34.451  52.533  0.00  0.00    -0.228 N 
ATOM     19  C   UNL d   1      49.848  34.357  51.753  0.00  0.00     0.111 C 
BRANCH  18  20
ATOM     20  C   UNL d   1      49.622  34.899  53.047  0.00  0.00     0.092 C 
BRANCH  20  21
ATOM     21  C   UNL d   1      48.950  35.286  52.765  0.00  0.00     0.020 C 
BRANCH  21  22
ATOM     22  C   UNL d   1      48.502  35.757  53.273  0.00  0.00     0.002 C 
ATOM     23  C   UNL d   1      47.854  36.162  52.995  0.00  0.00     0.000 C 
ENDBRANCH  21  22
ENDBRANCH  20  21
ENDBRANCH  18  20
ENDBRANCH  15  18
ENDBRANCH   2  15
TORSDOF 5
ENDMDL
