MODEL 1
REMARK VINA RESULT:      -5.0      0.000      0.000
REMARK  3 active torsions:
REMARK  status: ('A' for Active; 'I' for Inactive)
REMARK    1  A    between atoms: C_7  and  C_1 
REMARK    2  A    between atoms: C_12  and  C_6 
REMARK       I    between atoms: N_10  and  C_7 
REMARK    3  A    between atoms: C_13  and  N_10 
ROOT
ATOM      1  C   UNL d   1      57.716   0.039  31.007  0.00  0.00     0.108 A 
ATOM      2  C   UNL d   1      58.601  -0.425  30.148  0.00  0.00     0.046 A 
ATOM      3  C   UNL d   1      57.905  -0.607  30.541  0.00  0.00     0.116 A 
ATOM      4  C   UNL d   1      58.823   0.333  30.385  0.00  0.00     0.112 A 
ATOM      5  S   UNL d   1      58.260   0.606  30.919  0.00  0.00    -0.061 SA
ATOM      6  C   UNL d   1      59.065  -0.839  29.610  0.00  0.00     0.028 A 
ATOM      7  N   UNL d   1      59.511   0.682  30.084  0.00  0.00    -0.239 NA
ATOM      8  C   UNL d   1      59.754  -0.500  29.304  0.00  0.00     0.020 A 
ATOM      9  C   UNL d   1      59.976   0.258  29.540  0.00  0.00     0.082 A 
ATOM     10  N   UNL d   1      57.469  -1.312  30.481  0.00  0.00    -0.147 N 
ATOM     11  C   UNL d   1      60.218  -0.914  28.765  0.00  0.00     0.002 A 
ATOM     12  C   UNL d   1      60.664   0.607  29.240  0.00  0.00     0.019 A 
ATOM     13  C   UNL d   1      60.911  -0.575  28.456  0.00  0.00     0.000 A 
ATOM     14  C   UNL d   1      61.133   0.183  28.693  0.00  0.00     0.002 A 
ENDROOT
BRANCH   1  15
ATOM     15  C   UNL d   1      57.061   0.116  31.504  0.00  0.00     0.287 C 
ATOM     16  N   UNL d   1      57.036  -0.255  32.233  0.00  0.00    -0.208 NA
ATOM     17  O   UNL d   1      56.418   0.580  31.253  0.00  0.00    -0.265 OA
BRANCH  16  18
ATOM     18  C   UNL d   1      56.380  -0.170  32.718  0.00  0.00     0.085 A 
ATOM     19  C   UNL d   1      55.992  -0.839  33.013  0.00  0.00     0.018 A 
ATOM     20  C   UNL d   1      56.210  -1.593  32.860  0.00  0.00     0.002 C 
ATOM     21  C   UNL d   1      55.325  -0.734  33.505  0.00  0.00     0.002 A 
ATOM     22  C   UNL d   1      55.051   0.029  33.699  0.00  0.00     0.000 A 
ATOM     23  C   UNL d   1      55.453   0.682  33.393  0.00  0.00     0.002 A 
ATOM     24  C   UNL d   1      56.113   0.588  32.907  0.00  0.00     0.019 A 
ENDBRANCH  16  18
ENDBRANCH   1  15
BRANCH   6  25
ATOM     25  C   UNL d   1      58.843  -1.593  29.374  0.00  0.00     0.100 A 
ATOM     26  O   UNL d   1      58.963  -2.311  29.756  0.00  0.00    -0.305 OA
ATOM     27  C   UNL d   1      58.633  -2.903  29.284  0.00  0.00     0.123 A 
ATOM     28  C   UNL d   1      58.320  -2.562  28.633  0.00  0.00     0.029 A 
ATOM     29  C   UNL d   1      58.440  -1.758  28.672  0.00  0.00     0.027 A 
ENDBRANCH   6  25
TORSDOF 3
ENDMDL
