MODEL 1
REMARK VINA RESULT:      21.7      0.000      0.000
REMARK  4 active torsions:
REMARK  status: ('A' for Active; 'I' for Inactive)
REMARK    1  A    between atoms: C_2  and  C_1 
REMARK       I    between atoms: N_9  and  C_2 
REMARK    2  A    between atoms: C_16  and  N_9 
REMARK    3  A    between atoms: C_13  and  C_16 
REMARK    4  A    between atoms: O_17  and  C_13 
ROOT
ATOM      1  C   UNL d   1      44.850 -15.371  36.727  0.00  0.00     0.073 A 
ATOM      2  C   UNL d   1      45.364 -16.198  37.698  0.00  0.00     0.001 A 
ATOM      3  C   UNL d   1      45.855 -14.682  36.885  0.00  0.00     0.001 A 
ATOM      4  C   UNL d   1      46.055 -15.074  37.316  0.00  0.00     0.001 A 
ATOM      5  C   UNL d   1      45.376 -14.521  36.441  0.00  0.00     0.009 A 
ATOM      6  C   UNL d   1      44.790 -16.021  37.177  0.00  0.00     0.009 A 
ATOM      7  C   UNL d   1      45.485 -14.893  36.795  0.00  0.00     0.009 A 
ATOM      8  C   UNL d   1      46.516 -14.378  37.103  0.00  0.00     0.000 A 
ATOM      9  C   UNL d   1      45.775 -15.544  37.482  0.00  0.00     0.000 A 
ATOM     10  C   UNL d   1      45.995 -15.724  37.766  0.00  0.00     0.000 A 
ATOM     11  C   UNL d   1      46.425 -15.528  37.908  0.00  0.00     0.000 C 
ATOM     12  C   UNL d   1      45.695 -14.089  36.330  0.00  0.00     0.000 C 
ATOM     13  C   UNL d   1      45.113 -16.905  38.062  0.00  0.00     0.000 C 
ENDROOT
BRANCH   1  14
ATOM     14  C   UNL d   1      44.153 -15.793  36.575  0.00  0.00     0.255 C 
ATOM     15  N   UNL d   1      43.429 -15.385  36.481  0.00  0.00    -0.205 NA
ATOM     16  O   UNL d   1      44.165 -16.618  36.515  0.00  0.00    -0.270 OA
BRANCH  15  17
ATOM     17  C   UNL d   1      42.736 -15.807  36.330  0.00  0.00     0.170 C 
BRANCH  17  18
ATOM     18  C   UNL d   1      42.002 -15.488  36.530  0.00  0.00     0.316 C 
ATOM     19  O   UNL d   1      41.951 -14.725  36.841  0.00  0.00    -0.257 OA
BRANCH  18  20
ATOM     20  O   UNL d   1      41.314 -15.939  36.418  0.00  0.00    -0.295 OA
ATOM     21  C   UNL d   1      40.576 -15.569  36.392  0.00  0.00     0.185 C 
ENDBRANCH  18  20
ENDBRANCH  17  18
ENDBRANCH  15  17
ENDBRANCH   1  14
TORSDOF 4
ENDMDL
