MODEL 1
REMARK VINA RESULT:      71.3      0.000      0.000
REMARK  7 active torsions:
REMARK  status: ('A' for Active; 'I' for Inactive)
REMARK    1  A    between atoms: C_3  and  C_1 
REMARK    2  A    between atoms: C_5  and  C_3 
REMARK    3  A    between atoms: C_14  and  C_3 
REMARK    4  A    between atoms: N_6  and  C_14 
REMARK    5  A    between atoms: O_17  and  C_9 
REMARK    6  A    between atoms: O_18  and  C_10 
REMARK    7  A    between atoms: O_19  and  C_11 
ROOT
ATOM      1  C   UNL d   1     -51.236  25.832  33.897  0.00  0.00     0.025 C 
ENDROOT
BRANCH   1   2
ATOM      2  C   UNL d   1     -51.237  25.030  33.703  0.00  0.00     0.021 A 
ATOM      3  C   UNL d   1     -50.552  24.564  33.555  0.00  0.00     0.082 A 
ATOM      4  N   UNL d   1     -50.793  23.808  33.385  0.00  0.00    -0.246 NA
ATOM      5  C   UNL d   1     -49.770  24.834  33.580  0.00  0.00     0.021 C 
ATOM      6  C   UNL d   1     -51.617  23.788  33.422  0.00  0.00     0.081 A 
ATOM      7  C   UNL d   1     -51.877  24.549  33.620  0.00  0.00     0.019 A 
ATOM      8  C   UNL d   1     -52.158  23.195  33.307  0.00  0.00     0.019 A 
ATOM      9  C   UNL d   1     -52.685  24.698  33.698  0.00  0.00     0.002 A 
ATOM     10  C   UNL d   1     -53.228  24.097  33.581  0.00  0.00     0.000 A 
ATOM     11  C   UNL d   1     -52.967  23.336  33.383  0.00  0.00     0.002 A 
ENDBRANCH   1   2
BRANCH   1  12
ATOM     12  C   UNL d   1     -51.239  26.055  34.695  0.00  0.00     0.006 A 
ATOM     13  C   UNL d   1     -51.905  25.926  35.152  0.00  0.00     0.026 A 
ATOM     14  C   UNL d   1     -51.916  26.144  35.944  0.00  0.00     0.118 A 
ATOM     15  C   UNL d   1     -51.252  26.493  36.272  0.00  0.00     0.138 A 
ATOM     16  C   UNL d   1     -50.575  26.627  35.819  0.00  0.00     0.118 A 
ATOM     17  C   UNL d   1     -50.574  26.404  35.023  0.00  0.00     0.026 A 
BRANCH  14  18
ATOM     18  O   UNL d   1     -52.581  26.015  36.401  0.00  0.00    -0.326 OA
ATOM     19  C   UNL d   1     -52.968  25.294  36.373  0.00  0.00     0.181 C 
ENDBRANCH  14  18
BRANCH  15  20
ATOM     20  O   UNL d   1     -51.260  26.711  37.061  0.00  0.00    -0.324 OA
ATOM     21  C   UNL d   1     -51.140  26.133  37.640  0.00  0.00     0.182 C 
ENDBRANCH  15  20
BRANCH  16  22
ATOM     22  O   UNL d   1     -49.911  26.974  36.141  0.00  0.00    -0.326 OA
ATOM     23  C   UNL d   1     -49.716  27.751  35.959  0.00  0.00     0.181 C 
ENDBRANCH  16  22
ENDBRANCH   1  12
BRANCH   1  24
ATOM     24  C   UNL d   1     -51.233  26.411  33.306  0.00  0.00     0.148 C 
BRANCH  24  25
ATOM     25  N   UNL d   1     -51.700  27.084  33.438  0.00  0.00    -0.112 N 
ATOM     26  O   UNL d   1     -51.331  27.792  33.680  0.00  0.00    -0.532 OA
ATOM     27  O   UNL d   1     -52.512  27.049  33.331  0.00  0.00    -0.532 OA
ENDBRANCH  24  25
ENDBRANCH   1  24
TORSDOF 7
ENDMDL
MODEL 2
REMARK VINA RESULT:      71.6      0.510      1.582
REMARK  7 active torsions:
REMARK  status: ('A' for Active; 'I' for Inactive)
REMARK    1  A    between atoms: C_3  and  C_1 
REMARK    2  A    between atoms: C_5  and  C_3 
REMARK    3  A    between atoms: C_14  and  C_3 
REMARK    4  A    between atoms: N_6  and  C_14 
REMARK    5  A    between atoms: O_17  and  C_9 
REMARK    6  A    between atoms: O_18  and  C_10 
REMARK    7  A    between atoms: O_19  and  C_11 
ROOT
ATOM      1  C   UNL d   1     -50.992  26.185  33.890  0.00  0.00     0.025 C 
ENDROOT
BRANCH   1   2
ATOM      2  C   UNL d   1     -50.980  25.386  33.686  0.00  0.00     0.021 A 
ATOM      3  C   UNL d   1     -50.291  24.940  33.500  0.00  0.00     0.082 A 
ATOM      4  N   UNL d   1     -50.520  24.180  33.331  0.00  0.00    -0.246 NA
ATOM      5  C   UNL d   1     -49.516  25.230  33.493  0.00  0.00     0.021 C 
ATOM      6  C   UNL d   1     -51.340  24.137  33.406  0.00  0.00     0.081 A 
ATOM      7  C   UNL d   1     -51.611  24.888  33.626  0.00  0.00     0.019 A 
ATOM      8  C   UNL d   1     -51.870  23.531  33.308  0.00  0.00     0.019 A 
ATOM      9  C   UNL d   1     -52.418  25.015  33.743  0.00  0.00     0.002 A 
ATOM     10  C   UNL d   1     -52.950  24.401  33.642  0.00  0.00     0.000 A 
ATOM     11  C   UNL d   1     -52.679  23.649  33.423  0.00  0.00     0.002 A 
ENDBRANCH   1   2
BRANCH   1  12
ATOM     12  C   UNL d   1     -50.939  26.399  34.689  0.00  0.00     0.006 A 
ATOM     13  C   UNL d   1     -50.245  26.720  34.980  0.00  0.00     0.026 A 
ATOM     14  C   UNL d   1     -50.184  26.935  35.770  0.00  0.00     0.118 A 
ATOM     15  C   UNL d   1     -50.827  26.825  36.265  0.00  0.00     0.138 A 
ATOM     16  C   UNL d   1     -51.531  26.503  35.981  0.00  0.00     0.118 A 
ATOM     17  C   UNL d   1     -51.582  26.290  35.184  0.00  0.00     0.026 A 
BRANCH  14  18
ATOM     18  O   UNL d   1     -49.490  27.255  36.060  0.00  0.00    -0.326 OA
ATOM     19  C   UNL d   1     -49.181  27.938  35.732  0.00  0.00     0.181 C 
ENDBRANCH  14  18
BRANCH  15  20
ATOM     20  O   UNL d   1     -50.768  27.039  37.053  0.00  0.00    -0.324 OA
ATOM     21  C   UNL d   1     -50.674  26.448  37.625  0.00  0.00     0.182 C 
ENDBRANCH  15  20
BRANCH  16  22
ATOM     22  O   UNL d   1     -52.174  26.392  36.470  0.00  0.00    -0.326 OA
ATOM     23  C   UNL d   1     -52.253  25.699  36.905  0.00  0.00     0.181 C 
ENDBRANCH  16  22
ENDBRANCH   1  12
BRANCH   1  24
ATOM     24  C   UNL d   1     -51.056  26.770  33.308  0.00  0.00     0.148 C 
BRANCH  24  25
ATOM     25  N   UNL d   1     -51.416  27.482  33.531  0.00  0.00    -0.112 N 
ATOM     26  O   UNL d   1     -52.248  27.517  33.583  0.00  0.00    -0.532 OA
ATOM     27  O   UNL d   1     -50.958  28.142  33.697  0.00  0.00    -0.532 OA
ENDBRANCH  24  25
ENDBRANCH   1  24
TORSDOF 7
ENDMDL
