MODEL 1
REMARK VINA RESULT:      36.6      0.000      0.000
REMARK  3 active torsions:
REMARK  status: ('A' for Active; 'I' for Inactive)
REMARK    1  A    between atoms: C_12  and  C_4 
REMARK       I    between atoms: C_6  and  N_11 
REMARK    2  A    between atoms: C_7  and  C_6 
REMARK    3  A    between atoms: N_11  and  C_18 
ROOT
ATOM      1  C   UNL d   1     -55.270-102.348 -39.280  0.00  0.00     0.019 A 
ATOM      2  C   UNL d   1     -55.949-102.052 -38.914  0.00  0.00     0.003 A 
ATOM      3  C   UNL d   1     -54.714-102.755 -38.843  0.00  0.00     0.003 A 
ATOM      4  C   UNL d   1     -55.509-102.576 -37.668  0.00  0.00     0.085 A 
ATOM      5  C   UNL d   1     -54.833-102.870 -38.035  0.00  0.00     0.019 A 
ATOM      6  C   UNL d   1     -56.066-102.166 -38.115  0.00  0.00     0.019 A 
ENDROOT
BRANCH   1   7
ATOM      7  C   UNL d   1     -55.149-102.234 -40.093  0.00  0.00     0.101 A 
ATOM      8  N   UNL d   1     -54.964-101.514 -40.420  0.00  0.00    -0.221 NA
ATOM      9  C   UNL d   1     -54.884-101.611 -41.234  0.00  0.00     0.179 A 
ATOM     10  N   UNL d   1     -55.021-102.396 -41.416  0.00  0.00    -0.282 N 
ATOM     11  S   UNL d   1     -54.718-101.211 -41.937  0.00  0.00    -0.048 SA
ATOM     12  C   UNL d   1     -55.186-102.787 -40.703  0.00  0.00     0.101 A 
ATOM     13  C   UNL d   1     -54.942-102.494 -42.230  0.00  0.00     0.089 A 
ATOM     14  C   UNL d   1     -54.754-101.755 -42.548  0.00  0.00     0.057 A 
ENDBRANCH   1   7
BRANCH   4  15
ATOM     15  N   UNL d   1     -55.631-102.691 -36.856  0.00  0.00    -0.208 NA
ATOM     16  C   UNL d   1     -55.405-102.104 -36.318  0.00  0.00     0.279 C 
ATOM     17  O   UNL d   1     -55.524-102.214 -35.514  0.00  0.00    -0.265 OA
BRANCH  16  18
ATOM     18  C   UNL d   1     -55.061-101.410 -36.596  0.00  0.00     0.058 A 
ATOM     19  C   UNL d   1     -55.068-100.731 -36.121  0.00  0.00     0.005 A 
ATOM     20  C   UNL d   1     -54.715-100.708 -36.872  0.00  0.00     0.005 A 
ENDBRANCH  16  18
ENDBRANCH   4  15
TORSDOF 3
ENDMDL
