MODEL 1
REMARK VINA RESULT:      -7.9      0.000      0.000
REMARK  5 active torsions:
REMARK  status: ('A' for Active; 'I' for Inactive)
REMARK    1  A    between atoms: N_5  and  C_1 
REMARK    2  A    between atoms: N_6  and  C_1 
REMARK       I    between atoms: C_2  and  N_3 
REMARK    3  A    between atoms: C_4  and  C_2 
REMARK    4  A    between atoms: N_3  and  N_5 
REMARK    5  A    between atoms: C_10  and  N_6 
ROOT
ATOM      1  C   UNL d   1      53.535  31.652  53.574  0.00  0.00     0.272 C 
ATOM      2  N   UNL d   1      52.961  32.236  53.619  0.00  0.00    -0.264 N 
ATOM      3  O   UNL d   1      54.329  31.844  53.588  0.00  0.00    -0.266 OA
ATOM      4  H   UNL d   1      52.154  32.023  53.603  0.00  0.00     0.190 HD
ENDROOT
BRANCH   2   5
ATOM      5  N   UNL d   1      53.173  33.015  53.677  0.00  0.00    -0.274 N 
ATOM      6  H   UNL d   1      53.979  33.228  53.686  0.00  0.00     0.189 HD
BRANCH   5   7
ATOM      7  C   UNL d   1      52.588  33.595  53.728  0.00  0.00     0.187 C 
ATOM      8  S   UNL d   1      52.035  33.682  53.125  0.00  0.00    -0.040 SA
BRANCH   7   9
ATOM      9  N   UNL d   1      52.565  34.083  54.387  0.00  0.00    -0.354 N 
ATOM     10  H   UNL d   1      52.265  33.799  55.092  0.00  0.00     0.162 HD
BRANCH   9  11
ATOM     11  C   UNL d   1      52.848  34.856  54.325  0.00  0.00     0.063 C 
ATOM     12  C   UNL d   1      53.137  35.627  54.272  0.00  0.00     0.022 C 
ATOM     13  C   UNL d   1      52.373  34.993  53.673  0.00  0.00     0.022 C 
ATOM     14  C   UNL d   1      53.336  34.725  54.990  0.00  0.00     0.022 C 
ENDBRANCH   9  11
ENDBRANCH   7   9
ENDBRANCH   5   7
ENDBRANCH   2   5
BRANCH   1  15
ATOM     15  C   UNL d   1      53.314  30.859  53.514  0.00  0.00     0.058 A 
ATOM     16  C   UNL d   1      53.450  30.342  54.156  0.00  0.00     0.011 A 
ATOM     17  C   UNL d   1      53.230  29.564  54.090  0.00  0.00     0.035 A 
ATOM     18 BR   UNL d   1      53.360  29.062  54.708  0.00  0.00    -0.049 Br
ATOM     19  C   UNL d   1      52.877  29.281  53.402  0.00  0.00     0.007 A 
ATOM     20  C   UNL d   1      52.735  29.785  52.756  0.00  0.00     0.001 A 
ATOM     21  C   UNL d   1      52.961  30.577  52.827  0.00  0.00     0.005 A 
ENDBRANCH   1  15
TORSDOF 5
ENDMDL
MODEL 2
REMARK VINA RESULT:      -7.7      1.890      4.306
REMARK  5 active torsions:
REMARK  status: ('A' for Active; 'I' for Inactive)
REMARK    1  A    between atoms: N_5  and  C_1 
REMARK    2  A    between atoms: N_6  and  C_1 
REMARK       I    between atoms: C_2  and  N_3 
REMARK    3  A    between atoms: C_4  and  C_2 
REMARK    4  A    between atoms: N_3  and  N_5 
REMARK    5  A    between atoms: C_10  and  N_6 
ROOT
ATOM      1  C   UNL d   1      53.107  32.878  54.141  0.00  0.00     0.272 C 
ATOM      2  N   UNL d   1      53.072  32.137  53.791  0.00  0.00    -0.264 N 
ATOM      3  O   UNL d   1      53.487  32.986  54.856  0.00  0.00    -0.266 OA
ATOM      4  H   UNL d   1      52.680  32.045  53.060  0.00  0.00     0.190 HD
ENDROOT
BRANCH   2   5
ATOM      5  N   UNL d   1      53.414  31.498  54.151  0.00  0.00    -0.274 N 
ATOM      6  H   UNL d   1      53.837  31.597  54.863  0.00  0.00     0.189 HD
BRANCH   5   7
ATOM      7  C   UNL d   1      53.342  30.749  53.810  0.00  0.00     0.187 C 
ATOM      8  S   UNL d   1      53.727  30.576  53.103  0.00  0.00    -0.040 SA
BRANCH   7   9
ATOM      9  N   UNL d   1      52.882  30.183  54.184  0.00  0.00    -0.354 N 
ATOM     10  H   UNL d   1      52.144  30.385  54.472  0.00  0.00     0.162 HD
BRANCH   9  11
ATOM     11  C   UNL d   1      53.175  29.415  54.262  0.00  0.00     0.063 C 
ATOM     12  C   UNL d   1      53.470  28.650  54.351  0.00  0.00     0.022 C 
ATOM     13  C   UNL d   1      53.015  29.258  53.476  0.00  0.00     0.022 C 
ATOM     14  C   UNL d   1      53.342  29.566  55.066  0.00  0.00     0.022 C 
ENDBRANCH   9  11
ENDBRANCH   7   9
ENDBRANCH   5   7
ENDBRANCH   2   5
BRANCH   1  15
ATOM     15  C   UNL d   1      52.757  33.527  53.770  0.00  0.00     0.058 A 
ATOM     16  C   UNL d   1      51.969  33.472  53.497  0.00  0.00     0.011 A 
ATOM     17  C   UNL d   1      51.632  34.114  53.134  0.00  0.00     0.035 A 
ATOM     18 BR   UNL d   1      50.871  34.065  52.869  0.00  0.00    -0.049 Br
ATOM     19  C   UNL d   1      52.054  34.814  53.033  0.00  0.00     0.007 A 
ATOM     20  C   UNL d   1      52.838  34.882  53.300  0.00  0.00     0.001 A 
ATOM     21  C   UNL d   1      53.179  34.226  53.669  0.00  0.00     0.005 A 
ENDBRANCH   1  15
TORSDOF 5
ENDMDL
MODEL 3
REMARK VINA RESULT:      -7.0      3.066      4.049
REMARK  5 active torsions:
REMARK  status: ('A' for Active; 'I' for Inactive)
REMARK    1  A    between atoms: N_5  and  C_1 
REMARK    2  A    between atoms: N_6  and  C_1 
REMARK       I    between atoms: C_2  and  N_3 
REMARK    3  A    between atoms: C_4  and  C_2 
REMARK    4  A    between atoms: N_3  and  N_5 
REMARK    5  A    between atoms: C_10  and  N_6 
ROOT
ATOM      1  C   UNL d   1      51.187  33.523  53.345  0.00  0.00     0.272 C 
ATOM      2  N   UNL d   1      51.841  33.898  53.669  0.00  0.00    -0.264 N 
ATOM      3  O   UNL d   1      51.014  32.747  53.533  0.00  0.00    -0.266 OA
ATOM      4  H   UNL d   1      52.003  34.691  53.466  0.00  0.00     0.190 HD
ENDROOT
BRANCH   2   5
ATOM      5  N   UNL d   1      52.327  33.503  54.182  0.00  0.00    -0.274 N 
ATOM      6  H   UNL d   1      52.072  32.790  54.533  0.00  0.00     0.189 HD
BRANCH   5   7
ATOM      7  C   UNL d   1      53.074  33.809  54.355  0.00  0.00     0.187 C 
ATOM      8  S   UNL d   1      53.151  34.572  54.655  0.00  0.00    -0.040 SA
BRANCH   7   9
ATOM      9  N   UNL d   1      53.736  33.344  54.223  0.00  0.00    -0.354 N 
ATOM     10  H   UNL d   1      53.749  32.826  53.591  0.00  0.00     0.162 HD
BRANCH   9  11
ATOM     11  C   UNL d   1      54.382  33.409  54.734  0.00  0.00     0.063 C 
ATOM     12  C   UNL d   1      55.031  33.482  55.237  0.00  0.00     0.022 C 
ATOM     13  C   UNL d   1      54.032  32.895  55.265  0.00  0.00     0.022 C 
ATOM     14  C   UNL d   1      54.747  33.936  54.198  0.00  0.00     0.022 C 
ENDBRANCH   9  11
ENDBRANCH   7   9
ENDBRANCH   5   7
ENDBRANCH   2   5
BRANCH   1  15
ATOM     15  C   UNL d   1      50.694  33.929  52.823  0.00  0.00     0.058 A 
ATOM     16  C   UNL d   1      50.064  34.390  53.121  0.00  0.00     0.011 A 
ATOM     17  C   UNL d   1      49.584  34.786  52.601  0.00  0.00     0.035 A 
ATOM     18 BR   UNL d   1      48.974  35.232  52.887  0.00  0.00    -0.049 Br
ATOM     19  C   UNL d   1      49.710  34.741  51.789  0.00  0.00     0.007 A 
ATOM     20  C   UNL d   1      50.334  34.286  51.478  0.00  0.00     0.001 A 
ATOM     21  C   UNL d   1      50.821  33.884  52.011  0.00  0.00     0.005 A 
ENDBRANCH   1  15
TORSDOF 5
ENDMDL
MODEL 4
REMARK VINA RESULT:      -7.0      2.327      3.062
REMARK  5 active torsions:
REMARK  status: ('A' for Active; 'I' for Inactive)
REMARK    1  A    between atoms: N_5  and  C_1 
REMARK    2  A    between atoms: N_6  and  C_1 
REMARK       I    between atoms: C_2  and  N_3 
REMARK    3  A    between atoms: C_4  and  C_2 
REMARK    4  A    between atoms: N_3  and  N_5 
REMARK    5  A    between atoms: C_10  and  N_6 
ROOT
ATOM      1  C   UNL d   1      52.946  32.750  53.471  0.00  0.00     0.272 C 
ATOM      2  N   UNL d   1      52.470  33.377  53.242  0.00  0.00    -0.264 N 
ATOM      3  O   UNL d   1      52.695  31.978  53.376  0.00  0.00    -0.266 OA
ATOM      4  H   UNL d   1      52.742  34.160  53.347  0.00  0.00     0.190 HD
ENDROOT
BRANCH   2   5
ATOM      5  N   UNL d   1      51.741  33.241  52.917  0.00  0.00    -0.274 N 
ATOM      6  H   UNL d   1      51.489  32.460  52.772  0.00  0.00     0.189 HD
BRANCH   5   7
ATOM      7  C   UNL d   1      51.252  33.880  52.731  0.00  0.00     0.187 C 
ATOM      8  S   UNL d   1      51.519  34.477  52.232  0.00  0.00    -0.040 SA
BRANCH   7   9
ATOM      9  N   UNL d   1      50.496  33.909  53.049  0.00  0.00    -0.354 N 
ATOM     10  H   UNL d   1      50.313  33.455  53.703  0.00  0.00     0.162 HD
BRANCH   9  11
ATOM     11  C   UNL d   1      49.932  34.400  52.699  0.00  0.00     0.063 C 
ATOM     12  C   UNL d   1      49.368  34.898  52.359  0.00  0.00     0.022 C 
ATOM     13  C   UNL d   1      49.909  33.925  52.034  0.00  0.00     0.022 C 
ATOM     14  C   UNL d   1      49.949  34.892  53.374  0.00  0.00     0.022 C 
ENDBRANCH   9  11
ENDBRANCH   7   9
ENDBRANCH   5   7
ENDBRANCH   2   5
BRANCH   1  15
ATOM     15  C   UNL d   1      53.688  32.893  53.802  0.00  0.00     0.058 A 
ATOM     16  C   UNL d   1      53.746  33.127  54.602  0.00  0.00     0.011 A 
ATOM     17  C   UNL d   1      54.479  33.266  54.921  0.00  0.00     0.035 A 
ATOM     18 BR   UNL d   1      54.539  33.492  55.693  0.00  0.00    -0.049 Br
ATOM     19  C   UNL d   1      55.161  33.180  54.467  0.00  0.00     0.007 A 
ATOM     20  C   UNL d   1      55.118  32.948  53.670  0.00  0.00     0.001 A 
ATOM     21  C   UNL d   1      54.369  32.807  53.349  0.00  0.00     0.005 A 
ENDBRANCH   1  15
TORSDOF 5
ENDMDL
