MODEL 1
REMARK VINA RESULT:     101.2      0.000      0.000
REMARK  4 active torsions:
REMARK  status: ('A' for Active; 'I' for Inactive)
REMARK    1  A    between atoms: S_3  and  N_1 
REMARK    2  A    between atoms: C_9  and  S_3 
REMARK    3  A    between atoms: C_10  and  N_5 
REMARK    4  A    between atoms: C_15  and  C_10 
ROOT
ATOM      1  N   UNL d   1      59.555  49.096  50.649  0.00  0.00    -0.195 N 
ATOM      2  C   UNL d   1      59.294  49.247  51.406  0.00  0.00     0.193 A 
ATOM      3  C   UNL d   1      58.514  49.482  51.533  0.00  0.00     0.185 A 
ATOM      4  N   UNL d   1      58.169  49.505  50.793  0.00  0.00    -0.269 N 
ATOM      5  C   UNL d   1      58.764  49.284  50.282  0.00  0.00     0.179 A 
ATOM      6  N   UNL d   1      59.812  49.164  52.039  0.00  0.00    -0.223 NA
ATOM      7  N   UNL d   1      58.252  49.633  52.299  0.00  0.00    -0.224 NA
ATOM      8  C   UNL d   1      59.546  49.316  52.803  0.00  0.00     0.101 A 
ATOM      9  C   UNL d   1      58.770  49.550  52.933  0.00  0.00     0.101 A 
ATOM     10  C   UNL d   1      58.512  49.701  53.701  0.00  0.00     0.021 A 
ATOM     11  C   UNL d   1      60.065  49.232  53.433  0.00  0.00     0.021 A 
ATOM     12  C   UNL d   1      59.801  49.385  54.197  0.00  0.00     0.002 A 
ATOM     13  C   UNL d   1      59.025  49.618  54.323  0.00  0.00     0.002 A 
ENDROOT
BRANCH   1  14
ATOM     14  S   UNL d   1      60.408  48.843  50.546  0.00  0.00     0.274 S 
ATOM     15  O   UNL d   1      61.025  49.484  50.586  0.00  0.00    -0.200 OA
ATOM     16  O   UNL d   1      60.430  49.675  50.659  0.00  0.00    -0.200 OA
BRANCH  14  17
ATOM     17  C   UNL d   1      60.769  48.117  50.417  0.00  0.00     0.104 A 
ATOM     18  C   UNL d   1      61.469  48.076  49.968  0.00  0.00     0.013 A 
ATOM     19  C   UNL d   1      61.829  47.337  49.841  0.00  0.00     0.001 A 
ATOM     20  C   UNL d   1      61.494  46.651  50.157  0.00  0.00     0.000 A 
ATOM     21  C   UNL d   1      60.793  46.701  50.605  0.00  0.00     0.001 A 
ATOM     22  C   UNL d   1      61.853  45.921  50.029  0.00  0.00     0.000 C 
ATOM     23  C   UNL d   1      60.435  47.430  50.732  0.00  0.00     0.013 A 
ENDBRANCH  14  17
ENDBRANCH   1  14
BRANCH   4  24
ATOM     24  C   UNL d   1      57.390  49.708  50.608  0.00  0.00     0.108 C 
BRANCH  24  25
ATOM     25  C   UNL d   1      56.988  49.315  49.997  0.00  0.00     0.118 A 
ATOM     26  O   UNL d   1      56.728  49.657  49.289  0.00  0.00    -0.304 OA
ATOM     27  C   UNL d   1      56.350  49.062  48.832  0.00  0.00     0.123 A 
ATOM     28  C   UNL d   1      56.383  48.355  49.266  0.00  0.00     0.029 A 
ATOM     29  C   UNL d   1      56.777  48.515  49.985  0.00  0.00     0.028 A 
ENDBRANCH  24  25
ENDBRANCH   4  24
TORSDOF 4
ENDMDL
MODEL 2
REMARK VINA RESULT:     102.5      1.016      1.370
REMARK  4 active torsions:
REMARK  status: ('A' for Active; 'I' for Inactive)
REMARK    1  A    between atoms: S_3  and  N_1 
REMARK    2  A    between atoms: C_9  and  S_3 
REMARK    3  A    between atoms: C_10  and  N_5 
REMARK    4  A    between atoms: C_15  and  C_10 
ROOT
ATOM      1  N   UNL d   1      60.408  48.631  50.323  0.00  0.00    -0.195 N 
ATOM      2  C   UNL d   1      60.415  48.898  51.093  0.00  0.00     0.193 A 
ATOM      3  C   UNL d   1      59.741  49.249  51.414  0.00  0.00     0.185 A 
ATOM      4  N   UNL d   1      59.183  49.236  50.816  0.00  0.00    -0.269 N 
ATOM      5  C   UNL d   1      59.562  48.882  50.188  0.00  0.00     0.179 A 
ATOM      6  N   UNL d   1      61.096  48.816  51.546  0.00  0.00    -0.223 NA
ATOM      7  N   UNL d   1      59.750  49.518  52.192  0.00  0.00    -0.224 NA
ATOM      8  C   UNL d   1      61.102  49.087  52.323  0.00  0.00     0.101 A 
ATOM      9  C   UNL d   1      60.432  49.436  52.645  0.00  0.00     0.101 A 
ATOM     10  C   UNL d   1      60.446  49.705  53.424  0.00  0.00     0.021 A 
ATOM     11  C   UNL d   1      61.783  49.004  52.773  0.00  0.00     0.021 A 
ATOM     12  C   UNL d   1      61.790  49.274  53.550  0.00  0.00     0.002 A 
ATOM     13  C   UNL d   1      61.119  49.622  53.868  0.00  0.00     0.002 A 
ENDROOT
BRANCH   1  14
ATOM     14  S   UNL d   1      61.156  48.255  50.007  0.00  0.00     0.274 S 
ATOM     15  O   UNL d   1      61.833  48.803  49.821  0.00  0.00    -0.200 OA
ATOM     16  O   UNL d   1      61.313  49.079  50.042  0.00  0.00    -0.200 OA
BRANCH  14  17
ATOM     17  C   UNL d   1      61.371  47.480  49.840  0.00  0.00     0.104 A 
ATOM     18  C   UNL d   1      61.598  47.270  49.067  0.00  0.00     0.013 A 
ATOM     19  C   UNL d   1      61.815  46.483  48.906  0.00  0.00     0.001 A 
ATOM     20  C   UNL d   1      61.804  45.916  49.507  0.00  0.00     0.000 A 
ATOM     21  C   UNL d   1      61.575  46.136  50.278  0.00  0.00     0.001 A 
ATOM     22  C   UNL d   1      62.019  45.139  49.344  0.00  0.00     0.000 C 
ATOM     23  C   UNL d   1      61.361  46.912  50.441  0.00  0.00     0.013 A 
ENDBRANCH  14  17
ENDBRANCH   1  14
BRANCH   4  24
ATOM     24  C   UNL d   1      58.408  49.521  50.847  0.00  0.00     0.108 C 
BRANCH  24  25
ATOM     25  C   UNL d   1      57.870  49.335  50.243  0.00  0.00     0.118 A 
ATOM     26  O   UNL d   1      57.291  48.742  50.275  0.00  0.00    -0.304 OA
ATOM     27  C   UNL d   1      56.871  48.746  49.548  0.00  0.00     0.123 A 
ATOM     28  C   UNL d   1      57.197  49.344  49.073  0.00  0.00     0.029 A 
ATOM     29  C   UNL d   1      57.813  49.706  49.506  0.00  0.00     0.028 A 
ENDBRANCH  24  25
ENDBRANCH   4  24
TORSDOF 4
ENDMDL
