MODEL 1
REMARK VINA RESULT:      27.2      0.000      0.000
REMARK  2 active torsions:
REMARK  status: ('A' for Active; 'I' for Inactive)
REMARK       I    between atoms: N_2  and  C_1 
REMARK    1  A    between atoms: C_4  and  C_1 
REMARK    2  A    between atoms: C_7  and  N_3 
ROOT
ATOM      1  C   UNL d   1      44.742 -14.997  44.519  0.00  0.00     0.265 C 
ATOM      2  N   UNL d   1      45.013 -15.723  44.244  0.00  0.00    -0.269 N 
ATOM      3  N   UNL d   1      45.555 -17.185  43.695  0.00  0.00    -0.301 N 
ATOM      4  C   UNL d   1      44.579 -16.411  44.408  0.00  0.00     0.102 A 
ATOM      5  C   UNL d   1      45.714 -15.763  43.810  0.00  0.00     0.102 A 
ATOM      6  C   UNL d   1      45.982 -16.489  43.538  0.00  0.00     0.100 A 
ATOM      7  C   UNL d   1      44.854 -17.138  44.131  0.00  0.00     0.100 A 
ATOM      8  O   UNL d   1      44.040 -14.952  44.954  0.00  0.00    -0.267 OA
ENDROOT
BRANCH   1   9
ATOM      9  C   UNL d   1      45.175 -14.309  44.356  0.00  0.00     0.059 A 
ATOM     10  C   UNL d   1      45.041 -13.903  43.651  0.00  0.00     0.031 A 
ATOM     11  C   UNL d   1      45.472 -13.208  43.475  0.00  0.00     0.119 A 
ATOM     12  O   UNL d   1      45.464 -12.689  42.830  0.00  0.00    -0.300 OA
ATOM     13  C   UNL d   1      46.044 -12.925  44.022  0.00  0.00     0.119 A 
ATOM     14  C   UNL d   1      46.025 -12.089  42.972  0.00  0.00     0.304 A 
ATOM     15  O   UNL d   1      46.385 -12.233  43.710  0.00  0.00    -0.300 OA
ATOM     16  C   UNL d   1      46.175 -13.341  44.735  0.00  0.00     0.026 A 
ATOM     17  C   UNL d   1      45.747 -14.026  44.903  0.00  0.00     0.007 A 
ENDBRANCH   1   9
BRANCH   3  18
ATOM     18  C   UNL d   1      45.829 -17.912  43.419  0.00  0.00     0.064 A 
ATOM     19  C   UNL d   1      46.195 -18.432  43.942  0.00  0.00     0.018 A 
ATOM     20  C   UNL d   1      46.466 -19.154  43.661  0.00  0.00     0.013 A 
ATOM     21  C   UNL d   1      46.372 -19.353  42.866  0.00  0.00     0.058 A 
ATOM     22  C   UNL d   1      46.004 -18.823  42.350  0.00  0.00     0.013 A 
ATOM     23 CL   UNL d   1      46.647 -20.080  42.590  0.00  0.00    -0.082 Cl
ATOM     24  C   UNL d   1      45.735 -18.106  42.631  0.00  0.00     0.018 A 
ENDBRANCH   3  18
TORSDOF 2
ENDMDL
