MODEL 1
REMARK VINA RESULT:      13.5      0.000      0.000
REMARK  5 active torsions:
REMARK  status: ('A' for Active; 'I' for Inactive)
REMARK    1  A    between atoms: N_4  and  C_2 
REMARK    2  A    between atoms: S_8  and  C_3 
REMARK    3  A    between atoms: C_10  and  S_8 
REMARK    4  A    between atoms: C_9  and  C_10 
REMARK    5  A    between atoms: C_12  and  C_9 
ROOT
ATOM      1  N   UNL d   1      46.278 -17.953  43.599  0.00  0.00    -0.203 NA
ATOM      2  C   UNL d   1      46.440 -18.682  43.234  0.00  0.00     0.152 A 
ATOM      3  C   UNL d   1      46.205 -17.917  44.407  0.00  0.00     0.196 A 
ATOM      4  C   UNL d   1      46.525 -19.339  43.653  0.00  0.00     0.057 A 
ATOM      5  N   UNL d   1      46.295 -18.607  44.847  0.00  0.00    -0.221 NA
ATOM      6  C   UNL d   1      46.457 -19.336  44.482  0.00  0.00     0.087 A 
ATOM      7  C   UNL d   1      46.553 -20.051  44.898  0.00  0.00     0.021 C 
ENDROOT
BRANCH   3   8
ATOM      8  S   UNL d   1      46.046 -17.217  44.800  0.00  0.00    -0.045 SA
BRANCH   8   9
ATOM      9  C   UNL d   1      45.848 -16.550  44.357  0.00  0.00     0.080 C 
BRANCH   9  10
ATOM     10  C   UNL d   1      45.288 -15.987  44.626  0.00  0.00     0.202 C 
ATOM     11  O   UNL d   1      44.572 -16.207  44.954  0.00  0.00    -0.286 OA
BRANCH  10  12
ATOM     12  C   UNL d   1      45.516 -15.209  44.535  0.00  0.00     0.040 A 
ATOM     13  C   UNL d   1      45.045 -14.703  44.034  0.00  0.00     0.003 A 
ATOM     14  C   UNL d   1      45.242 -13.947  43.927  0.00  0.00     0.000 A 
ATOM     15  C   UNL d   1      45.906 -13.625  44.295  0.00  0.00     0.000 A 
ATOM     16  C   UNL d   1      46.359 -14.100  44.773  0.00  0.00     0.000 A 
ATOM     17  C   UNL d   1      46.180 -14.887  44.903  0.00  0.00     0.003 A 
ENDBRANCH  10  12
ENDBRANCH   9  10
ENDBRANCH   8   9
ENDBRANCH   3   8
BRANCH   2  18
ATOM     18  N   UNL d   1      46.510 -18.693  42.393  0.00  0.00    -0.285 N 
ATOM     19  C   UNL d   1      46.546 -18.025  41.984  0.00  0.00     0.108 A 
ATOM     20  C   UNL d   1      46.616 -18.017  41.148  0.00  0.00     0.142 A 
ATOM     21  O   UNL d   1      46.646 -18.773  40.772  0.00  0.00    -0.300 OA
ATOM     22  C   UNL d   1      46.607 -19.419  41.216  0.00  0.00     0.142 A 
ATOM     23  C   UNL d   1      46.540 -19.434  42.016  0.00  0.00     0.108 A 
ENDBRANCH   2  18
TORSDOF 5
ENDMDL
