MODEL 1
REMARK VINA RESULT:     108.4      0.000      0.000
REMARK  6 active torsions:
REMARK  status: ('A' for Active; 'I' for Inactive)
REMARK    1  A    between atoms: C_7  and  C_1 
REMARK    2  A    between atoms: C_9  and  N_2 
REMARK    3  A    between atoms: C_18  and  C_7 
REMARK    4  A    between atoms: C_8  and  C_9 
REMARK       I    between atoms: N_14  and  C_8 
REMARK    5  A    between atoms: C_16  and  N_14 
REMARK    6  A    between atoms: C_29  and  C_23 
ROOT
ATOM      1  C   UNL d   1     -57.108 -99.174 -44.169  0.00  0.00     0.095 A 
ATOM      2  N   UNL d   1     -58.521 -98.923 -43.982  0.00  0.00    -0.300 N 
ATOM      3  C   UNL d   1     -57.215 -99.163 -44.988  0.00  0.00     0.202 A 
ATOM      4  C   UNL d   1     -57.762 -99.054 -43.658  0.00  0.00     0.087 A 
ATOM      5  C   UNL d   1     -57.975 -99.032 -45.311  0.00  0.00     0.055 A 
ATOM      6  C   UNL d   1     -58.629 -98.911 -44.800  0.00  0.00     0.067 A 
ATOM      7  C   UNL d   1     -59.380 -98.781 -45.114  0.00  0.00     0.018 A 
ATOM      8  C   UNL d   1     -58.082 -99.020 -46.130  0.00  0.00     0.005 A 
ATOM      9  O   UNL d   1     -56.570 -99.282 -45.492  0.00  0.00    -0.286 OA
ATOM     10  C   UNL d   1     -58.834 -98.890 -46.442  0.00  0.00     0.000 A 
ATOM     11  C   UNL d   1     -59.488 -98.770 -45.931  0.00  0.00     0.002 A 
ENDROOT
BRANCH   2  12
ATOM     12  C   UNL d   1     -59.166 -98.804 -43.478  0.00  0.00     0.144 C 
BRANCH  12  13
ATOM     13  C   UNL d   1     -59.201 -99.196 -42.753  0.00  0.00     0.297 C 
ATOM     14  N   UNL d   1     -59.400 -98.780 -42.066  0.00  0.00    -0.207 NA
ATOM     15  O   UNL d   1     -59.037-100.003 -42.714  0.00  0.00    -0.264 OA
BRANCH  14  16
ATOM     16  C   UNL d   1     -59.435 -99.172 -41.342  0.00  0.00     0.086 A 
ATOM     17  C   UNL d   1     -59.207 -99.963 -41.290  0.00  0.00     0.031 A 
ATOM     18  C   UNL d   1     -59.238-100.361 -40.575  0.00  0.00     0.059 A 
ATOM     19 CL   UNL d   1     -59.009-101.154 -40.528  0.00  0.00    -0.082 Cl
ATOM     20  C   UNL d   1     -59.505 -99.956 -39.891  0.00  0.00     0.011 A 
ATOM     21  C   UNL d   1     -59.733 -99.164 -39.942  0.00  0.00     0.002 A 
ATOM     22  C   UNL d   1     -59.539-100.350 -39.169  0.00  0.00     0.001 C 
ATOM     23  C   UNL d   1     -59.698 -98.772 -40.667  0.00  0.00     0.019 A 
ENDBRANCH  14  16
ENDBRANCH  12  13
ENDBRANCH   2  12
BRANCH   1  24
ATOM     24  C   UNL d   1     -56.358 -99.304 -43.838  0.00  0.00     0.200 C 
ATOM     25  O   UNL d   1     -56.069 -98.763 -43.264  0.00  0.00    -0.286 OA
BRANCH  24  26
ATOM     26  C   UNL d   1     -55.900 -99.951 -44.065  0.00  0.00     0.039 A 
ATOM     27  C   UNL d   1     -55.925-100.642 -43.612  0.00  0.00     0.003 A 
ATOM     28  C   UNL d   1     -55.466-101.289 -43.838  0.00  0.00     0.000 A 
ATOM     29  C   UNL d   1     -54.990-101.240 -44.510  0.00  0.00     0.000 A 
ATOM     30  C   UNL d   1     -54.972-100.544 -44.956  0.00  0.00     0.000 A 
ATOM     31  C   UNL d   1     -55.431 -99.897 -44.729  0.00  0.00     0.003 A 
ENDBRANCH  24  26
ENDBRANCH   1  24
BRANCH  10  32
ATOM     32  C   UNL d   1     -58.941 -98.879 -47.261  0.00  0.00     0.000 C 
ATOM     33  C   UNL d   1     -59.706 -98.908 -47.579  0.00  0.00     0.000 C 
ENDBRANCH  10  32
TORSDOF 6
ENDMDL
