MODEL 1
REMARK VINA RESULT:      -6.2      0.000      0.000
REMARK  1 active torsions:
REMARK  status: ('A' for Active; 'I' for Inactive)
REMARK    1  A    between atoms: C_6  and  C_1 
ROOT
ATOM      1  C   UNL d   1      57.000  -0.360  31.562  0.00  0.00     0.168 A 
ATOM      2  C   UNL d   1      56.487  -0.361  32.207  0.00  0.00     0.045 A 
ATOM      3  N   UNL d   1      57.096  -1.137  31.304  0.00  0.00    -0.142 NA
ATOM      4  N   UNL d   1      56.639  -1.625  31.793  0.00  0.00    -0.148 NA
ATOM      5  C   UNL d   1      56.259  -1.135  32.357  0.00  0.00     0.105 A 
ATOM      6  C   UNL d   1      56.193   0.247  32.684  0.00  0.00     0.003 A 
ATOM      7  C   UNL d   1      55.743  -1.320  32.974  0.00  0.00     0.021 A 
ATOM      8  C   UNL d   1      55.677   0.075  33.302  0.00  0.00     0.000 A 
ATOM      9  C   UNL d   1      55.452  -0.710  33.448  0.00  0.00     0.002 A 
ATOM     10  C   UNL d   1      55.383   0.682  33.779  0.00  0.00     0.000 C 
ENDROOT
BRANCH   1  11
ATOM     11  C   UNL d   1      57.356   0.305  31.231  0.00  0.00     0.231 C 
ATOM     12  O   UNL d   1      58.060   0.603  31.547  0.00  0.00    -0.643 OA
ATOM     13  O   UNL d   1      57.010   0.678  30.580  0.00  0.00    -0.643 OA
ENDBRANCH   1  11
TORSDOF 1
ENDMDL
MODEL 2
REMARK VINA RESULT:      -5.3      1.668      2.440
REMARK  1 active torsions:
REMARK  status: ('A' for Active; 'I' for Inactive)
REMARK    1  A    between atoms: C_6  and  C_1 
ROOT
ATOM      1  C   UNL d   1      55.664  -0.339  33.379  0.00  0.00     0.168 A 
ATOM      2  C   UNL d   1      56.158  -0.347  32.720  0.00  0.00     0.045 A 
ATOM      3  N   UNL d   1      55.450  -1.116  33.555  0.00  0.00    -0.142 NA
ATOM      4  N   UNL d   1      55.815  -1.610  33.000  0.00  0.00    -0.148 NA
ATOM      5  C   UNL d   1      56.257  -1.125  32.479  0.00  0.00     0.105 A 
ATOM      6  C   UNL d   1      56.536   0.257  32.301  0.00  0.00     0.003 A 
ATOM      7  C   UNL d   1      56.726  -1.317  31.827  0.00  0.00     0.021 A 
ATOM      8  C   UNL d   1      57.006   0.078  31.650  0.00  0.00     0.000 A 
ATOM      9  C   UNL d   1      57.101  -0.711  31.412  0.00  0.00     0.002 A 
ATOM     10  C   UNL d   1      57.383   0.682  31.231  0.00  0.00     0.000 C 
ENDROOT
BRANCH   1  11
ATOM     11  C   UNL d   1      55.424   0.331  33.793  0.00  0.00     0.231 C 
ATOM     12  O   UNL d   1      55.911   0.658  34.378  0.00  0.00    -0.643 OA
ATOM     13  O   UNL d   1      54.694   0.681  33.626  0.00  0.00    -0.643 OA
ENDBRANCH   1  11
TORSDOF 1
ENDMDL
MODEL 3
REMARK VINA RESULT:      -3.8      1.121      1.619
REMARK  1 active torsions:
REMARK  status: ('A' for Active; 'I' for Inactive)
REMARK    1  A    between atoms: C_6  and  C_1 
ROOT
ATOM      1  C   UNL d   1      57.900  -0.340  30.342  0.00  0.00     0.168 A 
ATOM      2  C   UNL d   1      57.429  -0.346  31.017  0.00  0.00     0.045 A 
ATOM      3  N   UNL d   1      57.978  -1.115  30.070  0.00  0.00    -0.142 NA
ATOM      4  N   UNL d   1      57.551  -1.606  30.582  0.00  0.00    -0.148 NA
ATOM      5  C   UNL d   1      57.209  -1.122  31.174  0.00  0.00     0.105 A 
ATOM      6  C   UNL d   1      57.166   0.256  31.518  0.00  0.00     0.003 A 
ATOM      7  C   UNL d   1      56.732  -1.312  31.820  0.00  0.00     0.021 A 
ATOM      8  C   UNL d   1      56.690   0.079  32.166  0.00  0.00     0.000 A 
ATOM      9  C   UNL d   1      56.473  -0.706  32.317  0.00  0.00     0.002 A 
ATOM     10  C   UNL d   1      56.428   0.682  32.667  0.00  0.00     0.000 C 
ENDROOT
BRANCH   1  11
ATOM     11  C   UNL d   1      58.236   0.328  29.996  0.00  0.00     0.231 C 
ATOM     12  O   UNL d   1      57.913   0.647  29.304  0.00  0.00    -0.643 OA
ATOM     13  O   UNL d   1      58.900   0.682  30.339  0.00  0.00    -0.643 OA
ENDBRANCH   1  11
TORSDOF 1
ENDMDL
MODEL 4
REMARK VINA RESULT:      -3.5      8.735      9.486
REMARK  1 active torsions:
REMARK  status: ('A' for Active; 'I' for Inactive)
REMARK    1  A    between atoms: C_6  and  C_1 
ROOT
ATOM      1  C   UNL d   1      59.759  -7.729  35.856  0.00  0.00     0.168 A 
ATOM      2  C   UNL d   1      59.877  -8.323  35.298  0.00  0.00     0.045 A 
ATOM      3  N   UNL d   1      59.118  -7.939  36.330  0.00  0.00    -0.142 NA
ATOM      4  N   UNL d   1      58.837  -8.671  36.064  0.00  0.00    -0.148 NA
ATOM      5  C   UNL d   1      59.314  -8.908  35.418  0.00  0.00     0.105 A 
ATOM      6  C   UNL d   1      60.429  -8.412  34.689  0.00  0.00     0.003 A 
ATOM      7  C   UNL d   1      59.288  -9.584  34.944  0.00  0.00     0.021 A 
ATOM      8  C   UNL d   1      60.412  -9.081  34.209  0.00  0.00     0.000 A 
ATOM      9  C   UNL d   1      59.840  -9.668  34.337  0.00  0.00     0.002 A 
ATOM     10  C   UNL d   1      60.964  -9.170  33.600  0.00  0.00     0.000 C 
ENDROOT
BRANCH   1  11
ATOM     11  C   UNL d   1      60.205  -7.040  35.927  0.00  0.00     0.231 C 
ATOM     12  O   UNL d   1      59.930  -6.329  35.605  0.00  0.00    -0.643 OA
ATOM     13  O   UNL d   1      60.930  -7.056  36.323  0.00  0.00    -0.643 OA
ENDBRANCH   1  11
TORSDOF 1
ENDMDL
MODEL 5
REMARK VINA RESULT:      -3.4      9.800     10.164
REMARK  1 active torsions:
REMARK  status: ('A' for Active; 'I' for Inactive)
REMARK    1  A    between atoms: C_6  and  C_1 
ROOT
ATOM      1  C   UNL d   1      59.858  -9.078  35.614  0.00  0.00     0.168 A 
ATOM      2  C   UNL d   1      59.879  -9.181  34.797  0.00  0.00     0.045 A 
ATOM      3  N   UNL d   1      60.629  -8.958  35.882  0.00  0.00    -0.142 NA
ATOM      4  N   UNL d   1      61.132  -8.986  35.226  0.00  0.00    -0.148 NA
ATOM      5  C   UNL d   1      60.660  -9.125  34.548  0.00  0.00     0.105 A 
ATOM      6  C   UNL d   1      59.286  -9.318  34.238  0.00  0.00     0.003 A 
ATOM      7  C   UNL d   1      60.864  -9.204  33.752  0.00  0.00     0.021 A 
ATOM      8  C   UNL d   1      59.478  -9.398  33.442  0.00  0.00     0.000 A 
ATOM      9  C   UNL d   1      60.268  -9.341  33.198  0.00  0.00     0.002 A 
ATOM     10  C   UNL d   1      58.884  -9.536  32.883  0.00  0.00     0.000 C 
ENDROOT
BRANCH   1  11
ATOM     11  C   UNL d   1      59.182  -9.094  36.084  0.00  0.00     0.231 C 
ATOM     12  O   UNL d   1      58.860  -9.816  36.328  0.00  0.00    -0.643 OA
ATOM     13  O   UNL d   1      58.822  -8.386  36.314  0.00  0.00    -0.643 OA
ENDBRANCH   1  11
TORSDOF 1
ENDMDL
