MODEL 1
REMARK VINA RESULT:      -3.7      0.000      0.000
REMARK  4 active torsions:
REMARK  status: ('A' for Active; 'I' for Inactive)
REMARK    1  A    between atoms: C_12  and  N_3 
REMARK    2  A    between atoms: C_13  and  N_10 
REMARK    3  A    between atoms: C_21  and  C_12 
REMARK    4  A    between atoms: C_16  and  C_13 
ROOT
ATOM      1  C   UNL d   1     -41.801-121.846 -51.206  0.00  0.00     0.191 A 
ATOM      2  C   UNL d   1     -41.787-122.651 -51.383  0.00  0.00     0.173 A 
ATOM      3  N   UNL d   1     -41.349-122.359 -52.708  0.00  0.00    -0.224 N 
ATOM      4  N   UNL d   1     -42.046-121.762 -50.422  0.00  0.00    -0.042 NA
ATOM      5  C   UNL d   1     -42.183-122.523 -50.117  0.00  0.00     0.722 A 
ATOM      6  N   UNL d   1     -42.023-123.069 -50.711  0.00  0.00    -0.131 N 
ATOM      7  N   UNL d   1     -41.586-121.294 -51.787  0.00  0.00    -0.240 N 
ATOM      8  C   UNL d   1     -41.362-121.550 -52.534  0.00  0.00     0.343 A 
ATOM      9  C   UNL d   1     -41.561-122.913 -52.135  0.00  0.00     0.288 A 
ATOM     10  N   UNL d   1     -42.418-122.935 -49.448  0.00  0.00    -0.135 N 
ATOM     11  C   UNL d   1     -42.159-123.817 -50.407  0.00  0.00     0.118 A 
ATOM     12  O   UNL d   1     -41.148-120.998 -53.116  0.00  0.00    -0.245 OA
ATOM     13  O   UNL d   1     -41.548-123.724 -52.309  0.00  0.00    -0.265 OA
ATOM     14  C   UNL d   1     -42.404-123.744 -49.627  0.00  0.00     0.118 A 
ATOM     15  C   UNL d   1     -41.599-120.485 -51.613  0.00  0.00     0.105 C 
ENDROOT
BRANCH   3  16
ATOM     16  C   UNL d   1     -41.123-122.618 -53.460  0.00  0.00     0.087 C 
BRANCH  16  17
ATOM     17  C   UNL d   1     -41.652-122.551 -54.106  0.00  0.00     0.018 A 
ATOM     18  C   UNL d   1     -41.439-122.131 -54.768  0.00  0.00     0.002 A 
ATOM     19  C   UNL d   1     -41.957-122.067 -55.399  0.00  0.00     0.000 A 
ATOM     20  C   UNL d   1     -41.747-121.643 -56.072  0.00  0.00     0.000 C 
ATOM     21  C   UNL d   1     -42.699-122.431 -55.360  0.00  0.00     0.000 A 
ATOM     22  C   UNL d   1     -42.925-122.859 -54.694  0.00  0.00     0.000 A 
ATOM     23  C   UNL d   1     -42.401-122.919 -54.067  0.00  0.00     0.002 A 
ENDBRANCH  16  17
ENDBRANCH   3  16
BRANCH  10  24
ATOM     24  C   UNL d   1     -42.632-122.607 -48.722  0.00  0.00     0.123 C 
BRANCH  24  25
ATOM     25  C   UNL d   1     -42.383-122.970 -48.017  0.00  0.00     0.118 A 
ATOM     26  O   UNL d   1     -41.632-122.939 -47.691  0.00  0.00    -0.304 OA
ATOM     27  C   UNL d   1     -41.631-123.370 -47.002  0.00  0.00     0.123 A 
ATOM     28  C   UNL d   1     -42.395-123.679 -46.892  0.00  0.00     0.029 A 
ATOM     29  C   UNL d   1     -42.861-123.428 -47.526  0.00  0.00     0.028 A 
ENDBRANCH  24  25
ENDBRANCH  10  24
TORSDOF 4
ENDMDL
