MODEL 1
REMARK VINA RESULT:      -4.2      0.000      0.000
REMARK  4 active torsions:
REMARK  status: ('A' for Active; 'I' for Inactive)
REMARK    1  A    between atoms: C_2  and  N_1 
REMARK    2  A    between atoms: N_7  and  C_3 
REMARK    3  A    between atoms: C_12  and  N_7 
REMARK    4  A    between atoms: C_13  and  C_12 
ROOT
ATOM      1  C   UNL d   1      58.712   0.251  29.712  0.00  0.00     0.200 A 
ATOM      2  C   UNL d   1      58.648   0.370  30.535  0.00  0.00     0.189 A 
ATOM      3  C   UNL d   1      59.436   0.351  29.353  0.00  0.00     0.210 A 
ATOM      4  N   UNL d   1      59.310   0.586  30.977  0.00  0.00    -0.203 NA
ATOM      5  N   UNL d   1      60.096   0.563  29.774  0.00  0.00    -0.202 NA
ATOM      6  C   UNL d   1      60.032   0.682  30.597  0.00  0.00     0.202 A 
ATOM      7  N   UNL d   1      59.500   0.232  28.530  0.00  0.00    -0.125 N 
ENDROOT
BRANCH   2   8
ATOM      8  N   UNL d   1      57.931   0.275  30.915  0.00  0.00    -0.224 NA
BRANCH   8   9
ATOM      9  C   UNL d   1      57.889   0.275  31.730  0.00  0.00     0.101 C 
BRANCH   9  10
ATOM     10  C   UNL d   1      57.177   0.092  32.110  0.00  0.00     0.019 A 
ATOM     11  C   UNL d   1      56.976  -0.704  32.252  0.00  0.00     0.002 A 
ATOM     12  C   UNL d   1      56.266  -0.885  32.630  0.00  0.00     0.000 A 
ATOM     13  C   UNL d   1      55.766  -0.294  32.864  0.00  0.00     0.000 A 
ATOM     14  C   UNL d   1      55.960   0.495  32.725  0.00  0.00     0.000 A 
ATOM     15  C   UNL d   1      55.058  -0.472  33.241  0.00  0.00     0.000 C 
ATOM     16  C   UNL d   1      56.677   0.682  32.343  0.00  0.00     0.002 A 
ENDBRANCH   9  10
ENDBRANCH   8   9
ENDBRANCH   2   8
BRANCH   1  17
ATOM     17  N   UNL d   1      58.059   0.037  29.270  0.00  0.00    -0.107 N 
ATOM     18  O   UNL d   1      57.898  -0.752  29.159  0.00  0.00    -0.531 OA
ATOM     19  O   UNL d   1      57.575   0.613  28.944  0.00  0.00    -0.531 OA
ENDBRANCH   1  17
TORSDOF 4
ENDMDL
MODEL 2
REMARK VINA RESULT:      -3.5      1.370      1.714
REMARK  4 active torsions:
REMARK  status: ('A' for Active; 'I' for Inactive)
REMARK    1  A    between atoms: C_2  and  N_1 
REMARK    2  A    between atoms: N_7  and  C_3 
REMARK    3  A    between atoms: C_12  and  N_7 
REMARK    4  A    between atoms: C_13  and  C_12 
ROOT
ATOM      1  C   UNL d   1      59.043  -0.703  29.641  0.00  0.00     0.200 A 
ATOM      2  C   UNL d   1      58.413  -1.071  30.046  0.00  0.00     0.189 A 
ATOM      3  C   UNL d   1      59.427  -1.113  29.052  0.00  0.00     0.210 A 
ATOM      4  N   UNL d   1      58.185  -1.838  29.849  0.00  0.00    -0.203 NA
ATOM      5  N   UNL d   1      59.214  -1.868  28.848  0.00  0.00    -0.202 NA
ATOM      6  C   UNL d   1      58.584  -2.236  29.252  0.00  0.00     0.202 A 
ATOM      7  N   UNL d   1      60.057  -0.745  28.648  0.00  0.00    -0.125 N 
ENDROOT
BRANCH   2   8
ATOM      8  N   UNL d   1      58.014  -0.678  30.640  0.00  0.00    -0.224 NA
BRANCH   8   9
ATOM      9  C   UNL d   1      57.298  -0.958  30.917  0.00  0.00     0.101 C 
BRANCH   9  10
ATOM     10  C   UNL d   1      56.918  -0.577  31.546  0.00  0.00     0.019 A 
ATOM     11  C   UNL d   1      56.653  -1.020  32.199  0.00  0.00     0.002 A 
ATOM     12  C   UNL d   1      56.274  -0.639  32.825  0.00  0.00     0.000 A 
ATOM     13  C   UNL d   1      56.160   0.161  32.806  0.00  0.00     0.000 A 
ATOM     14  C   UNL d   1      56.420   0.604  32.161  0.00  0.00     0.000 A 
ATOM     15  C   UNL d   1      55.782   0.543  33.428  0.00  0.00     0.000 C 
ATOM     16  C   UNL d   1      56.803   0.223  31.527  0.00  0.00     0.002 A 
ENDBRANCH   9  10
ENDBRANCH   8   9
ENDBRANCH   2   8
BRANCH   1  17
ATOM     17  N   UNL d   1      59.274   0.058  29.832  0.00  0.00    -0.107 N 
ATOM     18  O   UNL d   1      58.988   0.679  29.395  0.00  0.00    -0.531 OA
ATOM     19  O   UNL d   1      59.787   0.187  30.459  0.00  0.00    -0.531 OA
ENDBRANCH   1  17
TORSDOF 4
ENDMDL
MODEL 3
REMARK VINA RESULT:      -2.5      2.125      4.245
REMARK  4 active torsions:
REMARK  status: ('A' for Active; 'I' for Inactive)
REMARK    1  A    between atoms: C_2  and  N_1 
REMARK    2  A    between atoms: N_7  and  C_3 
REMARK    3  A    between atoms: C_12  and  N_7 
REMARK    4  A    between atoms: C_13  and  C_12 
ROOT
ATOM      1  C   UNL d   1      55.999  -0.749  32.805  0.00  0.00     0.200 A 
ATOM      2  C   UNL d   1      56.352  -0.031  32.570  0.00  0.00     0.189 A 
ATOM      3  C   UNL d   1      55.410  -0.734  33.367  0.00  0.00     0.210 A 
ATOM      4  N   UNL d   1      56.107   0.682  32.904  0.00  0.00    -0.203 NA
ATOM      5  N   UNL d   1      55.158  -0.041  33.704  0.00  0.00    -0.202 NA
ATOM      6  C   UNL d   1      55.511   0.677  33.469  0.00  0.00     0.202 A 
ATOM      7  N   UNL d   1      55.057  -1.452  33.602  0.00  0.00    -0.125 N 
ENDROOT
BRANCH   2   8
ATOM      8  N   UNL d   1      56.945  -0.023  32.008  0.00  0.00    -0.224 NA
BRANCH   8   9
ATOM      9  C   UNL d   1      57.356   0.664  31.846  0.00  0.00     0.101 C 
BRANCH   9  10
ATOM     10  C   UNL d   1      57.952   0.667  31.271  0.00  0.00     0.019 A 
ATOM     11  C   UNL d   1      57.749   0.657  30.464  0.00  0.00     0.002 A 
ATOM     12  C   UNL d   1      58.345   0.660  29.893  0.00  0.00     0.000 A 
ATOM     13  C   UNL d   1      59.122   0.671  30.115  0.00  0.00     0.000 A 
ATOM     14  C   UNL d   1      59.328   0.681  30.914  0.00  0.00     0.000 A 
ATOM     15  C   UNL d   1      59.717   0.674  29.548  0.00  0.00     0.000 C 
ATOM     16  C   UNL d   1      58.729   0.678  31.493  0.00  0.00     0.002 A 
ENDBRANCH   9  10
ENDBRANCH   8   9
ENDBRANCH   2   8
BRANCH   1  17
ATOM     17  N   UNL d   1      56.239  -1.459  32.478  0.00  0.00    -0.107 N 
ATOM     18  O   UNL d   1      56.079  -1.607  31.696  0.00  0.00    -0.531 OA
ATOM     19  O   UNL d   1      56.636  -2.010  32.937  0.00  0.00    -0.531 OA
ENDBRANCH   1  17
TORSDOF 4
ENDMDL
MODEL 4
REMARK VINA RESULT:      -2.2      2.484      4.190
REMARK  4 active torsions:
REMARK  status: ('A' for Active; 'I' for Inactive)
REMARK    1  A    between atoms: C_2  and  N_1 
REMARK    2  A    between atoms: N_7  and  C_3 
REMARK    3  A    between atoms: C_12  and  N_7 
REMARK    4  A    between atoms: C_13  and  C_12 
ROOT
ATOM      1  C   UNL d   1      56.076   0.252  33.493  0.00  0.00     0.200 A 
ATOM      2  C   UNL d   1      56.835   0.359  33.163  0.00  0.00     0.189 A 
ATOM      3  C   UNL d   1      55.974   0.363  34.293  0.00  0.00     0.210 A 
ATOM      4  N   UNL d   1      57.470   0.574  33.643  0.00  0.00    -0.203 NA
ATOM      5  N   UNL d   1      56.588   0.575  34.777  0.00  0.00    -0.202 NA
ATOM      6  C   UNL d   1      57.347   0.682  34.448  0.00  0.00     0.202 A 
ATOM      7  N   UNL d   1      55.215   0.256  34.622  0.00  0.00    -0.125 N 
ENDROOT
BRANCH   2   8
ATOM      8  N   UNL d   1      56.960   0.253  32.363  0.00  0.00    -0.224 NA
BRANCH   8   9
ATOM      9  C   UNL d   1      57.696   0.386  32.036  0.00  0.00     0.101 C 
BRANCH   9  10
ATOM     10  C   UNL d   1      57.838   0.200  31.241  0.00  0.00     0.019 A 
ATOM     11  C   UNL d   1      58.274  -0.482  31.046  0.00  0.00     0.002 A 
ATOM     12  C   UNL d   1      58.414  -0.665  30.254  0.00  0.00     0.000 A 
ATOM     13  C   UNL d   1      58.131  -0.185  29.669  0.00  0.00     0.000 A 
ATOM     14  C   UNL d   1      57.698   0.492  29.857  0.00  0.00     0.000 A 
ATOM     15  C   UNL d   1      58.269  -0.365  28.879  0.00  0.00     0.000 C 
ATOM     16  C   UNL d   1      57.555   0.680  30.656  0.00  0.00     0.002 A 
ENDBRANCH   9  10
ENDBRANCH   8   9
ENDBRANCH   2   8
BRANCH   1  17
ATOM     17  N   UNL d   1      55.443   0.039  33.021  0.00  0.00    -0.107 N 
ATOM     18  O   UNL d   1      55.291  -0.750  32.897  0.00  0.00    -0.531 OA
ATOM     19  O   UNL d   1      54.971   0.616  32.681  0.00  0.00    -0.531 OA
ENDBRANCH   1  17
TORSDOF 4
ENDMDL
MODEL 5
REMARK VINA RESULT:      -1.7      9.534     10.211
REMARK  4 active torsions:
REMARK  status: ('A' for Active; 'I' for Inactive)
REMARK    1  A    between atoms: C_2  and  N_1 
REMARK    2  A    between atoms: N_7  and  C_3 
REMARK    3  A    between atoms: C_12  and  N_7 
REMARK    4  A    between atoms: C_13  and  C_12 
ROOT
ATOM      1  C   UNL d   1      59.874  -8.125  35.374  0.00  0.00     0.200 A 
ATOM      2  C   UNL d   1      59.928  -8.846  34.959  0.00  0.00     0.189 A 
ATOM      3  C   UNL d   1      60.453  -7.936  35.914  0.00  0.00     0.210 A 
ATOM      4  N   UNL d   1      60.559  -9.359  35.096  0.00  0.00    -0.203 NA
ATOM      5  N   UNL d   1      61.079  -8.429  36.060  0.00  0.00    -0.202 NA
ATOM      6  C   UNL d   1      61.133  -9.151  35.645  0.00  0.00     0.202 A 
ATOM      7  N   UNL d   1      60.399  -7.214  36.329  0.00  0.00    -0.125 N 
ENDROOT
BRANCH   2   8
ATOM      8  N   UNL d   1      59.358  -9.055  34.412  0.00  0.00    -0.224 NA
BRANCH   8   9
ATOM      9  C   UNL d   1      59.501  -9.648  33.868  0.00  0.00     0.101 C 
BRANCH   9  10
ATOM     10  C   UNL d   1      59.053  -9.691  33.173  0.00  0.00     0.019 A 
ATOM     11  C   UNL d   1      58.223  -9.649  33.211  0.00  0.00     0.002 A 
ATOM     12  C   UNL d   1      57.779  -9.692  32.517  0.00  0.00     0.000 A 
ATOM     13  C   UNL d   1      58.147  -9.775  31.803  0.00  0.00     0.000 A 
ATOM     14  C   UNL d   1      58.970  -9.817  31.759  0.00  0.00     0.000 A 
ATOM     15  C   UNL d   1      57.707  -9.818  31.110  0.00  0.00     0.000 C 
ATOM     16  C   UNL d   1      59.421  -9.774  32.458  0.00  0.00     0.002 A 
ENDBRANCH   9  10
ENDBRANCH   8   9
ENDBRANCH   2   8
BRANCH   1  17
ATOM     17  N   UNL d   1      59.250  -7.614  35.242  0.00  0.00    -0.107 N 
ATOM     18  O   UNL d   1      58.548  -7.736  35.632  0.00  0.00    -0.531 OA
ATOM     19  O   UNL d   1      59.335  -6.986  34.721  0.00  0.00    -0.531 OA
ENDBRANCH   1  17
TORSDOF 4
ENDMDL
