MODEL 1
REMARK VINA RESULT:      16.3      0.000      0.000
REMARK  2 active torsions:
REMARK  status: ('A' for Active; 'I' for Inactive)
REMARK    1  A    between atoms: C_6  and  C_1 
REMARK       I    between atoms: N_12  and  C_6 
REMARK    2  A    between atoms: O_15  and  C_13 
ROOT
ATOM      1  C   UNL d   1      14.324  12.741  -1.654  0.00  0.00     0.101 A 
ATOM      2  C   UNL d   1      13.845  12.102  -1.470  0.00  0.00     0.208 A 
ATOM      3  C   UNL d   1      14.293  13.068  -2.412  0.00  0.00     0.011 A 
ATOM      4  O   UNL d   1      13.329  11.779  -2.038  0.00  0.00    -0.288 OA
ATOM      5  C   UNL d   1      13.775  12.742  -2.978  0.00  0.00     0.025 A 
ATOM      6  C   UNL d   1      13.309  12.118  -2.795  0.00  0.00     0.102 A 
ATOM      7  N   UNL d   1      13.886  11.791  -0.722  0.00  0.00    -0.121 N 
ATOM      8  C   UNL d   1      13.761  13.087  -3.733  0.00  0.00     0.026 A 
ATOM      9  C   UNL d   1      12.786  11.780  -3.348  0.00  0.00     0.027 A 
ATOM     10  C   UNL d   1      13.237  12.749  -4.289  0.00  0.00     0.094 A 
ATOM     11  C   UNL d   1      12.769  12.122  -4.105  0.00  0.00     0.026 A 
ENDROOT
BRANCH   1  12
ATOM     12  C   UNL d   1      14.830  13.051  -1.084  0.00  0.00     0.283 C 
ATOM     13  O   UNL d   1      15.546  12.773  -1.002  0.00  0.00    -0.265 OA
ATOM     14  N   UNL d   1      14.609  13.659  -0.581  0.00  0.00    -0.205 NA
ATOM     15  C   UNL d   1      15.122  13.955  -0.021  0.00  0.00     0.123 C 
ENDBRANCH   1  12
BRANCH  10  16
ATOM     16  O   UNL d   1      13.165  13.017  -5.022  0.00  0.00    -0.328 OA
ATOM     17  C   UNL d   1      13.493  12.697  -5.737  0.00  0.00     0.181 C 
ENDBRANCH  10  16
TORSDOF 2
ENDMDL
MODEL 2
REMARK VINA RESULT:      16.7      1.383      3.421
REMARK  2 active torsions:
REMARK  status: ('A' for Active; 'I' for Inactive)
REMARK    1  A    between atoms: C_6  and  C_1 
REMARK       I    between atoms: N_12  and  C_6 
REMARK    2  A    between atoms: O_15  and  C_13 
ROOT
ATOM      1  C   UNL d   1      13.588  12.885  -3.325  0.00  0.00     0.101 A 
ATOM      2  C   UNL d   1      13.271  12.147  -3.158  0.00  0.00     0.208 A 
ATOM      3  C   UNL d   1      14.050  13.266  -2.757  0.00  0.00     0.011 A 
ATOM      4  O   UNL d   1      13.410  11.780  -2.424  0.00  0.00    -0.288 OA
ATOM      5  C   UNL d   1      14.188  12.895  -2.024  0.00  0.00     0.025 A 
ATOM      6  C   UNL d   1      13.877  12.175  -1.864  0.00  0.00     0.102 A 
ATOM      7  N   UNL d   1      12.818  11.784  -3.725  0.00  0.00    -0.121 N 
ATOM      8  C   UNL d   1      14.656  13.298  -1.469  0.00  0.00     0.026 A 
ATOM      9  C   UNL d   1      14.004  11.791  -1.137  0.00  0.00     0.027 A 
ATOM     10  C   UNL d   1      14.785  12.913  -0.738  0.00  0.00     0.094 A 
ATOM     11  C   UNL d   1      14.472  12.190  -0.578  0.00  0.00     0.026 A 
ENDROOT
BRANCH   1  12
ATOM     12  C   UNL d   1      13.442  13.237  -4.055  0.00  0.00     0.283 C 
ATOM     13  O   UNL d   1      13.499  12.827  -4.706  0.00  0.00    -0.265 OA
ATOM     14  N   UNL d   1      13.234  14.026  -4.129  0.00  0.00    -0.205 NA
ATOM     15  C   UNL d   1      13.094  14.361  -4.860  0.00  0.00     0.123 C 
ENDBRANCH   1  12
BRANCH  10  16
ATOM     16  O   UNL d   1      15.215  13.227  -0.164  0.00  0.00    -0.328 OA
ATOM     17  C   UNL d   1      15.412  14.043  -0.034  0.00  0.00     0.181 C 
ENDBRANCH  10  16
TORSDOF 2
ENDMDL
MODEL 3
REMARK VINA RESULT:      18.6      0.871      1.144
REMARK  2 active torsions:
REMARK  status: ('A' for Active; 'I' for Inactive)
REMARK    1  A    between atoms: C_6  and  C_1 
REMARK       I    between atoms: N_12  and  C_6 
REMARK    2  A    between atoms: O_15  and  C_13 
ROOT
ATOM      1  C   UNL d   1      14.896  13.412  -1.034  0.00  0.00     0.101 A 
ATOM      2  C   UNL d   1      14.743  12.657  -0.752  0.00  0.00     0.208 A 
ATOM      3  C   UNL d   1      14.624  13.629  -1.783  0.00  0.00     0.011 A 
ATOM      4  O   UNL d   1      14.318  12.109  -1.212  0.00  0.00    -0.288 OA
ATOM      5  C   UNL d   1      14.198  13.078  -2.240  0.00  0.00     0.025 A 
ATOM      6  C   UNL d   1      14.051  12.342  -1.962  0.00  0.00     0.102 A 
ATOM      7  N   UNL d   1      15.017  12.458  -0.015  0.00  0.00    -0.121 N 
ATOM      8  C   UNL d   1      13.934  13.319  -2.989  0.00  0.00     0.026 A 
ATOM      9  C   UNL d   1      13.628  11.779  -2.405  0.00  0.00     0.027 A 
ATOM     10  C   UNL d   1      13.509  12.755  -3.436  0.00  0.00     0.094 A 
ATOM     11  C   UNL d   1      13.362  12.016  -3.156  0.00  0.00     0.026 A 
ENDROOT
BRANCH   1  12
ATOM     12  C   UNL d   1      15.318  13.945  -0.570  0.00  0.00     0.283 C 
ATOM     13  O   UNL d   1      15.956  13.720  -0.197  0.00  0.00    -0.265 OA
ATOM     14  N   UNL d   1      15.091  14.727  -0.479  0.00  0.00    -0.205 NA
ATOM     15  C   UNL d   1      15.520  15.243  -0.015  0.00  0.00     0.123 C 
ENDBRANCH   1  12
BRANCH  10  16
ATOM     16  O   UNL d   1      13.227  12.905  -4.151  0.00  0.00    -0.328 OA
ATOM     17  C   UNL d   1      13.069  12.359  -4.783  0.00  0.00     0.181 C 
ENDBRANCH  10  16
TORSDOF 2
ENDMDL
