MODEL 1
REMARK VINA RESULT:      -8.5      0.000      0.000
REMARK  7 active torsions:
REMARK  status: ('A' for Active; 'I' for Inactive)
REMARK    1  A    between atoms: C_2  and  C_8 
REMARK    2  A    between atoms: O_17  and  C_2 
REMARK    3  A    between atoms: C_15  and  C_3 
REMARK    4  A    between atoms: C_5  and  C_16 
REMARK       I    between atoms: N_9  and  C_5 
REMARK    5  A    between atoms: C_14  and  N_9 
REMARK    6  A    between atoms: C_16  and  C_15 
REMARK    7  A    between atoms: C_21  and  O_17 
ROOT
ATOM      1  C   UNL d   1      53.747  31.375  53.937  0.00  0.00     0.064 A 
ATOM      2  C   UNL d   1      54.227  31.838  53.436  0.00  0.00     0.007 A 
ATOM      3  C   UNL d   1      53.450  31.710  54.637  0.00  0.00     0.007 A 
ATOM      4  C   UNL d   1      54.099  32.937  54.333  0.00  0.00     0.085 A 
ATOM      5  C   UNL d   1      54.398  32.614  53.638  0.00  0.00     0.019 A 
ATOM      6  C   UNL d   1      53.631  32.488  54.825  0.00  0.00     0.019 A 
ENDROOT
BRANCH   4   7
ATOM      7  N   UNL d   1      54.277  33.724  54.532  0.00  0.00    -0.208 NA
ATOM      8  C   UNL d   1      53.786  34.332  54.273  0.00  0.00     0.279 C 
ATOM      9  O   UNL d   1      53.956  35.112  54.467  0.00  0.00    -0.265 OA
BRANCH   8  10
ATOM     10  C   UNL d   1      53.119  34.166  53.815  0.00  0.00     0.065 C 
BRANCH  10  11
ATOM     11  C   UNL d   1      52.678  34.775  53.490  0.00  0.00     0.030 C 
BRANCH  11  12
ATOM     12  C   UNL d   1      51.991  34.610  53.060  0.00  0.00     0.100 A 
ATOM     13  O   UNL d   1      51.216  34.587  53.348  0.00  0.00    -0.307 OA
ATOM     14  C   UNL d   1      50.712  34.402  52.733  0.00  0.00     0.100 A 
ATOM     15  C   UNL d   1      51.172  34.308  52.049  0.00  0.00     0.027 A 
ATOM     16  C   UNL d   1      49.898  34.324  52.778  0.00  0.00     0.027 C 
ATOM     17  C   UNL d   1      51.961  34.436  52.251  0.00  0.00     0.027 A 
ENDBRANCH  11  12
ENDBRANCH  10  11
ENDBRANCH   8  10
ENDBRANCH   4   7
BRANCH   1  18
ATOM     18  C   UNL d   1      53.574  30.600  53.739  0.00  0.00     0.300 C 
ATOM     19  O   UNL d   1      53.328  30.418  52.961  0.00  0.00    -0.259 OA
BRANCH  18  20
ATOM     20  O   UNL d   1      53.640  29.992  54.300  0.00  0.00    -0.271 OA
BRANCH  20  21
ATOM     21  C   UNL d   1      53.349  29.236  54.111  0.00  0.00     0.126 C 
ATOM     22  C   UNL d   1      53.369  28.642  54.689  0.00  0.00     0.029 C 
ENDBRANCH  20  21
ENDBRANCH  18  20
ENDBRANCH   1  18
TORSDOF 7
ENDMDL
MODEL 2
REMARK VINA RESULT:      -7.9      0.935      4.290
REMARK  7 active torsions:
REMARK  status: ('A' for Active; 'I' for Inactive)
REMARK    1  A    between atoms: C_2  and  C_8 
REMARK    2  A    between atoms: O_17  and  C_2 
REMARK    3  A    between atoms: C_15  and  C_3 
REMARK    4  A    between atoms: C_5  and  C_16 
REMARK       I    between atoms: N_9  and  C_5 
REMARK    5  A    between atoms: C_14  and  N_9 
REMARK    6  A    between atoms: C_16  and  C_15 
REMARK    7  A    between atoms: C_21  and  O_17 
ROOT
ATOM      1  C   UNL d   1      51.458  34.262  52.999  0.00  0.00     0.064 A 
ATOM      2  C   UNL d   1      52.179  34.506  52.661  0.00  0.00     0.007 A 
ATOM      3  C   UNL d   1      51.459  33.930  53.761  0.00  0.00     0.007 A 
ATOM      4  C   UNL d   1      52.869  34.087  53.834  0.00  0.00     0.085 A 
ATOM      5  C   UNL d   1      52.877  34.416  53.081  0.00  0.00     0.019 A 
ATOM      6  C   UNL d   1      52.166  33.847  54.168  0.00  0.00     0.019 A 
ENDROOT
BRANCH   4   7
ATOM      7  N   UNL d   1      53.580  33.998  54.255  0.00  0.00    -0.208 NA
ATOM      8  C   UNL d   1      53.963  33.269  54.261  0.00  0.00     0.279 C 
ATOM      9  O   UNL d   1      54.666  33.176  54.676  0.00  0.00    -0.265 OA
BRANCH   8  10
ATOM     10  C   UNL d   1      53.646  32.626  53.852  0.00  0.00     0.065 C 
BRANCH  10  11
ATOM     11  C   UNL d   1      54.093  31.948  53.740  0.00  0.00     0.030 C 
BRANCH  11  12
ATOM     12  C   UNL d   1      53.721  31.221  53.606  0.00  0.00     0.100 A 
ATOM     13  O   UNL d   1      53.632  30.600  54.145  0.00  0.00    -0.307 OA
ATOM     14  C   UNL d   1      53.231  29.990  53.779  0.00  0.00     0.100 A 
ATOM     15  C   UNL d   1      53.063  30.227  53.003  0.00  0.00     0.027 A 
ATOM     16  C   UNL d   1      53.028  29.271  54.116  0.00  0.00     0.027 C 
ATOM     17  C   UNL d   1      53.366  30.987  52.896  0.00  0.00     0.027 A 
ENDBRANCH  11  12
ENDBRANCH  10  11
ENDBRANCH   8  10
ENDBRANCH   4   7
BRANCH   1  18
ATOM     18  C   UNL d   1      50.758  34.351  52.583  0.00  0.00     0.300 C 
ATOM     19  O   UNL d   1      50.715  34.095  51.788  0.00  0.00    -0.259 OA
BRANCH  18  20
ATOM     20  O   UNL d   1      50.091  34.691  52.939  0.00  0.00    -0.271 OA
BRANCH  20  21
ATOM     21  C   UNL d   1      49.430  34.872  52.467  0.00  0.00     0.126 C 
ATOM     22  C   UNL d   1      48.800  35.295  52.802  0.00  0.00     0.029 C 
ENDBRANCH  20  21
ENDBRANCH  18  20
ENDBRANCH   1  18
TORSDOF 7
ENDMDL
MODEL 3
REMARK VINA RESULT:      -7.7      1.626      4.615
REMARK  7 active torsions:
REMARK  status: ('A' for Active; 'I' for Inactive)
REMARK    1  A    between atoms: C_2  and  C_8 
REMARK    2  A    between atoms: O_17  and  C_2 
REMARK    3  A    between atoms: C_15  and  C_3 
REMARK    4  A    between atoms: C_5  and  C_16 
REMARK       I    between atoms: N_9  and  C_5 
REMARK    5  A    between atoms: C_14  and  N_9 
REMARK    6  A    between atoms: C_16  and  C_15 
REMARK    7  A    between atoms: C_21  and  O_17 
ROOT
ATOM      1  C   UNL d   1      50.966  33.990  53.025  0.00  0.00     0.064 A 
ATOM      2  C   UNL d   1      51.589  34.028  52.473  0.00  0.00     0.007 A 
ATOM      3  C   UNL d   1      50.784  33.262  53.382  0.00  0.00     0.007 A 
ATOM      4  C   UNL d   1      51.825  32.635  52.647  0.00  0.00     0.085 A 
ATOM      5  C   UNL d   1      52.012  33.350  52.289  0.00  0.00     0.019 A 
ATOM      6  C   UNL d   1      51.217  32.593  53.187  0.00  0.00     0.019 A 
ENDROOT
BRANCH   4   7
ATOM      7  N   UNL d   1      52.259  31.951  52.457  0.00  0.00    -0.208 NA
ATOM      8  C   UNL d   1      52.937  31.765  52.885  0.00  0.00     0.279 C 
ATOM      9  O   UNL d   1      53.369  31.091  52.702  0.00  0.00    -0.265 OA
BRANCH   8  10
ATOM     10  C   UNL d   1      53.190  32.252  53.502  0.00  0.00     0.065 C 
BRANCH  10  11
ATOM     11  C   UNL d   1      53.836  32.038  53.959  0.00  0.00     0.030 C 
BRANCH  11  12
ATOM     12  C   UNL d   1      54.187  32.587  54.468  0.00  0.00     0.100 A 
ATOM     13  O   UNL d   1      54.773  33.140  54.279  0.00  0.00    -0.307 OA
ATOM     14  C   UNL d   1      54.956  33.569  54.950  0.00  0.00     0.100 A 
ATOM     15  C   UNL d   1      54.482  33.286  55.568  0.00  0.00     0.027 A 
ATOM     16  C   UNL d   1      55.508  34.171  55.005  0.00  0.00     0.027 C 
ATOM     17  C   UNL d   1      54.007  32.680  55.271  0.00  0.00     0.027 A 
ENDBRANCH  11  12
ENDBRANCH  10  11
ENDBRANCH   8  10
ENDBRANCH   4   7
BRANCH   1  18
ATOM     18  C   UNL d   1      50.540  34.664  53.211  0.00  0.00     0.300 C 
ATOM     19  O   UNL d   1      50.896  35.263  53.673  0.00  0.00    -0.259 OA
BRANCH  18  20
ATOM     20  O   UNL d   1      49.760  34.762  52.945  0.00  0.00    -0.271 OA
BRANCH  20  21
ATOM     21  C   UNL d   1      49.302  35.382  53.259  0.00  0.00     0.126 C 
ATOM     22  C   UNL d   1      48.549  35.526  52.941  0.00  0.00     0.029 C 
ENDBRANCH  20  21
ENDBRANCH  18  20
ENDBRANCH   1  18
TORSDOF 7
ENDMDL
MODEL 4
REMARK VINA RESULT:      -6.9      1.494      2.883
REMARK  7 active torsions:
REMARK  status: ('A' for Active; 'I' for Inactive)
REMARK    1  A    between atoms: C_2  and  C_8 
REMARK    2  A    between atoms: O_17  and  C_2 
REMARK    3  A    between atoms: C_15  and  C_3 
REMARK    4  A    between atoms: C_5  and  C_16 
REMARK       I    between atoms: N_9  and  C_5 
REMARK    5  A    between atoms: C_14  and  N_9 
REMARK    6  A    between atoms: C_16  and  C_15 
REMARK    7  A    between atoms: C_21  and  O_17 
ROOT
ATOM      1  C   UNL d   1      52.626  30.487  53.260  0.00  0.00     0.064 A 
ATOM      2  C   UNL d   1      51.906  30.828  53.505  0.00  0.00     0.007 A 
ATOM      3  C   UNL d   1      53.139  30.926  52.777  0.00  0.00     0.007 A 
ATOM      4  C   UNL d   1      52.229  32.016  52.790  0.00  0.00     0.085 A 
ATOM      5  C   UNL d   1      51.715  31.589  53.268  0.00  0.00     0.019 A 
ATOM      6  C   UNL d   1      52.933  31.686  52.548  0.00  0.00     0.019 A 
ENDROOT
BRANCH   4   7
ATOM      7  N   UNL d   1      52.029  32.788  52.552  0.00  0.00    -0.208 NA
ATOM      8  C   UNL d   1      52.318  33.433  52.975  0.00  0.00     0.279 C 
ATOM      9  O   UNL d   1      52.124  34.197  52.745  0.00  0.00    -0.265 OA
BRANCH   8  10
ATOM     10  C   UNL d   1      52.804  33.319  53.632  0.00  0.00     0.065 C 
BRANCH  10  11
ATOM     11  C   UNL d   1      53.081  33.963  54.058  0.00  0.00     0.030 C 
BRANCH  11  12
ATOM     12  C   UNL d   1      53.732  33.882  54.561  0.00  0.00     0.100 A 
ATOM     13  O   UNL d   1      54.531  33.946  54.355  0.00  0.00    -0.307 OA
ATOM     14  C   UNL d   1      54.985  33.826  55.025  0.00  0.00     0.100 A 
ATOM     15  C   UNL d   1      54.468  33.685  55.658  0.00  0.00     0.027 A 
ATOM     16  C   UNL d   1      55.802  33.841  55.066  0.00  0.00     0.027 C 
ATOM     17  C   UNL d   1      53.695  33.720  55.372  0.00  0.00     0.027 A 
ENDBRANCH  11  12
ENDBRANCH  10  11
ENDBRANCH   8  10
ENDBRANCH   4   7
BRANCH   1  18
ATOM     18  C   UNL d   1      52.820  29.727  53.495  0.00  0.00     0.300 C 
ATOM     19  O   UNL d   1      52.620  29.079  53.007  0.00  0.00    -0.259 OA
BRANCH  18  20
ATOM     20  O   UNL d   1      53.214  29.591  54.212  0.00  0.00    -0.271 OA
BRANCH  20  21
ATOM     21  C   UNL d   1      53.290  28.810  54.490  0.00  0.00     0.126 C 
ATOM     22  C   UNL d   1      53.561  28.683  55.264  0.00  0.00     0.029 C 
ENDBRANCH  20  21
ENDBRANCH  18  20
ENDBRANCH   1  18
TORSDOF 7
ENDMDL
MODEL 5
REMARK VINA RESULT:      -5.9      1.512      3.200
REMARK  7 active torsions:
REMARK  status: ('A' for Active; 'I' for Inactive)
REMARK    1  A    between atoms: C_2  and  C_8 
REMARK    2  A    between atoms: O_17  and  C_2 
REMARK    3  A    between atoms: C_15  and  C_3 
REMARK    4  A    between atoms: C_5  and  C_16 
REMARK       I    between atoms: N_9  and  C_5 
REMARK    5  A    between atoms: C_14  and  N_9 
REMARK    6  A    between atoms: C_16  and  C_15 
REMARK    7  A    between atoms: C_21  and  O_17 
ROOT
ATOM      1  C   UNL d   1      54.514  33.284  54.762  0.00  0.00     0.064 A 
ATOM      2  C   UNL d   1      53.980  32.748  55.112  0.00  0.00     0.007 A 
ATOM      3  C   UNL d   1      54.734  33.177  53.968  0.00  0.00     0.007 A 
ATOM      4  C   UNL d   1      53.904  32.027  53.886  0.00  0.00     0.085 A 
ATOM      5  C   UNL d   1      53.681  32.125  54.671  0.00  0.00     0.019 A 
ATOM      6  C   UNL d   1      54.425  32.548  53.541  0.00  0.00     0.019 A 
ENDROOT
BRANCH   4   7
ATOM      7  N   UNL d   1      53.597  31.393  53.444  0.00  0.00    -0.208 NA
ATOM      8  C   UNL d   1      52.905  31.495  53.010  0.00  0.00     0.279 C 
ATOM      9  O   UNL d   1      52.597  30.873  52.572  0.00  0.00    -0.265 OA
BRANCH   8  10
ATOM     10  C   UNL d   1      52.513  32.223  53.011  0.00  0.00     0.065 C 
BRANCH  10  11
ATOM     11  C   UNL d   1      51.794  32.305  52.626  0.00  0.00     0.030 C 
BRANCH  11  12
ATOM     12  C   UNL d   1      51.413  33.038  52.607  0.00  0.00     0.100 A 
ATOM     13  O   UNL d   1      50.822  33.306  53.121  0.00  0.00    -0.307 OA
ATOM     14  C   UNL d   1      50.605  34.062  52.899  0.00  0.00     0.100 A 
ATOM     15  C   UNL d   1      51.062  34.274  52.241  0.00  0.00     0.027 A 
ATOM     16  C   UNL d   1      50.038  34.530  53.261  0.00  0.00     0.027 C 
ATOM     17  C   UNL d   1      51.561  33.643  52.061  0.00  0.00     0.027 A 
ENDBRANCH  11  12
ENDBRANCH  10  11
ENDBRANCH   8  10
ENDBRANCH   4   7
BRANCH   1  18
ATOM     18  C   UNL d   1      54.815  33.907  55.199  0.00  0.00     0.300 C 
ATOM     19  O   UNL d   1      55.640  33.968  55.319  0.00  0.00    -0.259 OA
BRANCH  18  20
ATOM     20  O   UNL d   1      54.312  34.480  55.525  0.00  0.00    -0.271 OA
BRANCH  20  21
ATOM     21  C   UNL d   1      54.273  35.232  55.170  0.00  0.00     0.126 C 
ATOM     22  C   UNL d   1      53.564  35.661  55.213  0.00  0.00     0.029 C 
ENDBRANCH  20  21
ENDBRANCH  18  20
ENDBRANCH   1  18
TORSDOF 7
ENDMDL
MODEL 6
REMARK VINA RESULT:      -5.7      1.701      4.793
REMARK  7 active torsions:
REMARK  status: ('A' for Active; 'I' for Inactive)
REMARK    1  A    between atoms: C_2  and  C_8 
REMARK    2  A    between atoms: O_17  and  C_2 
REMARK    3  A    between atoms: C_15  and  C_3 
REMARK    4  A    between atoms: C_5  and  C_16 
REMARK       I    between atoms: N_9  and  C_5 
REMARK    5  A    between atoms: C_14  and  N_9 
REMARK    6  A    between atoms: C_16  and  C_15 
REMARK    7  A    between atoms: C_21  and  O_17 
ROOT
ATOM      1  C   UNL d   1      53.254  33.090  54.035  0.00  0.00     0.064 A 
ATOM      2  C   UNL d   1      52.493  32.891  53.758  0.00  0.00     0.007 A 
ATOM      3  C   UNL d   1      53.916  32.705  53.713  0.00  0.00     0.007 A 
ATOM      4  C   UNL d   1      53.069  31.944  52.864  0.00  0.00     0.085 A 
ATOM      5  C   UNL d   1      52.408  32.320  53.176  0.00  0.00     0.019 A 
ATOM      6  C   UNL d   1      53.814  32.137  53.131  0.00  0.00     0.019 A 
ENDROOT
BRANCH   4   7
ATOM      7  N   UNL d   1      52.977  31.366  52.273  0.00  0.00    -0.208 NA
ATOM      8  C   UNL d   1      52.931  30.571  52.483  0.00  0.00     0.279 C 
ATOM      9  O   UNL d   1      52.839  29.996  51.904  0.00  0.00    -0.265 OA
BRANCH   8  10
ATOM     10  C   UNL d   1      52.976  30.344  53.275  0.00  0.00     0.065 C 
BRANCH  10  11
ATOM     11  C   UNL d   1      52.775  29.581  53.498  0.00  0.00     0.030 C 
BRANCH  11  12
ATOM     12  C   UNL d   1      53.069  29.262  54.202  0.00  0.00     0.100 A 
ATOM     13  O   UNL d   1      52.872  29.490  54.973  0.00  0.00    -0.307 OA
ATOM     14  C   UNL d   1      53.293  29.027  55.499  0.00  0.00     0.100 A 
ATOM     15  C   UNL d   1      53.758  28.502  55.058  0.00  0.00     0.027 A 
ATOM     16  C   UNL d   1      53.262  29.071  56.317  0.00  0.00     0.027 C 
ATOM     17  C   UNL d   1      53.620  28.647  54.257  0.00  0.00     0.027 A 
ENDBRANCH  11  12
ENDBRANCH  10  11
ENDBRANCH   8  10
ENDBRANCH   4   7
BRANCH   1  18
ATOM     18  C   UNL d   1      53.343  33.660  54.616  0.00  0.00     0.300 C 
ATOM     19  O   UNL d   1      53.791  33.486  55.300  0.00  0.00    -0.259 OA
BRANCH  18  20
ATOM     20  O   UNL d   1      52.993  34.408  54.536  0.00  0.00    -0.271 OA
BRANCH  20  21
ATOM     21  C   UNL d   1      53.286  35.041  54.990  0.00  0.00     0.126 C 
ATOM     22  C   UNL d   1      53.071  35.815  54.785  0.00  0.00     0.029 C 
ENDBRANCH  20  21
ENDBRANCH  18  20
ENDBRANCH   1  18
TORSDOF 7
ENDMDL
