MODEL 1
REMARK VINA RESULT:      51.6      0.000      0.000
REMARK  3 active torsions:
REMARK  status: ('A' for Active; 'I' for Inactive)
REMARK    1  A    between atoms: N_5  and  C_2 
REMARK    2  A    between atoms: C_8  and  C_3 
REMARK       I    between atoms: C_7  and  N_5 
REMARK    3  A    between atoms: C_10  and  C_7 
ROOT
ATOM      1  N   UNL d   1      61.186  47.368  50.967  0.00  0.00    -0.200 NA
ATOM      2  C   UNL d   1      61.171  48.188  51.028  0.00  0.00     0.216 A 
ATOM      3  C   UNL d   1      61.446  47.177  50.198  0.00  0.00     0.172 A 
ATOM      4  N   UNL d   1      61.586  47.895  49.801  0.00  0.00    -0.187 NA
ATOM      5  S   UNL d   1      61.413  48.512  50.322  0.00  0.00     0.054 SA
ENDROOT
BRANCH   2   6
ATOM      6  N   UNL d   1      60.944  48.623  51.707  0.00  0.00    -0.181 NA
ATOM      7  C   UNL d   1      60.468  49.289  51.644  0.00  0.00     0.281 C 
ATOM      8  O   UNL d   1      60.254  49.706  52.323  0.00  0.00    -0.265 OA
BRANCH   7   9
ATOM      9  C   UNL d   1      60.207  49.539  50.903  0.00  0.00     0.058 C 
ATOM     10  C   UNL d   1      60.750  49.708  50.307  0.00  0.00     0.005 C 
ATOM     11  C   UNL d   1      59.399  49.619  50.760  0.00  0.00     0.005 C 
ENDBRANCH   7   9
ENDBRANCH   2   6
BRANCH   3  12
ATOM     12  C   UNL d   1      61.555  46.432  49.862  0.00  0.00     0.036 A 
ATOM     13  C   UNL d   1      61.188  45.765  50.196  0.00  0.00     0.003 A 
ATOM     14  C   UNL d   1      61.297  45.019  49.860  0.00  0.00     0.000 A 
ATOM     15  C   UNL d   1      61.774  44.933  49.186  0.00  0.00     0.000 A 
ATOM     16  C   UNL d   1      62.141  45.599  48.851  0.00  0.00     0.000 A 
ATOM     17  C   UNL d   1      62.032  46.345  49.188  0.00  0.00     0.003 A 
ENDBRANCH   3  12
TORSDOF 3
ENDMDL
