MODEL 1
REMARK VINA RESULT:      -5.4      0.000      0.000
REMARK  1 active torsions:
REMARK  status: ('A' for Active; 'I' for Inactive)
REMARK       I    between atoms: C_2  and  N_1 
REMARK    1  A    between atoms: C_4  and  C_2 
ROOT
ATOM      1  N   UNL d   1     -41.527-122.560 -52.816  0.00  0.00    -0.273 N 
ATOM      2  C   UNL d   1     -41.634-122.987 -53.539  0.00  0.00     0.271 C 
ATOM      3  C   UNL d   1     -41.395-122.868 -52.063  0.00  0.00     0.067 A 
ATOM      4  C   UNL d   1     -41.535-121.725 -52.728  0.00  0.00     0.083 A 
ATOM      5  O   UNL d   1     -41.608-123.817 -53.511  0.00  0.00    -0.266 OA
ATOM      6  C   UNL d   1     -41.323-122.249 -51.525  0.00  0.00     0.018 A 
ATOM      7  C   UNL d   1     -41.411-121.541 -51.948  0.00  0.00     0.021 A 
ATOM      8  C   UNL d   1     -41.333-123.653 -51.818  0.00  0.00     0.018 A 
ATOM      9  C   UNL d   1     -41.188-122.407 -50.736  0.00  0.00     0.002 A 
ATOM     10  C   UNL d   1     -41.199-123.813 -51.026  0.00  0.00     0.002 A 
ATOM     11  C   UNL d   1     -41.123-123.180 -50.461  0.00  0.00     0.000 A 
ENDROOT
BRANCH   2  12
ATOM     12  C   UNL d   1     -41.763-122.579 -54.255  0.00  0.00     0.086 A 
ATOM     13  S   UNL d   1     -42.341-122.049 -54.496  0.00  0.00    -0.082 SA
ATOM     14  C   UNL d   1     -42.168-121.834 -55.277  0.00  0.00     0.036 A 
ATOM     15  C   UNL d   1     -41.494-122.219 -55.530  0.00  0.00     0.008 A 
ATOM     16  C   UNL d   1     -41.234-122.686 -54.898  0.00  0.00     0.012 A 
ENDBRANCH   2  12
TORSDOF 1
ENDMDL
MODEL 2
REMARK VINA RESULT:      -5.1      1.204      3.517
REMARK  1 active torsions:
REMARK  status: ('A' for Active; 'I' for Inactive)
REMARK       I    between atoms: C_2  and  N_1 
REMARK    1  A    between atoms: C_4  and  C_2 
ROOT
ATOM      1  N   UNL d   1     -41.589-122.716 -53.156  0.00  0.00    -0.273 N 
ATOM      2  C   UNL d   1     -41.761-122.371 -52.402  0.00  0.00     0.271 C 
ATOM      3  C   UNL d   1     -41.790-122.427 -53.901  0.00  0.00     0.067 A 
ATOM      4  C   UNL d   1     -41.171-123.432 -53.289  0.00  0.00     0.083 A 
ATOM      5  O   UNL d   1     -42.183-121.655 -52.386  0.00  0.00    -0.266 OA
ATOM      6  C   UNL d   1     -41.509-122.943 -54.478  0.00  0.00     0.018 A 
ATOM      7  C   UNL d   1     -41.125-123.566 -54.088  0.00  0.00     0.021 A 
ATOM      8  C   UNL d   1     -42.202-121.743 -54.107  0.00  0.00     0.018 A 
ATOM      9  C   UNL d   1     -41.637-122.781 -55.267  0.00  0.00     0.002 A 
ATOM     10  C   UNL d   1     -42.332-121.580 -54.899  0.00  0.00     0.002 A 
ATOM     11  C   UNL d   1     -42.045-122.107 -55.504  0.00  0.00     0.000 A 
ENDROOT
BRANCH   2  12
ATOM     12  C   UNL d   1     -41.511-122.746 -51.700  0.00  0.00     0.086 A 
ATOM     13  S   UNL d   1     -41.366-123.530 -51.510  0.00  0.00    -0.082 SA
ATOM     14  C   UNL d   1     -41.129-123.552 -50.717  0.00  0.00     0.036 A 
ATOM     15  C   UNL d   1     -41.123-122.797 -50.407  0.00  0.00     0.008 A 
ATOM     16  C   UNL d   1     -41.360-122.287 -51.013  0.00  0.00     0.012 A 
ENDBRANCH   2  12
TORSDOF 1
ENDMDL
MODEL 3
REMARK VINA RESULT:      -4.2      1.796      3.767
REMARK  1 active torsions:
REMARK  status: ('A' for Active; 'I' for Inactive)
REMARK       I    between atoms: C_2  and  N_1 
REMARK    1  A    between atoms: C_4  and  C_2 
ROOT
ATOM      1  N   UNL d   1     -41.591-122.777 -51.568  0.00  0.00    -0.273 N 
ATOM      2  C   UNL d   1     -41.853-122.309 -50.913  0.00  0.00     0.271 C 
ATOM      3  C   UNL d   1     -41.547-122.557 -52.360  0.00  0.00     0.067 A 
ATOM      4  C   UNL d   1     -41.321-123.572 -51.531  0.00  0.00     0.083 A 
ATOM      5  O   UNL d   1     -42.100-121.529 -51.063  0.00  0.00    -0.266 OA
ATOM      6  C   UNL d   1     -41.261-123.190 -52.803  0.00  0.00     0.018 A 
ATOM      7  C   UNL d   1     -41.123-123.817 -52.278  0.00  0.00     0.021 A 
ATOM      8  C   UNL d   1     -41.741-121.841 -52.719  0.00  0.00     0.018 A 
ATOM      9  C   UNL d   1     -41.165-123.113 -53.610  0.00  0.00     0.002 A 
ATOM     10  C   UNL d   1     -41.645-121.762 -53.529  0.00  0.00     0.002 A 
ATOM     11  C   UNL d   1     -41.350-122.411 -53.996  0.00  0.00     0.000 A 
ENDROOT
BRANCH   2  12
ATOM     12  C   UNL d   1     -41.859-122.627 -50.142  0.00  0.00     0.086 A 
ATOM     13  S   UNL d   1     -41.265-122.772 -49.596  0.00  0.00    -0.082 SA
ATOM     14  C   UNL d   1     -41.622-123.097 -48.923  0.00  0.00     0.036 A 
ATOM     15  C   UNL d   1     -42.428-123.157 -49.037  0.00  0.00     0.008 A 
ATOM     16  C   UNL d   1     -42.586-122.866 -49.795  0.00  0.00     0.012 A 
ENDBRANCH   2  12
TORSDOF 1
ENDMDL
