MODEL 1
REMARK VINA RESULT:      20.4      0.000      0.000
REMARK  8 active torsions:
REMARK  status: ('A' for Active; 'I' for Inactive)
REMARK    1  A    between atoms: C_2  and  S_1 
REMARK    2  A    between atoms: N_8  and  S_1 
REMARK    3  A    between atoms: C_13  and  N_8 
REMARK    4  A    between atoms: N_9  and  C_14 
REMARK    5  A    between atoms: O_15  and  C_10 
REMARK    6  A    between atoms: C_14  and  C_13 
REMARK    7  A    between atoms: C_22  and  O_15 
REMARK    8  A    between atoms: C_23  and  C_22 
ROOT
ATOM      1  C   UNL d   1      45.208 -14.198  44.072  0.00  0.00     0.105 A 
ATOM      2  C   UNL d   1      45.630 -13.507  44.230  0.00  0.00     0.014 A 
ATOM      3  C   UNL d   1      45.456 -12.811  43.821  0.00  0.00     0.024 A 
ATOM      4  C   UNL d   1      44.615 -14.195  43.509  0.00  0.00     0.015 A 
ATOM      5  C   UNL d   1      44.854 -12.813  43.250  0.00  0.00     0.100 A 
ATOM      6  C   UNL d   1      44.437 -13.501  43.097  0.00  0.00     0.025 A 
ATOM      7  C   UNL d   1      46.223 -13.511  44.793  0.00  0.00     0.001 A 
ATOM      8  C   UNL d   1      45.876 -12.126  43.979  0.00  0.00     0.002 A 
ATOM      9  C   UNL d   1      46.645 -12.826  44.954  0.00  0.00     0.000 A 
ATOM     10  C   UNL d   1      46.474 -12.126  44.546  0.00  0.00     0.000 A 
ENDROOT
BRANCH   1  11
ATOM     11  S   UNL d   1      45.385 -14.892  44.484  0.00  0.00     0.285 S 
ATOM     12  O   UNL d   1      44.585 -15.045  44.571  0.00  0.00    -0.198 OA
ATOM     13  O   UNL d   1      46.195 -14.737  44.396  0.00  0.00    -0.198 OA
BRANCH  11  14
ATOM     14  N   UNL d   1      45.562 -15.584  44.895  0.00  0.00    -0.155 NA
BRANCH  14  15
ATOM     15  C   UNL d   1      46.056 -16.150  44.547  0.00  0.00     0.131 C 
BRANCH  15  16
ATOM     16  C   UNL d   1      45.738 -16.695  44.014  0.00  0.00     0.102 C 
BRANCH  16  17
ATOM     17  N   UNL d   1      45.987 -17.477  44.029  0.00  0.00    -0.298 N 
ATOM     18  C   UNL d   1      46.252 -17.840  43.340  0.00  0.00     0.107 A 
ATOM     19  C   UNL d   1      46.503 -18.627  43.353  0.00  0.00     0.142 A 
ATOM     20  O   UNL d   1      46.488 -19.051  44.061  0.00  0.00    -0.300 OA
ATOM     21  C   UNL d   1      46.222 -18.687  44.756  0.00  0.00     0.142 A 
ATOM     22  C   UNL d   1      45.972 -17.900  44.738  0.00  0.00     0.107 A 
ENDBRANCH  16  17
ENDBRANCH  15  16
ENDBRANCH  14  15
ENDBRANCH  11  14
ENDBRANCH   1  11
BRANCH   5  23
ATOM     23  O   UNL d   1      44.677 -12.121  42.840  0.00  0.00    -0.305 OA
BRANCH  23  24
ATOM     24  C   UNL d   1      44.797 -12.080  42.030  0.00  0.00     0.123 C 
BRANCH  24  25
ATOM     25  C   UNL d   1      44.253 -12.417  41.513  0.00  0.00     0.027 C 
ATOM     26  C   UNL d   1      44.132 -12.086  40.766  0.00  0.00     0.002 C 
ENDBRANCH  24  25
ENDBRANCH  23  24
ENDBRANCH   5  23
TORSDOF 8
ENDMDL
