MODEL 1
REMARK VINA RESULT:      -2.5      0.000      0.000
REMARK  8 active torsions:
REMARK  status: ('A' for Active; 'I' for Inactive)
REMARK    1  A    between atoms: C_9  and  N_1 
REMARK    2  A    between atoms: C_13  and  C_5 
REMARK    3  A    between atoms: C_8  and  C_6 
REMARK    4  A    between atoms: C_7  and  N_11 
REMARK    5  A    between atoms: C_10  and  C_9 
REMARK       I    between atoms: N_11  and  C_10 
REMARK    6  A    between atoms: C_15  and  C_13 
REMARK    7  A    between atoms: C_18  and  C_15 
REMARK    8  A    between atoms: C_20  and  C_18 
ROOT
ATOM      1  N   UNL d   1      32.527  18.733 -23.358  0.00  0.00    -0.230 N 
ATOM      2  C   UNL d   1      32.529  19.439 -23.793  0.00  0.00     0.299 A 
ATOM      3  C   UNL d   1      32.793  18.899 -22.595  0.00  0.00     0.274 A 
ATOM      4  S   UNL d   1      32.798  20.045 -23.293  0.00  0.00    -0.022 SA
ATOM      5  C   UNL d   1      32.958  19.708 -22.559  0.00  0.00     0.090 A 
ATOM      6  O   UNL d   1      32.303  19.524 -24.585  0.00  0.00    -0.259 OA
ATOM      7  O   UNL d   1      32.878  18.360 -21.979  0.00  0.00    -0.266 OA
ENDROOT
BRANCH   1   8
ATOM      8  C   UNL d   1      32.298  17.996 -23.646  0.00  0.00     0.149 C 
BRANCH   8   9
ATOM      9  C   UNL d   1      32.631  17.709 -24.349  0.00  0.00     0.297 C 
ATOM     10  N   UNL d   1      32.360  17.002 -24.676  0.00  0.00    -0.206 NA
ATOM     11  O   UNL d   1      33.237  18.136 -24.720  0.00  0.00    -0.264 OA
BRANCH  10  12
ATOM     12  C   UNL d   1      31.758  16.586 -24.300  0.00  0.00     0.090 A 
ATOM     13  C   UNL d   1      31.929  15.884 -23.912  0.00  0.00     0.082 A 
ATOM     14  C   UNL d   1      31.330  15.465 -23.536  0.00  0.00     0.008 A 
ATOM     15  C   UNL d   1      30.554  15.756 -23.549  0.00  0.00     0.000 A 
ATOM     16  C   UNL d   1      30.391  16.466 -23.943  0.00  0.00     0.002 A 
ATOM     17  C   UNL d   1      30.993  16.876 -24.315  0.00  0.00     0.019 A 
BRANCH  13  18
ATOM     18  C   UNL d   1      32.703  15.597 -23.901  0.00  0.00     0.212 C 
ATOM     19  O   UNL d   1      33.082  15.453 -23.177  0.00  0.00    -0.644 OA
ATOM     20  O   UNL d   1      33.099  15.453 -24.606  0.00  0.00    -0.644 OA
ENDBRANCH  13  18
ENDBRANCH  10  12
ENDBRANCH   8   9
ENDBRANCH   1   8
BRANCH   5  21
ATOM     21  C   UNL d   1      33.239  20.112 -21.893  0.00  0.00     0.011 C 
BRANCH  21  22
ATOM     22  C   UNL d   1      33.066  20.915 -21.792  0.00  0.00     0.001 C 
BRANCH  22  23
ATOM     23  C   UNL d   1      32.898  21.211 -21.045  0.00  0.00     0.000 C 
BRANCH  23  24
ATOM     24  C   UNL d   1      32.710  22.010 -20.949  0.00  0.00     0.000 A 
ATOM     25  C   UNL d   1      32.556  22.472 -21.606  0.00  0.00     0.000 A 
ATOM     26  C   UNL d   1      32.368  23.269 -21.516  0.00  0.00     0.000 A 
ATOM     27  C   UNL d   1      32.337  23.605 -20.758  0.00  0.00     0.000 A 
ATOM     28  C   UNL d   1      32.494  23.132 -20.096  0.00  0.00     0.000 A 
ATOM     29  C   UNL d   1      32.680  22.338 -20.194  0.00  0.00     0.000 A 
ENDBRANCH  23  24
ENDBRANCH  22  23
ENDBRANCH  21  22
ENDBRANCH   5  21
TORSDOF 8
ENDMDL
MODEL 2
REMARK VINA RESULT:       0.2      1.689      2.303
REMARK  8 active torsions:
REMARK  status: ('A' for Active; 'I' for Inactive)
REMARK    1  A    between atoms: C_9  and  N_1 
REMARK    2  A    between atoms: C_13  and  C_5 
REMARK    3  A    between atoms: C_8  and  C_6 
REMARK    4  A    between atoms: C_7  and  N_11 
REMARK    5  A    between atoms: C_10  and  C_9 
REMARK       I    between atoms: N_11  and  C_10 
REMARK    6  A    between atoms: C_15  and  C_13 
REMARK    7  A    between atoms: C_18  and  C_15 
REMARK    8  A    between atoms: C_20  and  C_18 
ROOT
ATOM      1  N   UNL d   1      31.543  17.806 -23.726  0.00  0.00    -0.230 N 
ATOM      2  C   UNL d   1      31.345  18.501 -24.133  0.00  0.00     0.299 A 
ATOM      3  C   UNL d   1      32.276  17.918 -23.364  0.00  0.00     0.274 A 
ATOM      4  S   UNL d   1      31.962  19.045 -24.020  0.00  0.00    -0.022 SA
ATOM      5  C   UNL d   1      32.530  18.683 -23.548  0.00  0.00     0.090 A 
ATOM      6  O   UNL d   1      30.656  18.628 -24.573  0.00  0.00    -0.259 OA
ATOM      7  O   UNL d   1      32.683  17.371 -22.903  0.00  0.00    -0.266 OA
ENDROOT
BRANCH   1   8
ATOM      8  C   UNL d   1      31.083  17.124 -23.693  0.00  0.00     0.149 C 
BRANCH   8   9
ATOM      9  C   UNL d   1      30.924  16.702 -24.390  0.00  0.00     0.297 C 
ATOM     10  N   UNL d   1      30.390  16.074 -24.379  0.00  0.00    -0.206 NA
ATOM     11  O   UNL d   1      31.306  16.916 -25.093  0.00  0.00    -0.264 OA
BRANCH  10  12
ATOM     12  C   UNL d   1      30.017  15.870 -23.675  0.00  0.00     0.090 A 
ATOM     13  C   UNL d   1      29.198  15.868 -23.634  0.00  0.00     0.082 A 
ATOM     14  C   UNL d   1      28.822  15.665 -22.933  0.00  0.00     0.008 A 
ATOM     15  C   UNL d   1      29.273  15.462 -22.267  0.00  0.00     0.000 A 
ATOM     16  C   UNL d   1      30.099  15.467 -22.318  0.00  0.00     0.002 A 
ATOM     17  C   UNL d   1      30.466  15.671 -23.021  0.00  0.00     0.019 A 
BRANCH  13  18
ATOM     18  C   UNL d   1      28.751  16.071 -24.298  0.00  0.00     0.212 C 
ATOM     19  O   UNL d   1      28.788  15.603 -24.982  0.00  0.00    -0.644 OA
ATOM     20  O   UNL d   1      28.269  16.736 -24.282  0.00  0.00    -0.644 OA
ENDBRANCH  13  18
ENDBRANCH  10  12
ENDBRANCH   8   9
ENDBRANCH   1   8
BRANCH   5  21
ATOM     21  C   UNL d   1      33.241  19.027 -23.297  0.00  0.00     0.011 C 
BRANCH  21  22
ATOM     22  C   UNL d   1      33.230  19.721 -22.847  0.00  0.00     0.001 C 
BRANCH  22  23
ATOM     23  C   UNL d   1      32.916  19.718 -22.088  0.00  0.00     0.000 C 
BRANCH  23  24
ATOM     24  C   UNL d   1      32.957  20.398 -21.621  0.00  0.00     0.000 A 
ATOM     25  C   UNL d   1      32.848  21.133 -21.963  0.00  0.00     0.000 A 
ATOM     26  C   UNL d   1      32.888  21.814 -21.501  0.00  0.00     0.000 A 
ATOM     27  C   UNL d   1      33.040  21.755 -20.687  0.00  0.00     0.000 A 
ATOM     28  C   UNL d   1      33.149  21.008 -20.346  0.00  0.00     0.000 A 
ATOM     29  C   UNL d   1      33.108  20.334 -20.813  0.00  0.00     0.000 A 
ENDBRANCH  23  24
ENDBRANCH  22  23
ENDBRANCH  21  22
ENDBRANCH   5  21
TORSDOF 8
ENDMDL
