MODEL 1
REMARK VINA RESULT:      -4.0      0.000      0.000
REMARK  2 active torsions:
REMARK  status: ('A' for Active; 'I' for Inactive)
REMARK    1  A    between atoms: N_2  and  C_1 
REMARK    2  A    between atoms: C_5  and  N_2 
ROOT
ATOM      1  C   UNL d   1     -41.521-122.170 -53.983  0.00  0.00     0.084 A 
ATOM      2  C   UNL d   1     -42.238-121.778 -54.091  0.00  0.00     0.019 A 
ATOM      3  C   UNL d   1     -41.199-122.625 -54.581  0.00  0.00     0.019 A 
ATOM      4  C   UNL d   1     -41.591-122.695 -55.304  0.00  0.00     0.001 A 
ATOM      5  C   UNL d   1     -42.635-121.845 -54.814  0.00  0.00     0.001 A 
ATOM      6  C   UNL d   1     -42.316-122.302 -55.423  0.00  0.00     0.000 A 
ENDROOT
BRANCH   1   7
ATOM      7  N   UNL d   1     -41.123-122.106 -53.263  0.00  0.00    -0.216 NA
BRANCH   7   8
ATOM      8  C   UNL d   1     -41.276-122.633 -52.655  0.00  0.00     0.241 C 
ATOM      9  S   UNL d   1     -41.577-122.373 -51.938  0.00  0.00    -0.036 SA
ATOM     10  N   UNL d   1     -41.125-123.438 -52.766  0.00  0.00    -0.114 N 
ENDBRANCH   7   8
ENDBRANCH   1   7
TORSDOF 2
ENDMDL
MODEL 2
REMARK VINA RESULT:      -3.4      1.946      2.516
REMARK  2 active torsions:
REMARK  status: ('A' for Active; 'I' for Inactive)
REMARK    1  A    between atoms: N_2  and  C_1 
REMARK    2  A    between atoms: C_5  and  N_2 
ROOT
ATOM      1  C   UNL d   1     -41.131-122.867 -51.688  0.00  0.00     0.084 A 
ATOM      2  C   UNL d   1     -41.136-122.235 -52.217  0.00  0.00     0.019 A 
ATOM      3  C   UNL d   1     -41.124-123.639 -51.958  0.00  0.00     0.019 A 
ATOM      4  C   UNL d   1     -41.123-123.793 -52.769  0.00  0.00     0.001 A 
ATOM      5  C   UNL d   1     -41.135-122.384 -53.031  0.00  0.00     0.001 A 
ATOM      6  C   UNL d   1     -41.128-123.161 -53.312  0.00  0.00     0.000 A 
ENDROOT
BRANCH   1   7
ATOM      7  N   UNL d   1     -41.132-122.722 -50.876  0.00  0.00    -0.216 NA
BRANCH   7   8
ATOM      8  C   UNL d   1     -41.839-122.662 -50.466  0.00  0.00     0.241 C 
ATOM      9  S   UNL d   1     -42.059-123.231 -49.918  0.00  0.00    -0.036 SA
ATOM     10  N   UNL d   1     -42.338-122.017 -50.607  0.00  0.00    -0.114 N 
ENDBRANCH   7   8
ENDBRANCH   1   7
TORSDOF 2
ENDMDL
MODEL 3
REMARK VINA RESULT:      -3.2      3.213      4.716
REMARK  2 active torsions:
REMARK  status: ('A' for Active; 'I' for Inactive)
REMARK    1  A    between atoms: N_2  and  C_1 
REMARK    2  A    between atoms: C_5  and  N_2 
ROOT
ATOM      1  C   UNL d   1     -42.252-123.109 -49.887  0.00  0.00     0.084 A 
ATOM      2  C   UNL d   1     -42.882-122.799 -49.456  0.00  0.00     0.019 A 
ATOM      3  C   UNL d   1     -41.623-123.468 -49.507  0.00  0.00     0.019 A 
ATOM      4  C   UNL d   1     -41.613-123.523 -48.684  0.00  0.00     0.001 A 
ATOM      5  C   UNL d   1     -42.877-122.850 -48.630  0.00  0.00     0.001 A 
ATOM      6  C   UNL d   1     -42.246-123.211 -48.239  0.00  0.00     0.000 A 
ENDROOT
BRANCH   1   7
ATOM      7  N   UNL d   1     -42.254-123.059 -50.710  0.00  0.00    -0.216 NA
BRANCH   7   8
ATOM      8  C   UNL d   1     -41.736-122.554 -51.096  0.00  0.00     0.241 C 
ATOM      9  S   UNL d   1     -41.123-122.849 -51.554  0.00  0.00    -0.036 SA
ATOM     10  N   UNL d   1     -41.834-121.736 -51.023  0.00  0.00    -0.114 N 
ENDBRANCH   7   8
ENDBRANCH   1   7
TORSDOF 2
ENDMDL
MODEL 4
REMARK VINA RESULT:      -1.8      9.859     10.185
REMARK  2 active torsions:
REMARK  status: ('A' for Active; 'I' for Inactive)
REMARK    1  A    between atoms: N_2  and  C_1 
REMARK    2  A    between atoms: C_5  and  N_2 
ROOT
ATOM      1  C   UNL d   1     -42.673-114.859 -47.056  0.00  0.00     0.084 A 
ATOM      2  C   UNL d   1     -42.438-115.553 -46.679  0.00  0.00     0.019 A 
ATOM      3  C   UNL d   1     -42.150-114.440 -47.525  0.00  0.00     0.019 A 
ATOM      4  C   UNL d   1     -41.376-114.712 -47.625  0.00  0.00     0.001 A 
ATOM      5  C   UNL d   1     -41.665-115.829 -46.775  0.00  0.00     0.001 A 
ATOM      6  C   UNL d   1     -41.130-115.412 -47.247  0.00  0.00     0.000 A 
ENDROOT
BRANCH   1   7
ATOM      7  N   UNL d   1     -43.444-114.581 -46.962  0.00  0.00    -0.216 NA
BRANCH   7   8
ATOM      8  C   UNL d   1     -44.077-114.998 -47.273  0.00  0.00     0.241 C 
ATOM      9  S   UNL d   1     -44.670-115.290 -46.787  0.00  0.00    -0.036 SA
ATOM     10  N   UNL d   1     -44.118-115.128 -48.089  0.00  0.00    -0.114 N 
ENDBRANCH   7   8
ENDBRANCH   1   7
TORSDOF 2
ENDMDL
MODEL 5
REMARK VINA RESULT:      -1.5      1.338      2.724
REMARK  2 active torsions:
REMARK  status: ('A' for Active; 'I' for Inactive)
REMARK    1  A    between atoms: N_2  and  C_1 
REMARK    2  A    between atoms: C_5  and  N_2 
ROOT
ATOM      1  C   UNL d   1     -41.128-122.613 -53.029  0.00  0.00     0.084 A 
ATOM      2  C   UNL d   1     -41.125-123.435 -52.968  0.00  0.00     0.019 A 
ATOM      3  C   UNL d   1     -41.137-122.144 -52.359  0.00  0.00     0.019 A 
ATOM      4  C   UNL d   1     -41.143-122.493 -51.611  0.00  0.00     0.001 A 
ATOM      5  C   UNL d   1     -41.131-123.789 -52.221  0.00  0.00     0.001 A 
ATOM      6  C   UNL d   1     -41.140-123.323 -51.539  0.00  0.00     0.000 A 
ENDROOT
BRANCH   1   7
ATOM      7  N   UNL d   1     -41.122-122.256 -53.773  0.00  0.00    -0.216 NA
BRANCH   7   8
ATOM      8  C   UNL d   1     -41.763-122.339 -54.278  0.00  0.00     0.241 C 
ATOM      9  S   UNL d   1     -41.725-122.833 -54.931  0.00  0.00    -0.036 SA
ATOM     10  N   UNL d   1     -42.458-121.917 -54.127  0.00  0.00    -0.114 N 
ENDBRANCH   7   8
ENDBRANCH   1   7
TORSDOF 2
ENDMDL
