MODEL 1
REMARK VINA RESULT:      -3.0      0.000      0.000
REMARK  4 active torsions:
REMARK  status: ('A' for Active; 'I' for Inactive)
REMARK    1  A    between atoms: N_10  and  C_3 
REMARK    2  A    between atoms: C_15  and  C_5 
REMARK    3  A    between atoms: C_14  and  C_9 
REMARK       I    between atoms: C_11  and  N_12 
REMARK    4  A    between atoms: C_13  and  C_11 
ROOT
ATOM      1  N   UNL d   1     -47.388  13.723  22.476  0.00  0.00    -0.196 N 
ATOM      2  C   UNL d   1     -48.198  13.814  22.660  0.00  0.00     0.167 A 
ATOM      3  C   UNL d   1     -47.036  12.986  22.569  0.00  0.00     0.152 A 
ATOM      4  N   UNL d   1     -47.328  15.097  22.120  0.00  0.00    -0.163 NA
ATOM      5  C   UNL d   1     -48.564  14.537  22.574  0.00  0.00     0.055 A 
ATOM      6  N   UNL d   1     -48.636  13.165  22.933  0.00  0.00    -0.231 NA
ATOM      7  C   UNL d   1     -47.474  12.333  22.843  0.00  0.00     0.052 A 
ATOM      8  C   UNL d   1     -48.126  15.186  22.301  0.00  0.00     0.104 A 
ATOM      9  C   UNL d   1     -48.271  12.422  23.024  0.00  0.00     0.063 A 
ATOM     10  C   UNL d   1     -48.482  15.921  22.210  0.00  0.00     0.023 C 
ENDROOT
BRANCH   3  11
ATOM     11  N   UNL d   1     -46.200  12.893  22.379  0.00  0.00    -0.286 N 
ATOM     12  C   UNL d   1     -45.693  13.280  21.869  0.00  0.00     0.101 A 
ATOM     13  C   UNL d   1     -44.912  13.046  21.822  0.00  0.00     0.102 A 
ATOM     14  N   UNL d   1     -44.643  12.428  22.283  0.00  0.00    -0.267 N 
ATOM     15  C   UNL d   1     -43.871  12.201  22.233  0.00  0.00     0.288 C 
ATOM     16  C   UNL d   1     -45.150  12.054  22.781  0.00  0.00     0.102 A 
ATOM     17  O   UNL d   1     -43.598  11.587  22.689  0.00  0.00    -0.264 OA
ATOM     18  C   UNL d   1     -45.936  12.285  22.832  0.00  0.00     0.101 A 
BRANCH  15  19
ATOM     19  C   UNL d   1     -43.363  12.579  21.731  0.00  0.00     0.156 A 
ATOM     20  O   UNL d   1     -42.662  12.874  22.011  0.00  0.00    -0.300 OA
ATOM     21  C   UNL d   1     -42.147  13.254  21.515  0.00  0.00     0.123 A 
ATOM     22  C   UNL d   1     -42.332  13.340  20.734  0.00  0.00     0.029 A 
ATOM     23  C   UNL d   1     -43.545  12.666  20.951  0.00  0.00     0.032 A 
ENDBRANCH  15  19
ENDBRANCH   3  11
BRANCH   9  24
ATOM     24  C   UNL d   1     -48.728  11.749  23.308  0.00  0.00     0.036 C 
ATOM     25  C   UNL d   1     -49.183  11.088  23.585  0.00  0.00     0.006 C 
ATOM     26  C   UNL d   1     -48.328  11.094  23.698  0.00  0.00     0.006 C 
ATOM     27  C   UNL d   1     -49.578  11.743  23.196  0.00  0.00     0.006 C 
ENDBRANCH   9  24
BRANCH   5  28
ATOM     28  C   UNL d   1     -49.367  14.627  22.756  0.00  0.00     0.004 A 
ATOM     29  C   UNL d   1     -49.585  14.868  23.514  0.00  0.00     0.000 A 
ATOM     30  C   UNL d   1     -50.396  14.958  23.698  0.00  0.00     0.000 A 
ATOM     31  C   UNL d   1     -50.962  14.806  23.119  0.00  0.00     0.000 A 
ATOM     32  C   UNL d   1     -50.730  14.565  22.361  0.00  0.00     0.000 A 
ATOM     33  C   UNL d   1     -49.932  14.476  22.180  0.00  0.00     0.000 A 
ENDBRANCH   5  28
TORSDOF 4
ENDMDL
MODEL 2
REMARK VINA RESULT:      -1.9      1.002      2.324
REMARK  4 active torsions:
REMARK  status: ('A' for Active; 'I' for Inactive)
REMARK    1  A    between atoms: N_10  and  C_3 
REMARK    2  A    between atoms: C_15  and  C_5 
REMARK    3  A    between atoms: C_14  and  C_9 
REMARK       I    between atoms: C_11  and  N_12 
REMARK    4  A    between atoms: C_13  and  C_11 
ROOT
ATOM      1  N   UNL d   1     -47.333  12.571  22.410  0.00  0.00    -0.196 N 
ATOM      2  C   UNL d   1     -48.148  12.693  22.549  0.00  0.00     0.167 A 
ATOM      3  C   UNL d   1     -46.840  13.223  22.319  0.00  0.00     0.152 A 
ATOM      4  N   UNL d   1     -47.547  11.168  22.459  0.00  0.00    -0.163 NA
ATOM      5  C   UNL d   1     -48.652  12.058  22.641  0.00  0.00     0.055 A 
ATOM      6  N   UNL d   1     -48.450  13.463  22.594  0.00  0.00    -0.231 NA
ATOM      7  C   UNL d   1     -47.141  13.999  22.364  0.00  0.00     0.052 A 
ATOM      8  C   UNL d   1     -48.350  11.288  22.596  0.00  0.00     0.104 A 
ATOM      9  C   UNL d   1     -47.944  14.118  22.501  0.00  0.00     0.063 A 
ATOM     10  C   UNL d   1     -48.846  10.639  22.687  0.00  0.00     0.023 C 
ENDROOT
BRANCH   3  11
ATOM     11  N   UNL d   1     -45.999  13.098  22.175  0.00  0.00    -0.286 N 
ATOM     12  C   UNL d   1     -45.449  13.470  21.700  0.00  0.00     0.101 A 
ATOM     13  C   UNL d   1     -44.676  13.204  21.694  0.00  0.00     0.102 A 
ATOM     14  N   UNL d   1     -44.459  12.572  22.162  0.00  0.00    -0.267 N 
ATOM     15  C   UNL d   1     -43.695  12.315  22.152  0.00  0.00     0.288 C 
ATOM     16  C   UNL d   1     -45.008  12.214  22.626  0.00  0.00     0.102 A 
ATOM     17  O   UNL d   1     -43.473  11.686  22.616  0.00  0.00    -0.264 OA
ATOM     18  C   UNL d   1     -45.786  12.476  22.635  0.00  0.00     0.101 A 
BRANCH  15  19
ATOM     19  C   UNL d   1     -43.145  12.676  21.685  0.00  0.00     0.156 A 
ATOM     20  O   UNL d   1     -42.429  12.894  21.996  0.00  0.00    -0.300 OA
ATOM     21  C   UNL d   1     -41.872  13.257  21.534  0.00  0.00     0.123 A 
ATOM     22  C   UNL d   1     -42.029  13.404  20.756  0.00  0.00     0.029 A 
ATOM     23  C   UNL d   1     -43.300  12.824  20.908  0.00  0.00     0.032 A 
ENDBRANCH  15  19
ENDBRANCH   3  11
BRANCH   9  24
ATOM     24  C   UNL d   1     -48.260  14.918  22.548  0.00  0.00     0.036 C 
ATOM     25  C   UNL d   1     -48.572  15.707  22.588  0.00  0.00     0.006 C 
ATOM     26  C   UNL d   1     -48.335  15.304  23.314  0.00  0.00     0.006 C 
ATOM     27  C   UNL d   1     -48.495  15.319  21.827  0.00  0.00     0.006 C 
ENDBRANCH   9  24
BRANCH   5  28
ATOM     28  C   UNL d   1     -49.459  12.179  22.779  0.00  0.00     0.004 A 
ATOM     29  C   UNL d   1     -49.730  12.265  23.553  0.00  0.00     0.000 A 
ATOM     30  C   UNL d   1     -50.545  12.387  23.692  0.00  0.00     0.000 A 
ATOM     31  C   UNL d   1     -51.064  12.418  23.053  0.00  0.00     0.000 A 
ATOM     32  C   UNL d   1     -50.781  12.330  22.280  0.00  0.00     0.000 A 
ATOM     33  C   UNL d   1     -49.978  12.211  22.143  0.00  0.00     0.000 A 
ENDBRANCH   5  28
TORSDOF 4
ENDMDL
MODEL 3
REMARK VINA RESULT:      -0.6      1.194      2.618
REMARK  4 active torsions:
REMARK  status: ('A' for Active; 'I' for Inactive)
REMARK    1  A    between atoms: N_10  and  C_3 
REMARK    2  A    between atoms: C_15  and  C_5 
REMARK    3  A    between atoms: C_14  and  C_9 
REMARK       I    between atoms: C_11  and  N_12 
REMARK    4  A    between atoms: C_13  and  C_11 
ROOT
ATOM      1  N   UNL d   1     -47.462  12.501  22.880  0.00  0.00    -0.196 N 
ATOM      2  C   UNL d   1     -48.195  12.903  22.873  0.00  0.00     0.167 A 
ATOM      3  C   UNL d   1     -46.770  12.927  22.754  0.00  0.00     0.152 A 
ATOM      4  N   UNL d   1     -48.148  11.283  23.134  0.00  0.00    -0.163 NA
ATOM      5  C   UNL d   1     -48.891  12.497  22.996  0.00  0.00     0.055 A 
ATOM      6  N   UNL d   1     -48.217  13.721  22.742  0.00  0.00    -0.231 NA
ATOM      7  C   UNL d   1     -46.790  13.749  22.621  0.00  0.00     0.052 A 
ATOM      8  C   UNL d   1     -48.869  11.679  23.128  0.00  0.00     0.104 A 
ATOM      9  C   UNL d   1     -47.511  14.145  22.615  0.00  0.00     0.063 A 
ATOM     10  C   UNL d   1     -49.563  11.258  23.253  0.00  0.00     0.023 C 
ENDROOT
BRANCH   3  11
ATOM     11  N   UNL d   1     -46.014  12.512  22.760  0.00  0.00    -0.286 N 
ATOM     12  C   UNL d   1     -45.707  11.912  23.222  0.00  0.00     0.101 A 
ATOM     13  C   UNL d   1     -44.950  11.639  23.077  0.00  0.00     0.102 A 
ATOM     14  N   UNL d   1     -44.508  11.966  22.474  0.00  0.00    -0.267 N 
ATOM     15  C   UNL d   1     -43.762  11.693  22.335  0.00  0.00     0.288 C 
ATOM     16  C   UNL d   1     -44.820  12.556  22.027  0.00  0.00     0.102 A 
ATOM     17  O   UNL d   1     -43.317  12.015  21.736  0.00  0.00    -0.264 OA
ATOM     18  C   UNL d   1     -45.579  12.834  22.168  0.00  0.00     0.101 A 
BRANCH  15  19
ATOM     19  C   UNL d   1     -43.450  11.101  22.786  0.00  0.00     0.156 A 
ATOM     20  O   UNL d   1     -42.791  11.238  23.236  0.00  0.00    -0.300 OA
ATOM     21  C   UNL d   1     -42.472  10.648  23.692  0.00  0.00     0.123 A 
ATOM     22  C   UNL d   1     -42.813   9.917  23.698  0.00  0.00     0.029 A 
ATOM     23  C   UNL d   1     -43.789  10.369  22.794  0.00  0.00     0.032 A 
ENDBRANCH  15  19
ENDBRANCH   3  11
BRANCH   9  24
ATOM     24  C   UNL d   1     -47.536  14.995  22.479  0.00  0.00     0.036 C 
ATOM     25  C   UNL d   1     -47.565  15.832  22.340  0.00  0.00     0.006 C 
ATOM     26  C   UNL d   1     -46.985  15.511  22.893  0.00  0.00     0.006 C 
ATOM     27  C   UNL d   1     -48.112  15.314  21.930  0.00  0.00     0.006 C 
ENDBRANCH   9  24
BRANCH   5  28
ATOM     28  C   UNL d   1     -49.617  12.896  22.990  0.00  0.00     0.004 A 
ATOM     29  C   UNL d   1     -50.067  12.906  22.300  0.00  0.00     0.000 A 
ATOM     30  C   UNL d   1     -50.800  13.308  22.293  0.00  0.00     0.000 A 
ATOM     31  C   UNL d   1     -51.060  13.688  22.978  0.00  0.00     0.000 A 
ATOM     32  C   UNL d   1     -50.598  13.670  23.665  0.00  0.00     0.000 A 
ATOM     33  C   UNL d   1     -49.877  13.274  23.671  0.00  0.00     0.000 A 
ENDBRANCH   5  28
TORSDOF 4
ENDMDL
MODEL 4
REMARK VINA RESULT:      -0.4      7.262      9.237
REMARK  4 active torsions:
REMARK  status: ('A' for Active; 'I' for Inactive)
REMARK    1  A    between atoms: N_10  and  C_3 
REMARK    2  A    between atoms: C_15  and  C_5 
REMARK    3  A    between atoms: C_14  and  C_9 
REMARK       I    between atoms: C_11  and  N_12 
REMARK    4  A    between atoms: C_13  and  C_11 
ROOT
ATOM      1  N   UNL d   1     -39.034  13.961  19.835  0.00  0.00    -0.196 N 
ATOM      2  C   UNL d   1     -39.316  14.001  20.621  0.00  0.00     0.167 A 
ATOM      3  C   UNL d   1     -39.407  14.405  19.252  0.00  0.00     0.152 A 
ATOM      4  N   UNL d   1     -38.032  13.047  20.255  0.00  0.00    -0.163 NA
ATOM      5  C   UNL d   1     -38.959  13.568  21.212  0.00  0.00     0.055 A 
ATOM      6  N   UNL d   1     -39.965  14.483  20.804  0.00  0.00    -0.231 NA
ATOM      7  C   UNL d   1     -40.060  14.890  19.433  0.00  0.00     0.052 A 
ATOM      8  C   UNL d   1     -38.310  13.086  21.029  0.00  0.00     0.104 A 
ATOM      9  C   UNL d   1     -40.338  14.929  20.207  0.00  0.00     0.063 A 
ATOM     10  C   UNL d   1     -37.940  12.645  21.615  0.00  0.00     0.023 C 
ENDROOT
BRANCH   3  11
ATOM     11  N   UNL d   1     -39.116  14.364  18.442  0.00  0.00    -0.286 N 
ATOM     12  C   UNL d   1     -39.024  13.752  17.908  0.00  0.00     0.101 A 
ATOM     13  C   UNL d   1     -38.724  13.907  17.164  0.00  0.00     0.102 A 
ATOM     14  N   UNL d   1     -38.519  14.670  16.959  0.00  0.00    -0.267 N 
ATOM     15  C   UNL d   1     -38.223  14.818  16.224  0.00  0.00     0.288 C 
ATOM     16  C   UNL d   1     -38.614  15.264  17.492  0.00  0.00     0.102 A 
ATOM     17  O   UNL d   1     -38.017  15.576  16.014  0.00  0.00    -0.264 OA
ATOM     18  C   UNL d   1     -38.915  15.113  18.240  0.00  0.00     0.101 A 
BRANCH  15  19
ATOM     19  C   UNL d   1     -38.128  14.219  15.690  0.00  0.00     0.156 A 
ATOM     20  O   UNL d   1     -38.174  14.373  14.896  0.00  0.00    -0.300 OA
ATOM     21  C   UNL d   1     -38.080  13.778  14.354  0.00  0.00     0.123 A 
ATOM     22  C   UNL d   1     -37.940  13.024  14.607  0.00  0.00     0.029 A 
ATOM     23  C   UNL d   1     -37.988  13.466  15.940  0.00  0.00     0.032 A 
ENDBRANCH  15  19
ENDBRANCH   3  11
BRANCH   9  24
ATOM     24  C   UNL d   1     -41.012  15.430  20.399  0.00  0.00     0.036 C 
ATOM     25  C   UNL d   1     -41.679  15.922  20.584  0.00  0.00     0.006 C 
ATOM     26  C   UNL d   1     -41.017  15.876  21.136  0.00  0.00     0.006 C 
ATOM     27  C   UNL d   1     -41.669  15.475  19.851  0.00  0.00     0.006 C 
ENDBRANCH   9  24
BRANCH   5  28
ATOM     28  C   UNL d   1     -39.238  13.608  21.990  0.00  0.00     0.004 A 
ATOM     29  C   UNL d   1     -39.004  14.233  22.474  0.00  0.00     0.000 A 
ATOM     30  C   UNL d   1     -39.286  14.273  23.260  0.00  0.00     0.000 A 
ATOM     31  C   UNL d   1     -39.794  13.686  23.538  0.00  0.00     0.000 A 
ATOM     32  C   UNL d   1     -40.023  13.062  23.042  0.00  0.00     0.000 A 
ATOM     33  C   UNL d   1     -39.745  13.023  22.269  0.00  0.00     0.000 A 
ENDBRANCH   5  28
TORSDOF 4
ENDMDL
