MODEL 1
REMARK VINA RESULT:      59.7      0.000      0.000
REMARK  6 active torsions:
REMARK  status: ('A' for Active; 'I' for Inactive)
REMARK    1  A    between atoms: C_11  and  C_4 
REMARK    2  A    between atoms: N_10  and  C_5 
REMARK    3  A    between atoms: C_16  and  C_9 
REMARK    4  A    between atoms: C_13  and  N_10 
REMARK    5  A    between atoms: C_14  and  C_13 
REMARK    6  A    between atoms: C_21  and  C_16 
ROOT
ATOM      1  N   UNL d   1      46.050 -17.816  41.058  0.00  0.00    -0.195 N 
ATOM      2  C   UNL d   1      46.176 -18.421  41.605  0.00  0.00     0.167 A 
ATOM      3  N   UNL d   1      46.008 -16.881  42.101  0.00  0.00    -0.163 NA
ATOM      4  C   UNL d   1      46.216 -18.251  42.384  0.00  0.00     0.055 A 
ATOM      5  C   UNL d   1      46.013 -18.008  40.276  0.00  0.00     0.167 A 
ATOM      6  C   UNL d   1      46.134 -17.486  42.648  0.00  0.00     0.104 A 
ATOM      7  N   UNL d   1      46.258 -19.186  41.341  0.00  0.00    -0.227 NA
ATOM      8  C   UNL d   1      46.093 -18.756  40.009  0.00  0.00     0.058 A 
ATOM      9  C   UNL d   1      46.219 -19.360  40.556  0.00  0.00     0.086 A 
ATOM     10  C   UNL d   1      46.173 -17.309  43.431  0.00  0.00     0.023 C 
ENDROOT
BRANCH   5  11
ATOM     11  N   UNL d   1      45.883 -17.384  39.712  0.00  0.00    -0.224 NA
BRANCH  11  12
ATOM     12  C   UNL d   1      45.857 -17.232  38.881  0.00  0.00     0.120 C 
BRANCH  12  13
ATOM     13  C   UNL d   1      45.290 -16.703  38.554  0.00  0.00     0.101 A 
ATOM     14  N   UNL d   1      44.480 -16.733  38.809  0.00  0.00    -0.242 NA
ATOM     15  C   UNL d   1      43.917 -16.198  38.476  0.00  0.00     0.099 A 
ATOM     16  C   UNL d   1      44.157 -15.635  37.891  0.00  0.00     0.021 A 
ATOM     17  C   UNL d   1      44.973 -15.610  37.641  0.00  0.00     0.003 A 
ATOM     18  C   UNL d   1      45.537 -16.145  37.973  0.00  0.00     0.021 A 
ENDBRANCH  12  13
ENDBRANCH  11  12
ENDBRANCH   5  11
BRANCH   9  19
ATOM     19  C   UNL d   1      46.305 -20.159  40.288  0.00  0.00     0.019 C 
BRANCH  19  20
ATOM     20  C   UNL d   1      46.644 -20.327  39.522  0.00  0.00     0.002 C 
ATOM     21  C   UNL d   1      46.189 -20.224  38.825  0.00  0.00     0.000 C 
ENDBRANCH  19  20
ENDBRANCH   9  19
BRANCH   4  22
ATOM     22  C   UNL d   1      46.340 -18.847  42.923  0.00  0.00     0.004 A 
ATOM     23  C   UNL d   1      46.523 -19.591  42.660  0.00  0.00     0.000 A 
ATOM     24  C   UNL d   1      46.647 -20.187  43.199  0.00  0.00     0.000 A 
ATOM     25  C   UNL d   1      46.588 -20.037  43.999  0.00  0.00     0.000 A 
ATOM     26  C   UNL d   1      46.404 -19.290  44.265  0.00  0.00     0.000 A 
ATOM     27  C   UNL d   1      46.278 -18.686  43.718  0.00  0.00     0.000 A 
ENDBRANCH   4  22
TORSDOF 6
ENDMDL
MODEL 2
REMARK VINA RESULT:      61.2      2.721      5.439
REMARK  6 active torsions:
REMARK  status: ('A' for Active; 'I' for Inactive)
REMARK    1  A    between atoms: C_11  and  C_4 
REMARK    2  A    between atoms: N_10  and  C_5 
REMARK    3  A    between atoms: C_16  and  C_9 
REMARK    4  A    between atoms: C_13  and  N_10 
REMARK    5  A    between atoms: C_14  and  C_13 
REMARK    6  A    between atoms: C_21  and  C_16 
ROOT
ATOM      1  N   UNL d   1      45.845 -15.886  43.803  0.00  0.00    -0.195 N 
ATOM      2  C   UNL d   1      45.862 -15.188  43.363  0.00  0.00     0.167 A 
ATOM      3  N   UNL d   1      45.527 -15.152  44.954  0.00  0.00    -0.163 NA
ATOM      4  C   UNL d   1      45.713 -14.489  43.718  0.00  0.00     0.055 A 
ATOM      5  C   UNL d   1      45.998 -16.581  43.426  0.00  0.00     0.167 A 
ATOM      6  C   UNL d   1      45.544 -14.455  44.513  0.00  0.00     0.104 A 
ATOM      7  N   UNL d   1      46.031 -15.222  42.568  0.00  0.00    -0.227 NA
ATOM      8  C   UNL d   1      46.165 -16.624  42.646  0.00  0.00     0.058 A 
ATOM      9  C   UNL d   1      46.182 -15.926  42.206  0.00  0.00     0.086 A 
ATOM     10  C   UNL d   1      45.393 -13.754  44.877  0.00  0.00     0.023 C 
ENDROOT
BRANCH   5  11
ATOM     11  N   UNL d   1      45.980 -17.301  43.880  0.00  0.00    -0.224 NA
BRANCH  11  12
ATOM     12  C   UNL d   1      46.478 -17.821  44.323  0.00  0.00     0.120 C 
BRANCH  12  13
ATOM     13  C   UNL d   1      46.350 -18.653  44.316  0.00  0.00     0.101 A 
ATOM     14  N   UNL d   1      45.928 -19.026  44.953  0.00  0.00    -0.242 NA
ATOM     15  C   UNL d   1      45.805 -19.861  44.939  0.00  0.00     0.099 A 
ATOM     16  C   UNL d   1      46.099 -20.326  44.296  0.00  0.00     0.021 A 
ATOM     17  C   UNL d   1      46.522 -19.945  43.660  0.00  0.00     0.003 A 
ATOM     18  C   UNL d   1      46.647 -19.109  43.673  0.00  0.00     0.021 A 
ENDBRANCH  12  13
ENDBRANCH  11  12
ENDBRANCH   5  11
BRANCH   9  19
ATOM     19  C   UNL d   1      46.357 -15.955  41.378  0.00  0.00     0.019 C 
BRANCH  19  20
ATOM     20  C   UNL d   1      46.597 -16.687  41.009  0.00  0.00     0.002 C 
ATOM     21  C   UNL d   1      46.359 -17.424  41.334  0.00  0.00     0.000 C 
ENDBRANCH  19  20
ENDBRANCH   9  19
BRANCH   4  22
ATOM     22  C   UNL d   1      45.730 -13.802  43.285  0.00  0.00     0.004 A 
ATOM     23  C   UNL d   1      45.033 -13.454  43.060  0.00  0.00     0.000 A 
ATOM     24  C   UNL d   1      45.050 -12.767  42.627  0.00  0.00     0.000 A 
ATOM     25  C   UNL d   1      45.763 -12.429  42.418  0.00  0.00     0.000 A 
ATOM     26  C   UNL d   1      46.464 -12.777  42.643  0.00  0.00     0.000 A 
ATOM     27  C   UNL d   1      46.447 -13.474  43.083  0.00  0.00     0.000 A 
ENDBRANCH   4  22
TORSDOF 6
ENDMDL
