MODEL 1
REMARK VINA RESULT:      -3.3      0.000      0.000
REMARK  5 active torsions:
REMARK  status: ('A' for Active; 'I' for Inactive)
REMARK    1  A    between atoms: C_2  and  N_1 
REMARK       I    between atoms: C_3  and  N_1 
REMARK    2  A    between atoms: N_7  and  C_2 
REMARK    3  A    between atoms: C_4  and  C_3 
REMARK    4  A    between atoms: N_5  and  C_9 
REMARK    5  A    between atoms: C_17  and  N_7 
ROOT
ATOM      1  C   UNL d   1      32.789  21.349 -21.448  0.00  0.00     0.064 A 
ATOM      2  C   UNL d   1      32.666  20.632 -21.062  0.00  0.00     0.019 A 
ATOM      3  C   UNL d   1      33.069  21.347 -22.236  0.00  0.00     0.019 A 
ATOM      4  C   UNL d   1      33.094  19.920 -22.228  0.00  0.00     0.084 A 
ATOM      5  C   UNL d   1      33.222  20.632 -22.628  0.00  0.00     0.021 A 
ATOM      6  C   UNL d   1      32.814  19.925 -21.441  0.00  0.00     0.021 A 
ENDROOT
BRANCH   4   7
ATOM      7  N   UNL d   1      33.239  19.218 -22.598  0.00  0.00    -0.217 NA
BRANCH   7   8
ATOM      8  C   UNL d   1      32.932  19.077 -23.352  0.00  0.00     0.224 C 
ATOM      9  S   UNL d   1      33.223  19.489 -23.994  0.00  0.00    -0.037 SA
BRANCH   8  10
ATOM     10  N   UNL d   1      32.321  18.509 -23.446  0.00  0.00    -0.178 NA
ATOM     11  C   UNL d   1      32.480  17.820 -23.835  0.00  0.00     0.287 C 
ATOM     12  O   UNL d   1      33.235  17.681 -24.133  0.00  0.00    -0.265 OA
BRANCH  11  13
ATOM     13  C   UNL d   1      31.900  17.264 -23.932  0.00  0.00     0.087 A 
ATOM     14  S   UNL d   1      31.977  16.458 -23.790  0.00  0.00    -0.082 SA
ATOM     15  C   UNL d   1      31.240  16.088 -23.963  0.00  0.00     0.036 A 
ATOM     16  C   UNL d   1      30.735  16.680 -24.206  0.00  0.00     0.008 A 
ATOM     17  C   UNL d   1      31.120  17.404 -24.194  0.00  0.00     0.012 A 
ENDBRANCH  11  13
ENDBRANCH   8  10
ENDBRANCH   7   8
ENDBRANCH   4   7
BRANCH   1  18
ATOM     18  N   UNL d   1      32.640  22.050 -21.066  0.00  0.00    -0.300 N 
ATOM     19  C   UNL d   1      32.301  22.676 -21.470  0.00  0.00     0.107 A 
ATOM     20  C   UNL d   1      32.145  23.393 -21.091  0.00  0.00     0.142 A 
ATOM     21  O   UNL d   1      32.331  23.484 -20.299  0.00  0.00    -0.300 OA
ATOM     22  C   UNL d   1      32.674  22.859 -19.881  0.00  0.00     0.142 A 
ATOM     23  C   UNL d   1      32.830  22.140 -20.260  0.00  0.00     0.107 A 
ENDBRANCH   1  18
TORSDOF 5
ENDMDL
MODEL 2
REMARK VINA RESULT:      -1.9      2.024      5.605
REMARK  5 active torsions:
REMARK  status: ('A' for Active; 'I' for Inactive)
REMARK    1  A    between atoms: C_2  and  N_1 
REMARK       I    between atoms: C_3  and  N_1 
REMARK    2  A    between atoms: N_7  and  C_2 
REMARK    3  A    between atoms: C_4  and  C_3 
REMARK    4  A    between atoms: N_5  and  C_9 
REMARK    5  A    between atoms: C_17  and  N_7 
ROOT
ATOM      1  C   UNL d   1      30.132  16.373 -23.994  0.00  0.00     0.064 A 
ATOM      2  C   UNL d   1      30.448  16.793 -24.627  0.00  0.00     0.019 A 
ATOM      3  C   UNL d   1      30.616  16.208 -23.331  0.00  0.00     0.019 A 
ATOM      4  C   UNL d   1      31.707  16.884 -23.953  0.00  0.00     0.084 A 
ATOM      5  C   UNL d   1      31.405  16.464 -23.310  0.00  0.00     0.021 A 
ATOM      6  C   UNL d   1      31.223  17.048 -24.614  0.00  0.00     0.021 A 
ENDROOT
BRANCH   4   7
ATOM      7  N   UNL d   1      32.473  17.138 -23.944  0.00  0.00    -0.217 NA
BRANCH   7   8
ATOM      8  C   UNL d   1      32.641  17.946 -23.978  0.00  0.00     0.224 C 
ATOM      9  S   UNL d   1      32.702  18.321 -24.700  0.00  0.00    -0.037 SA
BRANCH   8  10
ATOM     10  N   UNL d   1      32.747  18.373 -23.262  0.00  0.00    -0.178 NA
ATOM     11  C   UNL d   1      32.969  19.148 -23.294  0.00  0.00     0.287 C 
ATOM     12  O   UNL d   1      33.090  19.511 -24.022  0.00  0.00    -0.265 OA
BRANCH  11  13
ATOM     13  C   UNL d   1      33.075  19.569 -22.611  0.00  0.00     0.087 A 
ATOM     14  S   UNL d   1      33.135  20.387 -22.555  0.00  0.00    -0.082 SA
ATOM     15  C   UNL d   1      33.240  20.589 -21.743  0.00  0.00     0.036 A 
ATOM     16  C   UNL d   1      33.241  19.888 -21.329  0.00  0.00     0.008 A 
ATOM     17  C   UNL d   1      33.141  19.255 -21.841  0.00  0.00     0.012 A 
ENDBRANCH  11  13
ENDBRANCH   8  10
ENDBRANCH   7   8
ENDBRANCH   4   7
BRANCH   1  18
ATOM     18  N   UNL d   1      29.360  16.122 -24.013  0.00  0.00    -0.300 N 
ATOM     19  C   UNL d   1      29.076  15.712 -24.662  0.00  0.00     0.107 A 
ATOM     20  C   UNL d   1      28.292  15.453 -24.691  0.00  0.00     0.142 A 
ATOM     21  O   UNL d   1      27.789  15.605 -24.063  0.00  0.00    -0.300 OA
ATOM     22  C   UNL d   1      28.065  16.018 -23.403  0.00  0.00     0.142 A 
ATOM     23  C   UNL d   1      28.851  16.279 -23.373  0.00  0.00     0.107 A 
ENDBRANCH   1  18
TORSDOF 5
ENDMDL
