MODEL 1
REMARK VINA RESULT:      32.1      0.000      0.000
REMARK  3 active torsions:
REMARK  status: ('A' for Active; 'I' for Inactive)
REMARK    1  A    between atoms: C_6  and  C_1 
REMARK    2  A    between atoms: C_7  and  C_2 
REMARK    3  A    between atoms: O_14  and  C_12 
ROOT
ATOM      1  C   UNL d   1      58.850  49.448  50.339  0.00  0.00     0.084 A 
ATOM      2  C   UNL d   1      59.067  49.597  51.121  0.00  0.00     0.105 A 
ATOM      3  C   UNL d   1      58.030  49.460  50.300  0.00  0.00     0.031 A 
ATOM      4  O   UNL d   1      58.379  49.702  51.564  0.00  0.00    -0.307 OA
ATOM      5  C   UNL d   1      57.740  49.616  51.051  0.00  0.00     0.100 A 
ATOM      6  C   UNL d   1      57.507  49.350  49.677  0.00  0.00     0.026 A 
ATOM      7  C   UNL d   1      56.926  49.663  51.187  0.00  0.00     0.027 A 
ATOM      8  C   UNL d   1      56.692  49.394  49.798  0.00  0.00     0.094 A 
ATOM      9  C   UNL d   1      56.398  49.553  50.562  0.00  0.00     0.026 A 
ENDROOT
BRANCH   2  10
ATOM     10  C   UNL d   1      59.844  49.634  51.408  0.00  0.00     0.023 A 
ATOM     11  C   UNL d   1      60.473  49.651  50.874  0.00  0.00     0.002 A 
ATOM     12  C   UNL d   1      61.237  49.688  51.152  0.00  0.00     0.000 A 
ATOM     13  C   UNL d   1      61.373  49.708  51.965  0.00  0.00     0.000 A 
ATOM     14  C   UNL d   1      60.733  49.691  52.490  0.00  0.00     0.000 A 
ATOM     15  C   UNL d   1      59.983  49.655  52.217  0.00  0.00     0.002 A 
ENDBRANCH   2  10
BRANCH   1  16
ATOM     16  C   UNL d   1      59.363  49.310  49.707  0.00  0.00     0.299 C 
ATOM     17  O   UNL d   1      59.256  49.705  48.998  0.00  0.00    -0.264 OA
ATOM     18  N   UNL d   1      59.982  48.780  49.781  0.00  0.00    -0.102 N 
ENDBRANCH   1  16
BRANCH   8  19
ATOM     19  O   UNL d   1      56.169  49.284  49.175  0.00  0.00    -0.328 OA
ATOM     20  C   UNL d   1      56.094  48.534  48.829  0.00  0.00     0.181 C 
ENDBRANCH   8  19
TORSDOF 3
ENDMDL
