MODEL 1
REMARK VINA RESULT:      56.4      0.000      0.000
REMARK  5 active torsions:
REMARK  status: ('A' for Active; 'I' for Inactive)
REMARK    1  A    between atoms: N_2  and  S_1 
REMARK    2  A    between atoms: C_4  and  S_1 
REMARK    3  A    between atoms: C_5  and  N_3 
REMARK    4  A    between atoms: C_11  and  C_4 
REMARK    5  A    between atoms: C_15  and  C_11 
ROOT
ATOM      1  N   UNL d   1     -49.958  27.442  33.915  0.00  0.00    -0.226 N 
ATOM      2  N   UNL d   1     -48.972  28.610  34.508  0.00  0.00    -0.301 N 
ATOM      3  C   UNL d   1     -49.916  28.166  33.537  0.00  0.00     0.111 A 
ATOM      4  C   UNL d   1     -49.507  27.300  34.590  0.00  0.00     0.111 A 
ATOM      5  C   UNL d   1     -49.019  27.884  34.880  0.00  0.00     0.100 A 
ATOM      6  C   UNL d   1     -49.422  28.753  33.833  0.00  0.00     0.100 A 
ENDROOT
BRANCH   1   7
ATOM      7  S   UNL d   1     -50.463  26.846  33.609  0.00  0.00     0.272 S 
ATOM      8  O   UNL d   1     -49.832  26.300  33.636  0.00  0.00    -0.200 OA
ATOM      9  O   UNL d   1     -51.086  27.391  33.584  0.00  0.00    -0.200 OA
BRANCH   7  10
ATOM     10  C   UNL d   1     -50.959  26.257  33.308  0.00  0.00     0.116 C 
BRANCH  10  11
ATOM     11  C   UNL d   1     -50.703  25.461  33.308  0.00  0.00     0.014 C 
BRANCH  11  12
ATOM     12  C   UNL d   1     -51.260  24.848  33.339  0.00  0.00     0.001 A 
ATOM     13  C   UNL d   1     -52.077  25.027  33.306  0.00  0.00     0.000 A 
ATOM     14  C   UNL d   1     -52.640  24.412  33.337  0.00  0.00     0.000 A 
ATOM     15  C   UNL d   1     -52.391  23.625  33.401  0.00  0.00     0.000 A 
ATOM     16  C   UNL d   1     -51.572  23.438  33.435  0.00  0.00     0.000 A 
ATOM     17  C   UNL d   1     -51.008  24.053  33.403  0.00  0.00     0.000 A 
ENDBRANCH  11  12
ENDBRANCH  10  11
ENDBRANCH   7  10
ENDBRANCH   1   7
BRANCH   2  18
ATOM     18  C   UNL d   1     -48.480  29.190  34.805  0.00  0.00     0.065 A 
ATOM     19  C   UNL d   1     -48.051  29.047  35.484  0.00  0.00     0.029 A 
ATOM     20  C   UNL d   1     -47.561  29.623  35.782  0.00  0.00     0.059 A 
ATOM     21 CL   UNL d   1     -47.123  29.480  36.472  0.00  0.00    -0.082 Cl
ATOM     22  C   UNL d   1     -47.496  30.350  35.400  0.00  0.00     0.011 A 
ATOM     23  C   UNL d   1     -47.928  30.487  34.720  0.00  0.00     0.002 A 
ATOM     24  C   UNL d   1     -48.420  29.908  34.422  0.00  0.00     0.018 A 
ENDBRANCH   2  18
TORSDOF 5
ENDMDL
