MODEL 1
REMARK VINA RESULT:      -2.8      0.000      0.000
REMARK  3 active torsions:
REMARK  status: ('A' for Active; 'I' for Inactive)
REMARK    1  A    between atoms: C_10  and  C_5 
REMARK    2  A    between atoms: C_16  and  C_10 
REMARK    3  A    between atoms: C_17  and  C_16 
ROOT
ATOM      1  C   UNL d   1      33.233  21.820 -23.384  0.00  0.00     0.111 A 
ATOM      2  C   UNL d   1      33.234  20.519 -22.765  0.00  0.00     0.062 A 
ATOM      3  C   UNL d   1      33.230  21.400 -24.160  0.00  0.00     0.213 A 
ATOM      4  C   UNL d   1      33.230  20.157 -23.476  0.00  0.00     0.101 A 
ATOM      5  C   UNL d   1      33.235  21.353 -22.719  0.00  0.00     0.018 A 
ATOM      6  O   UNL d   1      33.228  20.598 -24.172  0.00  0.00    -0.288 OA
ATOM      7  C   UNL d   1      33.236  20.078 -22.059  0.00  0.00     0.194 A 
ATOM      8  C   UNL d   1      33.235  22.643 -23.338  0.00  0.00     0.105 C 
ATOM      9  N   UNL d   1      33.236  23.470 -23.270  0.00  0.00    -0.191 NA
ATOM     10  C   UNL d   1      33.229  19.334 -23.522  0.00  0.00     0.002 A 
ATOM     11  C   UNL d   1      33.231  18.868 -22.857  0.00  0.00     0.042 A 
ATOM     12  C   UNL d   1      33.234  19.276 -22.081  0.00  0.00     0.019 A 
ATOM     13  O   UNL d   1      33.239  20.471 -21.295  0.00  0.00    -0.287 OA
ATOM     14  N   UNL d   1      33.227  21.822 -24.907  0.00  0.00    -0.120 N 
ATOM     15  C   UNL d   1      33.228  18.174 -23.320  0.00  0.00     0.009 C 
ATOM     16  C   UNL d   1      33.232  18.279 -22.293  0.00  0.00     0.009 C 
ENDROOT
BRANCH   5  17
ATOM     17  C   UNL d   1      33.239  21.764 -21.965  0.00  0.00     0.001 C 
BRANCH  17  18
ATOM     18  C   UNL d   1      32.520  21.953 -21.609  0.00  0.00     0.000 C 
BRANCH  18  19
ATOM     19  C   UNL d   1      32.540  22.438 -20.943  0.00  0.00     0.000 A 
ATOM     20  C   UNL d   1      31.846  22.853 -20.740  0.00  0.00     0.000 A 
ATOM     21  C   UNL d   1      31.852  23.336 -20.084  0.00  0.00     0.000 A 
ATOM     22  C   UNL d   1      32.538  23.416 -19.623  0.00  0.00     0.000 A 
ATOM     23  C   UNL d   1      33.231  23.003 -19.825  0.00  0.00     0.000 A 
ATOM     24  C   UNL d   1      33.230  22.519 -20.479  0.00  0.00     0.000 A 
ENDBRANCH  18  19
ENDBRANCH  17  18
ENDBRANCH   5  17
TORSDOF 3
ENDMDL
MODEL 2
REMARK VINA RESULT:      -1.6      1.757      4.349
REMARK  3 active torsions:
REMARK  status: ('A' for Active; 'I' for Inactive)
REMARK    1  A    between atoms: C_10  and  C_5 
REMARK    2  A    between atoms: C_16  and  C_10 
REMARK    3  A    between atoms: C_17  and  C_16 
ROOT
ATOM      1  C   UNL d   1      33.227  20.370 -22.106  0.00  0.00     0.111 A 
ATOM      2  C   UNL d   1      33.232  21.043 -23.379  0.00  0.00     0.062 A 
ATOM      3  C   UNL d   1      33.225  21.170 -21.734  0.00  0.00     0.213 A 
ATOM      4  C   UNL d   1      33.231  21.758 -23.025  0.00  0.00     0.101 A 
ATOM      5  C   UNL d   1      33.230  20.347 -22.918  0.00  0.00     0.018 A 
ATOM      6  O   UNL d   1      33.228  21.821 -22.204  0.00  0.00    -0.288 OA
ATOM      7  C   UNL d   1      33.236  20.974 -24.209  0.00  0.00     0.194 A 
ATOM      8  C   UNL d   1      33.224  19.683 -21.651  0.00  0.00     0.105 C 
ATOM      9  N   UNL d   1      33.222  18.978 -21.211  0.00  0.00    -0.191 NA
ATOM     10  C   UNL d   1      33.233  22.446 -23.480  0.00  0.00     0.002 A 
ATOM     11  C   UNL d   1      33.237  22.422 -24.292  0.00  0.00     0.042 A 
ATOM     12  C   UNL d   1      33.238  21.631 -24.670  0.00  0.00     0.019 A 
ATOM     13  O   UNL d   1      33.237  20.204 -24.587  0.00  0.00    -0.287 OA
ATOM     14  N   UNL d   1      33.222  21.278 -20.883  0.00  0.00    -0.120 N 
ATOM     15  C   UNL d   1      33.237  23.255 -24.336  0.00  0.00     0.009 C 
ATOM     16  C   UNL d   1      33.240  22.558 -25.096  0.00  0.00     0.009 C 
ENDROOT
BRANCH   5  17
ATOM     17  C   UNL d   1      33.231  19.567 -23.277  0.00  0.00     0.001 C 
BRANCH  17  18
ATOM     18  C   UNL d   1      32.555  19.100 -23.221  0.00  0.00     0.000 C 
BRANCH  18  19
ATOM     19  C   UNL d   1      32.541  18.396 -23.650  0.00  0.00     0.000 A 
ATOM     20  C   UNL d   1      31.804  18.117 -23.920  0.00  0.00     0.000 A 
ATOM     21  C   UNL d   1      31.774  17.422 -24.345  0.00  0.00     0.000 A 
ATOM     22  C   UNL d   1      32.468  16.997 -24.510  0.00  0.00     0.000 A 
ATOM     23  C   UNL d   1      33.205  17.275 -24.241  0.00  0.00     0.000 A 
ATOM     24  C   UNL d   1      33.239  17.968 -23.816  0.00  0.00     0.000 A 
ENDBRANCH  18  19
ENDBRANCH  17  18
ENDBRANCH   5  17
TORSDOF 3
ENDMDL
