MODEL 1
REMARK VINA RESULT:      -6.2      0.000      0.000
REMARK  0 active torsions:
REMARK  status: ('A' for Active; 'I' for Inactive)
REMARK       I    between atoms: C_3  and  N_1 
REMARK       I    between atoms: N_6  and  C_3 
ROOT
ATOM      1  N   UNL d   1     -41.644-122.712 -53.253  0.00  0.00    -0.160 N 
ATOM      2  N   UNL d   1     -41.659-123.524 -53.263  0.00  0.00    -0.056 NA
ATOM      3  C   UNL d   1     -41.508-122.250 -52.553  0.00  0.00     0.357 C 
ATOM      4  N   UNL d   1     -41.805-123.758 -54.040  0.00  0.00    -0.128 NA
ATOM      5  C   UNL d   1     -41.778-122.436 -54.007  0.00  0.00     0.108 A 
ATOM      6  N   UNL d   1     -41.380-122.614 -51.828  0.00  0.00    -0.252 N 
ATOM      7  C   UNL d   1     -41.878-123.086 -54.498  0.00  0.00     0.122 A 
ATOM      8  O   UNL d   1     -41.508-121.419 -52.629  0.00  0.00    -0.244 OA
ATOM      9  O   UNL d   1     -41.125-123.342 -50.374  0.00  0.00    -0.300 OA
ATOM     10  C   UNL d   1     -41.822-121.683 -54.312  0.00  0.00     0.021 A 
ATOM     11  C   UNL d   1     -41.384-123.451 -51.778  0.00  0.00     0.111 A 
ATOM     12  C   UNL d   1     -41.251-122.167 -51.163  0.00  0.00     0.111 A 
ATOM     13  C   UNL d   1     -42.026-122.984 -55.308  0.00  0.00     0.022 A 
ATOM     14  C   UNL d   1     -41.256-123.817 -51.046  0.00  0.00     0.142 A 
ATOM     15  C   UNL d   1     -41.123-122.532 -50.434  0.00  0.00     0.142 A 
ATOM     16  C   UNL d   1     -41.968-121.570 -55.117  0.00  0.00     0.002 A 
ATOM     17  C   UNL d   1     -42.070-122.211 -55.617  0.00  0.00     0.002 A 
ENDROOT
TORSDOF 0
ENDMDL
MODEL 2
REMARK VINA RESULT:      -5.4      0.999      3.402
REMARK  0 active torsions:
REMARK  status: ('A' for Active; 'I' for Inactive)
REMARK       I    between atoms: C_3  and  N_1 
REMARK       I    between atoms: N_6  and  C_3 
ROOT
ATOM      1  N   UNL d   1     -41.585-122.617 -52.735  0.00  0.00    -0.160 N 
ATOM      2  N   UNL d   1     -41.494-123.397 -52.945  0.00  0.00    -0.056 NA
ATOM      3  C   UNL d   1     -41.775-122.000 -53.286  0.00  0.00     0.357 C 
ATOM      4  N   UNL d   1     -41.313-123.817 -52.259  0.00  0.00    -0.128 NA
ATOM      5  C   UNL d   1     -41.465-122.544 -51.933  0.00  0.00     0.108 A 
ATOM      6  N   UNL d   1     -41.879-122.164 -54.083  0.00  0.00    -0.252 N 
ATOM      7  C   UNL d   1     -41.296-123.289 -51.636  0.00  0.00     0.122 A 
ATOM      8  O   UNL d   1     -41.851-121.223 -52.988  0.00  0.00    -0.244 OA
ATOM      9  O   UNL d   1     -42.089-122.494 -55.682  0.00  0.00    -0.300 OA
ATOM     10  C   UNL d   1     -41.487-121.901 -51.436  0.00  0.00     0.021 A 
ATOM     11  C   UNL d   1     -41.798-122.952 -54.357  0.00  0.00     0.111 A 
ATOM     12  C   UNL d   1     -42.061-121.569 -54.605  0.00  0.00     0.111 A 
ATOM     13  C   UNL d   1     -41.146-123.396 -50.826  0.00  0.00     0.022 A 
ATOM     14  C   UNL d   1     -41.903-123.118 -55.163  0.00  0.00     0.142 A 
ATOM     15  C   UNL d   1     -42.166-121.734 -55.406  0.00  0.00     0.142 A 
ATOM     16  C   UNL d   1     -41.339-121.996 -50.629  0.00  0.00     0.002 A 
ATOM     17  C   UNL d   1     -41.169-122.734 -50.320  0.00  0.00     0.002 A 
ENDROOT
TORSDOF 0
ENDMDL
MODEL 3
REMARK VINA RESULT:      -5.3      1.142      3.672
REMARK  0 active torsions:
REMARK  status: ('A' for Active; 'I' for Inactive)
REMARK       I    between atoms: C_3  and  N_1 
REMARK       I    between atoms: N_6  and  C_3 
ROOT
ATOM      1  N   UNL d   1     -41.538-122.552 -52.711  0.00  0.00    -0.160 N 
ATOM      2  N   UNL d   1     -41.451-121.746 -52.658  0.00  0.00    -0.056 NA
ATOM      3  C   UNL d   1     -41.718-122.961 -53.433  0.00  0.00     0.357 C 
ATOM      4  N   UNL d   1     -41.280-121.568 -51.871  0.00  0.00    -0.128 NA
ATOM      5  C   UNL d   1     -41.426-122.879 -51.974  0.00  0.00     0.108 A 
ATOM      6  N   UNL d   1     -41.816-122.549 -54.137  0.00  0.00    -0.252 N 
ATOM      7  C   UNL d   1     -41.265-122.268 -51.451  0.00  0.00     0.122 A 
ATOM      8  O   UNL d   1     -41.792-123.792 -53.402  0.00  0.00    -0.244 OA
ATOM      9  O   UNL d   1     -42.012-121.723 -55.547  0.00  0.00    -0.300 OA
ATOM     10  C   UNL d   1     -41.448-123.648 -51.711  0.00  0.00     0.021 A 
ATOM     11  C   UNL d   1     -41.737-121.714 -54.142  0.00  0.00     0.111 A 
ATOM     12  C   UNL d   1     -41.988-122.946 -54.824  0.00  0.00     0.111 A 
ATOM     13  C   UNL d   1     -41.124-122.427 -50.649  0.00  0.00     0.022 A 
ATOM     14  C   UNL d   1     -41.836-121.298 -54.853  0.00  0.00     0.142 A 
ATOM     15  C   UNL d   1     -42.087-122.532 -55.531  0.00  0.00     0.142 A 
ATOM     16  C   UNL d   1     -41.309-123.817 -50.914  0.00  0.00     0.002 A 
ATOM     17  C   UNL d   1     -41.147-123.216 -50.382  0.00  0.00     0.002 A 
ENDROOT
TORSDOF 0
ENDMDL
