MODEL 1
REMARK VINA RESULT:      -9.7      0.000      0.000
REMARK  2 active torsions:
REMARK  status: ('A' for Active; 'I' for Inactive)
REMARK    1  A    between atoms: C_3  and  C_1 
REMARK       I    between atoms: N_7  and  C_3 
REMARK    2  A    between atoms: C_11  and  N_7 
ROOT
ATOM      1  C   UNL d   1      52.403  33.340  53.437  0.00  0.00     0.121 A 
ATOM      2  C   UNL d   1      52.849  32.730  53.110  0.00  0.00     0.305 A 
ATOM      3  C   UNL d   1      52.715  33.798  54.048  0.00  0.00     0.012 A 
ATOM      4  O   UNL d   1      53.605  32.582  53.396  0.00  0.00    -0.273 OA
ATOM      5  C   UNL d   1      53.475  33.645  54.330  0.00  0.00     0.023 A 
ATOM      6  C   UNL d   1      53.921  33.035  54.003  0.00  0.00     0.103 A 
ATOM      7  O   UNL d   1      52.527  32.276  52.498  0.00  0.00    -0.259 OA
ATOM      8  C   UNL d   1      53.781  34.101  54.936  0.00  0.00     0.002 A 
ATOM      9  C   UNL d   1      54.670  32.886  54.284  0.00  0.00     0.025 A 
ATOM     10  C   UNL d   1      54.547  33.950  55.224  0.00  0.00     0.000 A 
ATOM     11  C   UNL d   1      54.992  33.340  54.897  0.00  0.00     0.002 A 
ENDROOT
BRANCH   1  12
ATOM     12  C   UNL d   1      51.638  33.491  53.149  0.00  0.00     0.284 C 
ATOM     13  N   UNL d   1      51.477  34.198  52.770  0.00  0.00    -0.208 NA
ATOM     14  O   UNL d   1      51.036  32.926  53.246  0.00  0.00    -0.265 OA
BRANCH  13  15
ATOM     15  C   UNL d   1      50.717  34.345  52.487  0.00  0.00     0.085 A 
ATOM     16  C   UNL d   1      50.134  34.646  52.996  0.00  0.00     0.019 A 
ATOM     17  C   UNL d   1      49.371  34.792  52.704  0.00  0.00     0.002 A 
ATOM     18  C   UNL d   1      49.185  34.641  51.913  0.00  0.00     0.000 A 
ATOM     19  C   UNL d   1      49.768  34.340  51.403  0.00  0.00     0.002 A 
ATOM     20  C   UNL d   1      50.523  34.193  51.680  0.00  0.00     0.019 A 
ENDBRANCH  13  15
ENDBRANCH   1  12
TORSDOF 2
ENDMDL
MODEL 2
REMARK VINA RESULT:      -9.6      2.025      3.344
REMARK  2 active torsions:
REMARK  status: ('A' for Active; 'I' for Inactive)
REMARK    1  A    between atoms: C_3  and  C_1 
REMARK       I    between atoms: N_7  and  C_3 
REMARK    2  A    between atoms: C_11  and  N_7 
ROOT
ATOM      1  C   UNL d   1      53.178  31.997  53.447  0.00  0.00     0.121 A 
ATOM      2  C   UNL d   1      52.812  31.763  52.748  0.00  0.00     0.305 A 
ATOM      3  C   UNL d   1      53.412  31.431  54.000  0.00  0.00     0.012 A 
ATOM      4  O   UNL d   1      52.684  30.965  52.606  0.00  0.00    -0.273 OA
ATOM      5  C   UNL d   1      53.280  30.631  53.851  0.00  0.00     0.023 A 
ATOM      6  C   UNL d   1      52.915  30.397  53.151  0.00  0.00     0.103 A 
ATOM      7  O   UNL d   1      52.581  32.339  52.200  0.00  0.00    -0.259 OA
ATOM      8  C   UNL d   1      53.514  30.073  54.401  0.00  0.00     0.002 A 
ATOM      9  C   UNL d   1      52.786  29.607  53.006  0.00  0.00     0.025 A 
ATOM     10  C   UNL d   1      53.383  29.265  54.254  0.00  0.00     0.000 A 
ATOM     11  C   UNL d   1      53.017  29.031  53.554  0.00  0.00     0.002 A 
ENDROOT
BRANCH   1  12
ATOM     12  C   UNL d   1      53.309  32.805  53.595  0.00  0.00     0.284 C 
ATOM     13  N   UNL d   1      52.809  33.215  54.094  0.00  0.00    -0.208 NA
ATOM     14  O   UNL d   1      53.948  33.196  53.235  0.00  0.00    -0.265 OA
BRANCH  13  15
ATOM     15  C   UNL d   1      52.942  34.016  54.238  0.00  0.00     0.085 A 
ATOM     16  C   UNL d   1      53.421  34.251  54.876  0.00  0.00     0.019 A 
ATOM     17  C   UNL d   1      53.551  35.058  55.014  0.00  0.00     0.002 A 
ATOM     18  C   UNL d   1      53.211  35.632  54.526  0.00  0.00     0.000 A 
ATOM     19  C   UNL d   1      52.732  35.397  53.888  0.00  0.00     0.002 A 
ATOM     20  C   UNL d   1      52.597  34.605  53.743  0.00  0.00     0.019 A 
ENDBRANCH  13  15
ENDBRANCH   1  12
TORSDOF 2
ENDMDL
MODEL 3
REMARK VINA RESULT:      -9.1      2.182      3.804
REMARK  2 active torsions:
REMARK  status: ('A' for Active; 'I' for Inactive)
REMARK    1  A    between atoms: C_3  and  C_1 
REMARK       I    between atoms: N_7  and  C_3 
REMARK    2  A    between atoms: C_11  and  N_7 
ROOT
ATOM      1  C   UNL d   1      53.585  32.869  54.160  0.00  0.00     0.121 A 
ATOM      2  C   UNL d   1      53.981  33.131  54.833  0.00  0.00     0.305 A 
ATOM      3  C   UNL d   1      53.127  33.395  53.720  0.00  0.00     0.012 A 
ATOM      4  O   UNL d   1      53.917  33.917  55.061  0.00  0.00    -0.273 OA
ATOM      5  C   UNL d   1      53.066  34.183  53.955  0.00  0.00     0.023 A 
ATOM      6  C   UNL d   1      53.462  34.445  54.627  0.00  0.00     0.103 A 
ATOM      7  O   UNL d   1      54.439  32.595  55.267  0.00  0.00    -0.259 OA
ATOM      8  C   UNL d   1      52.610  34.702  53.516  0.00  0.00     0.002 A 
ATOM      9  C   UNL d   1      53.400  35.224  54.856  0.00  0.00     0.025 A 
ATOM     10  C   UNL d   1      52.547  35.498  53.749  0.00  0.00     0.000 A 
ATOM     11  C   UNL d   1      52.943  35.759  54.421  0.00  0.00     0.002 A 
ENDROOT
BRANCH   1  12
ATOM     12  C   UNL d   1      53.649  32.073  53.927  0.00  0.00     0.284 C 
ATOM     13  N   UNL d   1      52.991  31.588  53.949  0.00  0.00    -0.208 NA
ATOM     14  O   UNL d   1      54.380  31.771  53.671  0.00  0.00    -0.265 OA
BRANCH  13  15
ATOM     15  C   UNL d   1      53.059  30.799  53.717  0.00  0.00     0.085 A 
ATOM     16  C   UNL d   1      52.939  30.588  52.922  0.00  0.00     0.019 A 
ATOM     17  C   UNL d   1      53.008  29.793  52.695  0.00  0.00     0.002 A 
ATOM     18  C   UNL d   1      53.194  29.209  53.250  0.00  0.00     0.000 A 
ATOM     19  C   UNL d   1      53.314  29.421  54.045  0.00  0.00     0.002 A 
ATOM     20  C   UNL d   1      53.248  30.201  54.279  0.00  0.00     0.019 A 
ENDBRANCH  13  15
ENDBRANCH   1  12
TORSDOF 2
ENDMDL
MODEL 4
REMARK VINA RESULT:      -9.1      1.193      1.611
REMARK  2 active torsions:
REMARK  status: ('A' for Active; 'I' for Inactive)
REMARK    1  A    between atoms: C_3  and  C_1 
REMARK       I    between atoms: N_7  and  C_3 
REMARK    2  A    between atoms: C_11  and  N_7 
ROOT
ATOM      1  C   UNL d   1      52.550  34.334  53.699  0.00  0.00     0.121 A 
ATOM      2  C   UNL d   1      52.882  34.959  54.119  0.00  0.00     0.305 A 
ATOM      3  C   UNL d   1      52.837  33.567  53.803  0.00  0.00     0.012 A 
ATOM      4  O   UNL d   1      53.498  34.813  54.642  0.00  0.00    -0.273 OA
ATOM      5  C   UNL d   1      53.456  33.428  54.330  0.00  0.00     0.023 A 
ATOM      6  C   UNL d   1      53.788  34.053  54.750  0.00  0.00     0.103 A 
ATOM      7  O   UNL d   1      52.587  35.724  54.008  0.00  0.00    -0.259 OA
ATOM      8  C   UNL d   1      53.738  32.667  54.430  0.00  0.00     0.002 A 
ATOM      9  C   UNL d   1      54.399  33.913  55.269  0.00  0.00     0.025 A 
ATOM     10  C   UNL d   1      54.362  32.522  54.961  0.00  0.00     0.000 A 
ATOM     11  C   UNL d   1      54.694  33.147  55.381  0.00  0.00     0.002 A 
ENDROOT
BRANCH   1  12
ATOM     12  C   UNL d   1      51.926  34.478  53.169  0.00  0.00     0.284 C 
ATOM     13  N   UNL d   1      51.188  34.152  53.309  0.00  0.00    -0.208 NA
ATOM     14  O   UNL d   1      52.049  34.953  52.498  0.00  0.00    -0.265 OA
BRANCH  13  15
ATOM     15  C   UNL d   1      50.572  34.298  52.781  0.00  0.00     0.085 A 
ATOM     16  C   UNL d   1      50.609  34.001  52.005  0.00  0.00     0.019 A 
ATOM     17  C   UNL d   1      49.984  34.151  51.480  0.00  0.00     0.002 A 
ATOM     18  C   UNL d   1      49.327  34.592  51.718  0.00  0.00     0.000 A 
ATOM     19  C   UNL d   1      49.290  34.889  52.493  0.00  0.00     0.002 A 
ATOM     20  C   UNL d   1      49.899  34.747  53.019  0.00  0.00     0.019 A 
ENDBRANCH  13  15
ENDBRANCH   1  12
TORSDOF 2
ENDMDL
MODEL 5
REMARK VINA RESULT:      -8.8      1.162      1.773
REMARK  2 active torsions:
REMARK  status: ('A' for Active; 'I' for Inactive)
REMARK    1  A    between atoms: C_3  and  C_1 
REMARK       I    between atoms: N_7  and  C_3 
REMARK    2  A    between atoms: C_11  and  N_7 
ROOT
ATOM      1  C   UNL d   1      52.074  33.667  52.954  0.00  0.00     0.121 A 
ATOM      2  C   UNL d   1      52.670  34.080  53.343  0.00  0.00     0.305 A 
ATOM      3  C   UNL d   1      52.124  32.848  52.872  0.00  0.00     0.012 A 
ATOM      4  O   UNL d   1      53.313  33.671  53.648  0.00  0.00    -0.273 OA
ATOM      5  C   UNL d   1      52.773  32.443  53.180  0.00  0.00     0.023 A 
ATOM      6  C   UNL d   1      53.369  32.856  53.570  0.00  0.00     0.103 A 
ATOM      7  O   UNL d   1      52.610  34.902  53.420  0.00  0.00    -0.259 OA
ATOM      8  C   UNL d   1      52.819  31.630  53.097  0.00  0.00     0.002 A 
ATOM      9  C   UNL d   1      54.008  32.453  53.873  0.00  0.00     0.025 A 
ATOM     10  C   UNL d   1      53.472  31.219  53.407  0.00  0.00     0.000 A 
ATOM     11  C   UNL d   1      54.068  31.631  53.797  0.00  0.00     0.002 A 
ENDROOT
BRANCH   1  12
ATOM     12  C   UNL d   1      51.421  34.079  52.643  0.00  0.00     0.284 C 
ATOM     13  N   UNL d   1      50.672  33.942  52.943  0.00  0.00    -0.208 NA
ATOM     14  O   UNL d   1      51.528  34.629  52.030  0.00  0.00    -0.265 OA
BRANCH  13  15
ATOM     15  C   UNL d   1      50.027  34.352  52.633  0.00  0.00     0.085 A 
ATOM     16  C   UNL d   1      49.772  34.201  51.857  0.00  0.00     0.019 A 
ATOM     17  C   UNL d   1      49.123  34.618  51.551  0.00  0.00     0.002 A 
ATOM     18  C   UNL d   1      48.728  35.180  52.010  0.00  0.00     0.000 A 
ATOM     19  C   UNL d   1      48.983  35.331  52.786  0.00  0.00     0.002 A 
ATOM     20  C   UNL d   1      49.621  34.927  53.097  0.00  0.00     0.019 A 
ENDBRANCH  13  15
ENDBRANCH   1  12
TORSDOF 2
ENDMDL
MODEL 6
REMARK VINA RESULT:      -8.3      0.969      4.223
REMARK  2 active torsions:
REMARK  status: ('A' for Active; 'I' for Inactive)
REMARK    1  A    between atoms: C_3  and  C_1 
REMARK       I    between atoms: N_7  and  C_3 
REMARK    2  A    between atoms: C_11  and  N_7 
ROOT
ATOM      1  C   UNL d   1      51.656  34.219  52.953  0.00  0.00     0.121 A 
ATOM      2  C   UNL d   1      51.575  33.950  52.180  0.00  0.00     0.305 A 
ATOM      3  C   UNL d   1      51.020  34.584  53.332  0.00  0.00     0.012 A 
ATOM      4  O   UNL d   1      50.859  34.047  51.790  0.00  0.00    -0.273 OA
ATOM      5  C   UNL d   1      50.304  34.678  52.935  0.00  0.00     0.023 A 
ATOM      6  C   UNL d   1      50.223  34.409  52.161  0.00  0.00     0.103 A 
ATOM      7  O   UNL d   1      52.219  33.585  51.809  0.00  0.00    -0.259 OA
ATOM      8  C   UNL d   1      49.676  35.040  53.314  0.00  0.00     0.002 A 
ATOM      9  C   UNL d   1      49.515  34.503  51.772  0.00  0.00     0.025 A 
ATOM     10  C   UNL d   1      48.951  35.137  52.916  0.00  0.00     0.000 A 
ATOM     11  C   UNL d   1      48.871  34.867  52.143  0.00  0.00     0.002 A 
ENDROOT
BRANCH   1  12
ATOM     12  C   UNL d   1      52.380  34.122  53.351  0.00  0.00     0.284 C 
ATOM     13  N   UNL d   1      52.442  33.578  53.958  0.00  0.00    -0.208 NA
ATOM     14  O   UNL d   1      53.040  34.577  53.132  0.00  0.00    -0.265 OA
BRANCH  13  15
ATOM     15  C   UNL d   1      53.162  33.485  54.350  0.00  0.00     0.085 A 
ATOM     16  C   UNL d   1      53.440  34.082  54.857  0.00  0.00     0.019 A 
ATOM     17  C   UNL d   1      54.165  33.981  55.248  0.00  0.00     0.002 A 
ATOM     18  C   UNL d   1      54.613  33.296  55.140  0.00  0.00     0.000 A 
ATOM     19  C   UNL d   1      54.335  32.699  54.633  0.00  0.00     0.002 A 
ATOM     20  C   UNL d   1      53.622  32.787  54.242  0.00  0.00     0.019 A 
ENDBRANCH  13  15
ENDBRANCH   1  12
TORSDOF 2
ENDMDL
