MODEL 1
REMARK VINA RESULT:      33.9      0.000      0.000
REMARK  7 active torsions:
REMARK  status: ('A' for Active; 'I' for Inactive)
REMARK    1  A    between atoms: C_5  and  C_1 
REMARK    2  A    between atoms: N_6  and  C_2 
REMARK    3  A    between atoms: C_7  and  C_5 
REMARK    4  A    between atoms: C_8  and  C_5 
REMARK       I    between atoms: N_13  and  C_7 
REMARK    5  A    between atoms: C_17  and  N_13 
REMARK    6  A    between atoms: C_23  and  C_17 
REMARK    7  A    between atoms: C_18  and  C_23 
ROOT
ATOM      1  C   UNL d   1      45.940 -18.240  42.481  0.00  0.00     0.117 A 
ATOM      2  C   UNL d   1      46.348 -18.955  42.434  0.00  0.00     0.145 A 
ATOM      3  N   UNL d   1      46.584 -19.247  41.696  0.00  0.00    -0.230 NA
ATOM      4  N   UNL d   1      45.768 -17.816  41.792  0.00  0.00    -0.241 NA
ATOM      5  C   UNL d   1      46.411 -18.824  41.012  0.00  0.00     0.100 A 
ATOM      6  C   UNL d   1      46.003 -18.109  41.060  0.00  0.00     0.099 A 
ATOM      7  C   UNL d   1      46.646 -19.116  40.280  0.00  0.00     0.021 A 
ATOM      8  C   UNL d   1      45.830 -17.685  40.376  0.00  0.00     0.021 A 
ATOM      9  C   UNL d   1      46.475 -18.693  39.586  0.00  0.00     0.002 A 
ATOM     10  C   UNL d   1      46.067 -17.977  39.634  0.00  0.00     0.002 A 
ENDROOT
BRANCH   1  11
ATOM     11  C   UNL d   1      45.782 -18.095  43.275  0.00  0.00     0.099 C 
BRANCH  11  12
ATOM     12  C   UNL d   1      46.014 -17.475  43.786  0.00  0.00     0.282 C 
ATOM     13  O   UNL d   1      46.611 -17.602  44.352  0.00  0.00    -0.265 OA
ATOM     14  N   UNL d   1      45.646 -16.735  43.725  0.00  0.00    -0.206 NA
BRANCH  14  15
ATOM     15  C   UNL d   1      45.879 -16.118  44.235  0.00  0.00     0.102 C 
BRANCH  15  16
ATOM     16  C   UNL d   1      45.407 -15.624  44.702  0.00  0.00     0.021 C 
BRANCH  16  17
ATOM     17  C   UNL d   1      45.478 -14.808  44.645  0.00  0.00     0.002 A 
ATOM     18  C   UNL d   1      46.167 -14.449  44.904  0.00  0.00     0.000 A 
ATOM     19  C   UNL d   1      46.238 -13.626  44.846  0.00  0.00     0.000 A 
ATOM     20  C   UNL d   1      45.624 -13.176  44.531  0.00  0.00     0.000 A 
ATOM     21  C   UNL d   1      44.936 -13.556  44.274  0.00  0.00     0.000 A 
ATOM     22  C   UNL d   1      44.866 -14.366  44.332  0.00  0.00     0.000 A 
ENDBRANCH  16  17
ENDBRANCH  15  16
ENDBRANCH  14  15
ENDBRANCH  11  12
BRANCH  11  23
ATOM     23  C   UNL d   1      45.315 -18.635  43.672  0.00  0.00     0.129 C 
ATOM     24  N   UNL d   1      44.506 -18.719  43.810  0.00  0.00    -0.146 N 
ENDBRANCH  11  23
ENDBRANCH   1  11
BRANCH   2  25
ATOM     25  N   UNL d   1      46.441 -19.251  43.198  0.00  0.00    -0.188 NA
ATOM     26  C   UNL d   1      46.424 -20.051  43.376  0.00  0.00     0.083 A 
ATOM     27  C   UNL d   1      46.586 -19.879  44.452  0.00  0.00     0.136 A 
ATOM     28  O   UNL d   1      46.634 -20.329  44.954  0.00  0.00    -0.301 OA
ATOM     29  C   UNL d   1      46.646 -19.468  44.717  0.00  0.00     0.136 A 
ATOM     30  C   UNL d   1      46.494 -19.655  43.718  0.00  0.00     0.083 A 
ENDBRANCH   2  25
TORSDOF 7
ENDMDL
