MODEL 1
REMARK VINA RESULT:      14.7      0.000      0.000
REMARK  3 active torsions:
REMARK  status: ('A' for Active; 'I' for Inactive)
REMARK    1  A    between atoms: N_7  and  C_2 
REMARK    2  A    between atoms: C_10  and  N_7 
REMARK    3  A    between atoms: C_12  and  C_10 
ROOT
ATOM      1  C   UNL d   1      46.476 -18.246  42.445  0.00  0.00     0.184 A 
ATOM      2  C   UNL d   1      46.500 -18.211  43.245  0.00  0.00     0.108 A 
ATOM      3  C   UNL d   1      46.500 -18.995  42.054  0.00  0.00     0.321 A 
ATOM      4  O   UNL d   1      46.546 -19.675  42.481  0.00  0.00    -0.272 OA
ATOM      5  C   UNL d   1      46.547 -18.907  43.689  0.00  0.00     0.042 A 
ATOM      6  C   UNL d   1      46.571 -19.645  43.305  0.00  0.00     0.105 A 
ATOM      7  O   UNL d   1      46.475 -19.038  41.213  0.00  0.00    -0.257 OA
ATOM      8  N   UNL d   1      46.427 -17.523  42.003  0.00  0.00    -0.141 N 
ATOM      9  C   UNL d   1      46.571 -18.866  44.505  0.00  0.00     0.004 A 
ATOM     10  C   UNL d   1      46.617 -20.330  43.742  0.00  0.00     0.025 A 
ATOM     11  C   UNL d   1      46.618 -19.550  44.955  0.00  0.00     0.000 A 
ATOM     12  C   UNL d   1      46.642 -20.299  44.564  0.00  0.00     0.002 A 
ENDROOT
BRANCH   2  13
ATOM     13  N   UNL d   1      46.477 -17.479  43.626  0.00  0.00    -0.242 NA
BRANCH  13  14
ATOM     14  C   UNL d   1      45.774 -17.242  43.961  0.00  0.00     0.099 C 
BRANCH  14  15
ATOM     15  C   UNL d   1      45.712 -16.446  44.238  0.00  0.00     0.019 A 
ATOM     16  C   UNL d   1      46.358 -15.964  44.197  0.00  0.00     0.002 A 
ATOM     17  C   UNL d   1      46.297 -15.186  44.467  0.00  0.00     0.000 A 
ATOM     18  C   UNL d   1      45.592 -14.909  44.771  0.00  0.00     0.000 A 
ATOM     19  C   UNL d   1      44.933 -15.412  44.810  0.00  0.00     0.000 A 
ATOM     20  C   UNL d   1      44.996 -16.189  44.539  0.00  0.00     0.002 A 
ENDBRANCH  14  15
ENDBRANCH  13  14
ENDBRANCH   2  13
TORSDOF 3
ENDMDL
