MODEL 1
REMARK VINA RESULT:      -3.4      0.000      0.000
REMARK  4 active torsions:
REMARK  status: ('A' for Active; 'I' for Inactive)
REMARK    1  A    between atoms: C_15  and  C_2 
REMARK    2  A    between atoms: C_3  and  N_6 
REMARK    3  A    between atoms: C_5  and  C_16 
REMARK       I    between atoms: N_6  and  C_5 
REMARK    4  A    between atoms: C_16  and  C_15 
ROOT
ATOM      1  C   UNL d   1     -41.471-121.438 -51.528  0.00  0.00     0.279 C 
ATOM      2  N   UNL d   1     -41.635-121.435 -50.723  0.00  0.00    -0.208 NA
ATOM      3  O   UNL d   1     -41.194-120.760 -51.896  0.00  0.00    -0.265 OA
ENDROOT
BRANCH   1   4
ATOM      4  C   UNL d   1     -41.585-122.122 -51.975  0.00  0.00     0.065 C 
BRANCH   4   5
ATOM      5  C   UNL d   1     -41.123-122.264 -52.637  0.00  0.00     0.030 C 
BRANCH   5   6
ATOM      6  C   UNL d   1     -41.452-122.616 -53.306  0.00  0.00     0.100 A 
ATOM      7  O   UNL d   1     -41.886-122.243 -53.903  0.00  0.00    -0.307 OA
ATOM      8  C   UNL d   1     -42.105-122.801 -54.457  0.00  0.00     0.100 A 
ATOM      9  C   UNL d   1     -41.809-123.532 -54.209  0.00  0.00     0.027 A 
ATOM     10  C   UNL d   1     -42.540-122.664 -55.136  0.00  0.00     0.027 C 
ATOM     11  C   UNL d   1     -41.406-123.418 -53.499  0.00  0.00     0.027 A 
ENDBRANCH   5   6
ENDBRANCH   4   5
ENDBRANCH   1   4
BRANCH   2  12
ATOM     12  C   UNL d   1     -41.915-122.124 -50.357  0.00  0.00     0.085 A 
ATOM     13  C   UNL d   1     -42.722-122.300 -50.378  0.00  0.00     0.019 A 
ATOM     14  C   UNL d   1     -43.001-122.979 -50.018  0.00  0.00     0.002 A 
ATOM     15  C   UNL d   1     -43.803-123.154 -50.038  0.00  0.00     0.000 C 
ATOM     16  C   UNL d   1     -42.472-123.493 -49.629  0.00  0.00     0.000 A 
ATOM     17  C   UNL d   1     -41.665-123.306 -49.614  0.00  0.00     0.002 A 
ATOM     18  C   UNL d   1     -41.390-122.628 -49.975  0.00  0.00     0.019 A 
ATOM     19  C   UNL d   1     -41.141-123.817 -49.229  0.00  0.00     0.000 C 
ENDBRANCH   2  12
TORSDOF 4
ENDMDL
