MODEL 1
REMARK VINA RESULT:       8.2      0.000      0.000
REMARK  9 active torsions:
REMARK  status: ('A' for Active; 'I' for Inactive)
REMARK    1  A    between atoms: S_10  and  C_2 
REMARK    2  A    between atoms: C_7  and  C_5 
REMARK    3  A    between atoms: C_9  and  C_6 
REMARK    4  A    between atoms: O_19  and  C_9 
REMARK    5  A    between atoms: C_17  and  S_10 
REMARK    6  A    between atoms: C_13  and  C_17 
REMARK    7  A    between atoms: O_20  and  C_14 
REMARK    8  A    between atoms: C_23  and  O_19 
REMARK    9  A    between atoms: C_24  and  O_20 
ROOT
ATOM      1  C   UNL d   1      32.729  19.474 -22.583  0.00  0.00     0.092 A 
ATOM      2  C   UNL d   1      32.871  19.718 -21.795  0.00  0.00     0.124 A 
ATOM      3  C   UNL d   1      33.062  18.363 -21.410  0.00  0.00     0.285 A 
ATOM      4  N   UNL d   1      33.035  19.161 -21.219  0.00  0.00    -0.201 NA
ATOM      5  C   UNL d   1      32.755  18.680 -22.775  0.00  0.00     0.023 A 
ATOM      6  C   UNL d   1      32.920  18.119 -22.198  0.00  0.00     0.122 A 
ATOM      7  C   UNL d   1      32.566  20.028 -23.158  0.00  0.00     0.103 C 
ATOM      8  N   UNL d   1      32.403  20.582 -23.726  0.00  0.00    -0.191 NA
ATOM      9  O   UNL d   1      33.237  17.714 -20.817  0.00  0.00    -0.265 OA
ENDROOT
BRANCH   2  10
ATOM     10  S   UNL d   1      32.830  20.570 -21.653  0.00  0.00    -0.062 SA
BRANCH  10  11
ATOM     11  C   UNL d   1      32.868  21.000 -20.896  0.00  0.00     0.101 C 
BRANCH  11  12
ATOM     12  C   UNL d   1      32.259  21.587 -20.709  0.00  0.00     0.303 C 
ATOM     13  O   UNL d   1      32.368  22.090 -20.588  0.00  0.00    -0.263 OA
ATOM     14  N   UNL d   1      31.430  21.269 -20.737  0.00  0.00    -0.102 N 
ENDBRANCH  11  12
ENDBRANCH  10  11
ENDBRANCH   2  10
BRANCH   5  15
ATOM     15  C   UNL d   1      32.617  18.442 -23.544  0.00  0.00     0.024 A 
ATOM     16  C   UNL d   1      31.853  18.259 -23.783  0.00  0.00     0.100 A 
ATOM     17  C   UNL d   1      31.713  18.018 -24.563  0.00  0.00     0.025 A 
ATOM     18  C   UNL d   1      32.338  17.962 -25.095  0.00  0.00     0.002 A 
ATOM     19  C   UNL d   1      33.099  18.145 -24.851  0.00  0.00     0.000 A 
ATOM     20  C   UNL d   1      33.239  18.387 -24.072  0.00  0.00     0.002 A 
BRANCH  16  21
ATOM     21  O   UNL d   1      31.273  18.281 -23.397  0.00  0.00    -0.305 OA
BRANCH  21  22
ATOM     22  C   UNL d   1      30.579  18.232 -23.997  0.00  0.00     0.123 C 
ATOM     23  C   UNL d   1      29.627  18.074 -23.511  0.00  0.00     0.029 C 
ENDBRANCH  21  22
ENDBRANCH  16  21
ENDBRANCH   5  15
BRANCH   6  24
ATOM     24  C   UNL d   1      32.947  17.317 -22.388  0.00  0.00     0.305 C 
ATOM     25  O   UNL d   1      33.203  17.184 -22.666  0.00  0.00    -0.259 OA
BRANCH  24  26
ATOM     26  O   UNL d   1      32.462  16.731 -22.032  0.00  0.00    -0.271 OA
BRANCH  26  27
ATOM     27  C   UNL d   1      32.611  15.868 -22.107  0.00  0.00     0.126 C 
ATOM     28  C   UNL d   1      31.854  15.601 -21.772  0.00  0.00     0.029 C 
ENDBRANCH  26  27
ENDBRANCH  24  26
ENDBRANCH   6  24
TORSDOF 9
ENDMDL
