MODEL 1
REMARK VINA RESULT:      54.3      0.000      0.000
REMARK  4 active torsions:
REMARK  status: ('A' for Active; 'I' for Inactive)
REMARK    1  A    between atoms: C_6  and  N_1 
REMARK    2  A    between atoms: N_8  and  C_4 
REMARK    3  A    between atoms: N_7  and  C_10 
REMARK    4  A    between atoms: C_16  and  N_8 
ROOT
ATOM      1  N   UNL d   1      14.025  12.013  -1.978  0.00  0.00    -0.238 N 
ATOM      2  C   UNL d   1      13.193  11.897  -1.877  0.00  0.00     0.269 A 
ATOM      3  C   UNL d   1      14.181  12.103  -2.774  0.00  0.00     0.285 A 
ATOM      4  C   UNL d   1      13.447  12.045  -3.193  0.00  0.00     0.142 A 
ATOM      5  C   UNL d   1      12.870  11.921  -2.623  0.00  0.00     0.085 A 
ATOM      6  O   UNL d   1      12.772  11.783  -1.188  0.00  0.00    -0.267 OA
ATOM      7  O   UNL d   1      14.935  12.228  -3.096  0.00  0.00    -0.265 OA
ENDROOT
BRANCH   4   8
ATOM      8  N   UNL d   1      13.324  12.100  -3.997  0.00  0.00    -0.241 NA
BRANCH   8   9
ATOM      9  C   UNL d   1      13.356  12.829  -4.367  0.00  0.00     0.082 A 
ATOM     10  C   UNL d   1      13.766  12.910  -5.085  0.00  0.00     0.021 A 
ATOM     11  C   UNL d   1      13.810  13.638  -5.474  0.00  0.00     0.019 A 
ATOM     12  C   UNL d   1      13.430  14.303  -5.129  0.00  0.00     0.064 A 
ATOM     13  C   UNL d   1      13.016  14.234  -4.409  0.00  0.00     0.019 A 
ATOM     14  C   UNL d   1      12.984  13.490  -4.033  0.00  0.00     0.021 A 
BRANCH  12  15
ATOM     15  N   UNL d   1      13.461  15.036  -5.499  0.00  0.00    -0.300 N 
ATOM     16  C   UNL d   1      12.769  15.451  -5.627  0.00  0.00     0.107 A 
ATOM     17  C   UNL d   1      12.789  16.182  -5.995  0.00  0.00     0.142 A 
ATOM     18  O   UNL d   1      13.517  16.496  -6.236  0.00  0.00    -0.300 OA
ATOM     19  C   UNL d   1      14.227  16.079  -6.109  0.00  0.00     0.142 A 
ATOM     20  C   UNL d   1      14.187  15.348  -5.738  0.00  0.00     0.107 A 
ENDBRANCH  12  15
ENDBRANCH   8   9
ENDBRANCH   4   8
BRANCH   1  21
ATOM     21  C   UNL d   1      14.589  12.034  -1.390  0.00  0.00     0.097 A 
ATOM     22  C   UNL d   1      14.378  12.244  -0.629  0.00  0.00     0.156 A 
ATOM     23  F   UNL d   1      13.601  12.436  -0.442  0.00  0.00    -0.203 F 
ATOM     24  C   UNL d   1      14.949  12.266  -0.031  0.00  0.00     0.031 A 
ATOM     25  C   UNL d   1      15.728  12.076  -0.205  0.00  0.00     0.002 A 
ATOM     26  C   UNL d   1      15.934  11.866  -0.972  0.00  0.00     0.002 A 
ATOM     27  C   UNL d   1      15.361  11.845  -1.565  0.00  0.00     0.020 A 
ENDBRANCH   1  21
TORSDOF 4
ENDMDL
