MODEL 1
REMARK VINA RESULT:      -4.4      0.000      0.000
REMARK  3 active torsions:
REMARK  status: ('A' for Active; 'I' for Inactive)
REMARK       I    between atoms: N_2  and  C_1 
REMARK    1  A    between atoms: C_4  and  C_1 
REMARK    2  A    between atoms: C_3  and  N_2 
REMARK    3  A    between atoms: C_5  and  C_6 
ROOT
ATOM      1  C   UNL d   1      59.314  -8.628  35.702  0.00  0.00     0.058 A 
ATOM      2  C   UNL d   1      60.053  -7.226  36.011  0.00  0.00    -0.023 A 
ATOM      3  C   UNL d   1      58.988  -7.957  35.427  0.00  0.00     0.004 A 
ATOM      4  C   UNL d   1      60.014  -8.655  36.140  0.00  0.00     0.004 A 
ATOM      5  C   UNL d   1      60.381  -7.933  36.291  0.00  0.00    -0.004 A 
ATOM      6  C   UNL d   1      59.365  -7.241  35.585  0.00  0.00    -0.004 A 
ENDROOT
BRANCH   1   7
ATOM      7  C   UNL d   1      58.921  -9.349  35.535  0.00  0.00     0.279 C 
ATOM      8  N   UNL d   1      59.132  -9.813  34.882  0.00  0.00    -0.207 NA
ATOM      9  O   UNL d   1      58.318  -9.607  36.019  0.00  0.00    -0.265 OA
BRANCH   8  10
ATOM     10  C   UNL d   1      59.737  -9.555  34.394  0.00  0.00     0.095 A 
ATOM     11  C   UNL d   1      59.595  -9.369  33.631  0.00  0.00     0.075 A 
ATOM     12 CL   UNL d   1      58.824  -9.432  33.306  0.00  0.00    -0.081 Cl
ATOM     13  C   UNL d   1      60.206  -9.106  33.125  0.00  0.00     0.013 A 
ATOM     14  C   UNL d   1      60.977  -9.043  33.449  0.00  0.00     0.001 A 
ATOM     15  C   UNL d   1      61.109  -9.237  34.231  0.00  0.00     0.002 A 
ATOM     16  C   UNL d   1      60.514  -9.487  34.701  0.00  0.00     0.020 A 
ENDBRANCH   8  10
ENDBRANCH   1   7
BRANCH   2  17
ATOM     17  C   UNL d   1      60.429  -6.512  36.169  0.00  0.00     0.019 C 
ATOM     18  C   UNL d   1      61.130  -6.917  36.327  0.00  0.00     0.004 C 
ATOM     19  C   UNL d   1      59.730  -6.109  36.011  0.00  0.00     0.004 C 
ATOM     20  C   UNL d   1      60.807  -5.796  36.327  0.00  0.00     0.004 C 
ENDBRANCH   2  17
TORSDOF 3
ENDMDL
MODEL 2
REMARK VINA RESULT:      -3.0      9.082      9.929
REMARK  3 active torsions:
REMARK  status: ('A' for Active; 'I' for Inactive)
REMARK       I    between atoms: N_2  and  C_1 
REMARK    1  A    between atoms: C_4  and  C_1 
REMARK    2  A    between atoms: C_3  and  N_2 
REMARK    3  A    between atoms: C_5  and  C_6 
ROOT
ATOM      1  C   UNL d   1      59.513   0.159  29.280  0.00  0.00     0.058 A 
ATOM      2  C   UNL d   1      58.302   0.376  30.327  0.00  0.00    -0.023 A 
ATOM      3  C   UNL d   1      59.677   0.156  30.058  0.00  0.00     0.004 A 
ATOM      4  C   UNL d   1      58.755   0.267  28.969  0.00  0.00     0.004 A 
ATOM      5  C   UNL d   1      58.146   0.377  29.514  0.00  0.00    -0.004 A 
ATOM      6  C   UNL d   1      59.059   0.267  30.592  0.00  0.00    -0.004 A 
ENDROOT
BRANCH   1   7
ATOM      7  C   UNL d   1      60.149   0.045  28.747  0.00  0.00     0.279 C 
ATOM      8  N   UNL d   1      60.339  -0.707  28.457  0.00  0.00    -0.207 NA
ATOM      9  O   UNL d   1      60.596   0.682  28.503  0.00  0.00    -0.265 OA
BRANCH   8  10
ATOM     10  C   UNL d   1      59.891  -1.348  28.701  0.00  0.00     0.095 A 
ATOM     11  C   UNL d   1      60.208  -1.912  29.169  0.00  0.00     0.075 A 
ATOM     12 CL   UNL d   1      61.005  -1.865  29.425  0.00  0.00    -0.081 Cl
ATOM     13  C   UNL d   1      59.759  -2.570  29.423  0.00  0.00     0.013 A 
ATOM     14  C   UNL d   1      58.961  -2.617  29.167  0.00  0.00     0.001 A 
ATOM     15  C   UNL d   1      58.650  -2.033  28.689  0.00  0.00     0.002 A 
ATOM     16  C   UNL d   1      59.092  -1.411  28.455  0.00  0.00     0.020 A 
ENDBRANCH   8  10
ENDBRANCH   1   7
BRANCH   2  17
ATOM     17  C   UNL d   1      57.686   0.486  30.860  0.00  0.00     0.019 C 
ATOM     18  C   UNL d   1      58.190   0.290  31.483  0.00  0.00     0.004 C 
ATOM     19  C   UNL d   1      57.184   0.682  30.239  0.00  0.00     0.004 C 
ATOM     20  C   UNL d   1      57.068   0.597  31.395  0.00  0.00     0.004 C 
ENDBRANCH   2  17
TORSDOF 3
ENDMDL
MODEL 3
REMARK VINA RESULT:      -2.6      8.989     10.039
REMARK  3 active torsions:
REMARK  status: ('A' for Active; 'I' for Inactive)
REMARK       I    between atoms: N_2  and  C_1 
REMARK    1  A    between atoms: C_4  and  C_1 
REMARK    2  A    between atoms: C_3  and  N_2 
REMARK    3  A    between atoms: C_5  and  C_6 
ROOT
ATOM      1  C   UNL d   1      58.974  -0.708  28.960  0.00  0.00     0.058 A 
ATOM      2  C   UNL d   1      59.844  -2.067  29.026  0.00  0.00    -0.023 A 
ATOM      3  C   UNL d   1      59.585  -0.793  28.459  0.00  0.00     0.004 A 
ATOM      4  C   UNL d   1      58.752  -1.276  29.518  0.00  0.00     0.004 A 
ATOM      5  C   UNL d   1      59.204  -1.965  29.542  0.00  0.00    -0.004 A 
ATOM      6  C   UNL d   1      60.029  -1.487  28.492  0.00  0.00    -0.004 A 
ENDROOT
BRANCH   1   7
ATOM      7  C   UNL d   1      58.530   0.002  28.917  0.00  0.00     0.279 C 
ATOM      8  N   UNL d   1      58.764   0.681  29.329  0.00  0.00    -0.207 NA
ATOM      9  O   UNL d   1      57.854   0.033  28.463  0.00  0.00    -0.265 OA
BRANCH   8  10
ATOM     10  C   UNL d   1      59.443   0.652  29.785  0.00  0.00     0.095 A 
ATOM     11  C   UNL d   1      59.399   0.650  30.582  0.00  0.00     0.075 A 
ATOM     12 CL   UNL d   1      58.658   0.677  30.975  0.00  0.00    -0.081 Cl
ATOM     13  C   UNL d   1      60.086   0.620  31.057  0.00  0.00     0.013 A 
ATOM     14  C   UNL d   1      60.827   0.593  30.664  0.00  0.00     0.001 A 
ATOM     15  C   UNL d   1      60.858   0.596  29.848  0.00  0.00     0.002 A 
ATOM     16  C   UNL d   1      60.192   0.624  29.410  0.00  0.00     0.020 A 
ENDBRANCH   8  10
ENDBRANCH   1   7
BRANCH   2  17
ATOM     17  C   UNL d   1      60.287  -2.759  29.059  0.00  0.00     0.019 C 
ATOM     18  C   UNL d   1      60.781  -2.471  28.465  0.00  0.00     0.004 C 
ATOM     19  C   UNL d   1      59.794  -3.046  29.651  0.00  0.00     0.004 C 
ATOM     20  C   UNL d   1      60.731  -3.453  29.092  0.00  0.00     0.004 C 
ENDBRANCH   2  17
TORSDOF 3
ENDMDL
MODEL 4
REMARK VINA RESULT:      -1.4      8.603      9.319
REMARK  3 active torsions:
REMARK  status: ('A' for Active; 'I' for Inactive)
REMARK       I    between atoms: N_2  and  C_1 
REMARK    1  A    between atoms: C_4  and  C_1 
REMARK    2  A    between atoms: C_3  and  N_2 
REMARK    3  A    between atoms: C_5  and  C_6 
ROOT
ATOM      1  C   UNL d   1      58.443  -1.691  29.253  0.00  0.00     0.058 A 
ATOM      2  C   UNL d   1      57.943  -0.517  30.243  0.00  0.00    -0.023 A 
ATOM      3  C   UNL d   1      58.271  -1.876  30.008  0.00  0.00     0.004 A 
ATOM      4  C   UNL d   1      58.381  -0.929  28.940  0.00  0.00     0.004 A 
ATOM      5  C   UNL d   1      58.125  -0.339  29.455  0.00  0.00    -0.004 A 
ATOM      6  C   UNL d   1      58.016  -1.277  30.513  0.00  0.00    -0.004 A 
ENDROOT
BRANCH   1   7
ATOM      7  C   UNL d   1      58.701  -2.309  28.750  0.00  0.00     0.279 C 
ATOM      8  N   UNL d   1      59.498  -2.386  28.538  0.00  0.00    -0.207 NA
ATOM      9  O   UNL d   1      58.165  -2.848  28.457  0.00  0.00    -0.265 OA
BRANCH   8  10
ATOM     10  C   UNL d   1      60.039  -1.845  28.831  0.00  0.00     0.095 A 
ATOM     11  C   UNL d   1      60.569  -2.058  29.388  0.00  0.00     0.075 A 
ATOM     12 CL   UNL d   1      60.588  -2.840  29.690  0.00  0.00    -0.081 Cl
ATOM     13  C   UNL d   1      61.125  -1.513  29.692  0.00  0.00     0.013 A 
ATOM     14  C   UNL d   1      61.105  -0.730  29.390  0.00  0.00     0.001 A 
ATOM     15  C   UNL d   1      60.558  -0.525  28.820  0.00  0.00     0.002 A 
ATOM     16  C   UNL d   1      60.034  -1.058  28.540  0.00  0.00     0.020 A 
ENDBRANCH   8  10
ENDBRANCH   1   7
BRANCH   2  17
ATOM     17  C   UNL d   1      57.688   0.081  30.747  0.00  0.00     0.019 C 
ATOM     18  C   UNL d   1      57.322  -0.481  31.228  0.00  0.00     0.004 C 
ATOM     19  C   UNL d   1      58.053   0.640  30.268  0.00  0.00     0.004 C 
ATOM     20  C   UNL d   1      57.432   0.680  31.253  0.00  0.00     0.004 C 
ENDBRANCH   2  17
TORSDOF 3
ENDMDL
