MODEL 1
REMARK VINA RESULT:      -4.8      0.000      0.000
REMARK  1 active torsions:
REMARK  status: ('A' for Active; 'I' for Inactive)
REMARK    1  A    between atoms: C_10  and  N_2 
ROOT
ATOM      1  C   UNL d   1      58.238  -0.335  30.080  0.00  0.00     0.166 A 
ATOM      2  N   UNL d   1      58.770  -0.324  29.442  0.00  0.00    -0.291 N 
ATOM      3  C   UNL d   1      58.060  -1.127  30.219  0.00  0.00     0.117 A 
ATOM      4  C   UNL d   1      58.907  -1.090  29.205  0.00  0.00     0.067 A 
ATOM      5  N   UNL d   1      57.902   0.273  30.542  0.00  0.00    -0.225 NA
ATOM      6  C   UNL d   1      58.464  -1.590  29.690  0.00  0.00     0.037 A 
ATOM      7  N   UNL d   1      57.531  -1.296  30.838  0.00  0.00    -0.241 NA
ATOM      8  C   UNL d   1      57.389   0.089  31.140  0.00  0.00     0.101 A 
ATOM      9  C   UNL d   1      57.205  -0.708  31.285  0.00  0.00     0.099 A 
ATOM     10  C   UNL d   1      59.383  -1.408  28.604  0.00  0.00     0.018 A 
ATOM     11  C   UNL d   1      58.497  -2.409  29.572  0.00  0.00     0.003 A 
ATOM     12  C   UNL d   1      56.688  -0.899  31.889  0.00  0.00     0.021 A 
ATOM     13  C   UNL d   1      57.059   0.671  31.591  0.00  0.00     0.021 A 
ATOM     14  C   UNL d   1      59.413  -2.230  28.490  0.00  0.00     0.002 A 
ATOM     15  C   UNL d   1      58.970  -2.730  28.974  0.00  0.00     0.000 A 
ATOM     16  C   UNL d   1      56.526   0.464  32.212  0.00  0.00     0.002 A 
ATOM     17  C   UNL d   1      56.336  -0.309  32.367  0.00  0.00     0.002 A 
ENDROOT
BRANCH   2  18
ATOM     18  C   UNL d   1      59.096   0.340  29.114  0.00  0.00     0.066 C 
ATOM     19  C   UNL d   1      59.794   0.664  29.466  0.00  0.00     0.019 C 
ATOM     20  C   UNL d   1      58.746   0.682  28.455  0.00  0.00     0.019 C 
ENDBRANCH   2  18
TORSDOF 1
ENDMDL
MODEL 2
REMARK VINA RESULT:      -3.6      0.627      1.948
REMARK  1 active torsions:
REMARK  status: ('A' for Active; 'I' for Inactive)
REMARK    1  A    between atoms: C_10  and  N_2 
ROOT
ATOM      1  C   UNL d   1      58.369  -0.944  30.068  0.00  0.00     0.166 A 
ATOM      2  N   UNL d   1      58.845  -1.270  29.470  0.00  0.00    -0.291 N 
ATOM      3  C   UNL d   1      58.602  -0.159  30.148  0.00  0.00     0.117 A 
ATOM      4  C   UNL d   1      59.351  -0.694  29.199  0.00  0.00     0.067 A 
ATOM      5  N   UNL d   1      57.761  -1.267  30.539  0.00  0.00    -0.225 NA
ATOM      6  C   UNL d   1      59.199  -0.001  29.621  0.00  0.00     0.037 A 
ATOM      7  N   UNL d   1      58.208   0.300  30.717  0.00  0.00    -0.241 NA
ATOM      8  C   UNL d   1      57.388  -0.805  31.089  0.00  0.00     0.101 A 
ATOM      9  C   UNL d   1      57.619  -0.011  31.174  0.00  0.00     0.099 A 
ATOM     10  C   UNL d   1      59.940  -0.703  28.615  0.00  0.00     0.018 A 
ATOM     11  C   UNL d   1      59.638   0.682  29.459  0.00  0.00     0.003 A 
ATOM     12  C   UNL d   1      57.246   0.461  31.728  0.00  0.00     0.021 A 
ATOM     13  C   UNL d   1      56.799  -1.108  31.549  0.00  0.00     0.021 A 
ATOM     14  C   UNL d   1      60.378  -0.015  28.455  0.00  0.00     0.002 A 
ATOM     15  C   UNL d   1      60.226   0.677  28.877  0.00  0.00     0.000 A 
ATOM     16  C   UNL d   1      56.419  -0.614  32.119  0.00  0.00     0.002 A 
ATOM     17  C   UNL d   1      56.633   0.163  32.215  0.00  0.00     0.002 A 
ENDROOT
BRANCH   2  18
ATOM     18  C   UNL d   1      58.809  -2.033  29.205  0.00  0.00     0.066 C 
ATOM     19  C   UNL d   1      59.295  -2.615  29.580  0.00  0.00     0.019 C 
ATOM     20  C   UNL d   1      58.307  -2.225  28.584  0.00  0.00     0.019 C 
ENDBRANCH   2  18
TORSDOF 1
ENDMDL
MODEL 3
REMARK VINA RESULT:      -2.8      1.282      3.487
REMARK  1 active torsions:
REMARK  status: ('A' for Active; 'I' for Inactive)
REMARK    1  A    between atoms: C_10  and  N_2 
ROOT
ATOM      1  C   UNL d   1      59.714  -1.110  29.369  0.00  0.00     0.166 A 
ATOM      2  N   UNL d   1      59.738  -0.300  29.552  0.00  0.00    -0.291 N 
ATOM      3  C   UNL d   1      58.975  -1.380  29.611  0.00  0.00     0.117 A 
ATOM      4  C   UNL d   1      59.031  -0.091  29.896  0.00  0.00     0.067 A 
ATOM      5  N   UNL d   1      60.269  -1.622  29.015  0.00  0.00    -0.225 NA
ATOM      6  C   UNL d   1      58.556  -0.764  29.932  0.00  0.00     0.037 A 
ATOM      7  N   UNL d   1      58.805  -2.185  29.489  0.00  0.00    -0.241 NA
ATOM      8  C   UNL d   1      60.086  -2.403  28.905  0.00  0.00     0.101 A 
ATOM      9  C   UNL d   1      59.342  -2.681  29.147  0.00  0.00     0.099 A 
ATOM     10  C   UNL d   1      58.748   0.633  30.187  0.00  0.00     0.018 A 
ATOM     11  C   UNL d   1      57.797  -0.714  30.260  0.00  0.00     0.003 A 
ATOM     12  C   UNL d   1      59.151  -3.469  29.038  0.00  0.00     0.021 A 
ATOM     13  C   UNL d   1      60.617  -2.905  28.564  0.00  0.00     0.021 A 
ATOM     14  C   UNL d   1      57.986   0.680  30.514  0.00  0.00     0.002 A 
ATOM     15  C   UNL d   1      57.511   0.006  30.551  0.00  0.00     0.000 A 
ATOM     16  C   UNL d   1      60.412  -3.716  28.455  0.00  0.00     0.002 A 
ATOM     17  C   UNL d   1      59.690  -4.005  28.686  0.00  0.00     0.002 A 
ENDROOT
BRANCH   2  18
ATOM     18  C   UNL d   1      60.362   0.195  29.411  0.00  0.00     0.066 C 
ATOM     19  C   UNL d   1      60.402   0.593  28.666  0.00  0.00     0.019 C 
ATOM     20  C   UNL d   1      60.937   0.300  29.988  0.00  0.00     0.019 C 
ENDBRANCH   2  18
TORSDOF 1
ENDMDL
MODEL 4
REMARK VINA RESULT:      -1.9      1.381      3.656
REMARK  1 active torsions:
REMARK  status: ('A' for Active; 'I' for Inactive)
REMARK    1  A    between atoms: C_10  and  N_2 
ROOT
ATOM      1  C   UNL d   1      59.104  -1.580  29.239  0.00  0.00     0.166 A 
ATOM      2  N   UNL d   1      58.901  -0.804  29.457  0.00  0.00    -0.291 N 
ATOM      3  C   UNL d   1      59.927  -1.614  29.245  0.00  0.00     0.117 A 
ATOM      4  C   UNL d   1      59.585  -0.385  29.590  0.00  0.00     0.067 A 
ATOM      5  N   UNL d   1      58.643  -2.246  29.041  0.00  0.00    -0.225 NA
ATOM      6  C   UNL d   1      60.224  -0.890  29.458  0.00  0.00     0.037 A 
ATOM      7  N   UNL d   1      60.280  -2.340  29.045  0.00  0.00    -0.241 NA
ATOM      8  C   UNL d   1      59.004  -2.945  28.848  0.00  0.00     0.101 A 
ATOM      9  C   UNL d   1      59.835  -2.985  28.852  0.00  0.00     0.099 A 
ATOM     10  C   UNL d   1      59.718   0.402  29.817  0.00  0.00     0.018 A 
ATOM     11  C   UNL d   1      60.996  -0.607  29.553  0.00  0.00     0.003 A 
ATOM     12  C   UNL d   1      60.205  -3.688  28.659  0.00  0.00     0.021 A 
ATOM     13  C   UNL d   1      58.567  -3.594  28.655  0.00  0.00     0.021 A 
ATOM     14  C   UNL d   1      60.494   0.682  29.911  0.00  0.00     0.002 A 
ATOM     15  C   UNL d   1      61.133   0.177  29.779  0.00  0.00     0.000 A 
ATOM     16  C   UNL d   1      58.958  -4.315  28.456  0.00  0.00     0.002 A 
ATOM     17  C   UNL d   1      59.767  -4.373  28.455  0.00  0.00     0.002 A 
ENDROOT
BRANCH   2  18
ATOM     18  C   UNL d   1      58.148  -0.518  29.524  0.00  0.00     0.066 C 
ATOM     19  C   UNL d   1      57.782  -0.178  28.841  0.00  0.00     0.019 C 
ATOM     20  C   UNL d   1      57.758  -0.563  30.245  0.00  0.00     0.019 C 
ENDBRANCH   2  18
TORSDOF 1
ENDMDL
