MODEL 1
REMARK VINA RESULT:      -3.6      0.000      0.000
REMARK  4 active torsions:
REMARK  status: ('A' for Active; 'I' for Inactive)
REMARK    1  A    between atoms: C_2  and  C_3 
REMARK    2  A    between atoms: N_4  and  C_2 
REMARK    3  A    between atoms: C_12  and  N_4 
REMARK    4  A    between atoms: N_8  and  C_7 
ROOT
ATOM      1  C   UNL d   1      33.088  19.230 -23.041  0.00  0.00     0.153 C 
ATOM      2  S   UNL d   1      33.216  19.777 -23.644  0.00  0.00    -0.056 SA
ENDROOT
BRANCH   1   3
ATOM      3  C   UNL d   1      32.810  18.477 -23.227  0.00  0.00     0.109 A 
ATOM      4  N   UNL d   1      32.103  18.388 -23.647  0.00  0.00    -0.243 NA
ATOM      5  C   UNL d   1      31.826  17.636 -23.832  0.00  0.00     0.081 A 
ATOM      6  C   UNL d   1      32.252  16.969 -23.599  0.00  0.00     0.018 A 
ATOM      7  C   UNL d   1      31.117  17.544 -24.255  0.00  0.00     0.019 A 
ATOM      8  C   UNL d   1      32.957  17.051 -23.179  0.00  0.00     0.003 A 
ATOM      9  C   UNL d   1      31.969  16.211 -23.787  0.00  0.00     0.002 A 
ATOM     10  C   UNL d   1      33.238  17.806 -22.992  0.00  0.00     0.021 A 
ATOM     11  C   UNL d   1      31.265  16.126 -24.206  0.00  0.00     0.000 A 
ATOM     12  C   UNL d   1      30.839  16.792 -24.440  0.00  0.00     0.002 A 
ENDBRANCH   1   3
BRANCH   1  13
ATOM     13  N   UNL d   1      33.236  19.433 -22.256  0.00  0.00    -0.233 NA
BRANCH  13  14
ATOM     14  C   UNL d   1      33.043  20.183 -21.984  0.00  0.00     0.083 A 
ATOM     15  C   UNL d   1      33.234  20.845 -22.443  0.00  0.00     0.021 A 
ATOM     16  C   UNL d   1      33.040  21.596 -22.168  0.00  0.00     0.019 A 
ATOM     17  C   UNL d   1      32.655  21.686 -21.434  0.00  0.00     0.064 A 
ATOM     18  C   UNL d   1      32.468  21.024 -20.983  0.00  0.00     0.019 A 
ATOM     19  C   UNL d   1      32.662  20.272 -21.258  0.00  0.00     0.021 A 
BRANCH  17  20
ATOM     20  N   UNL d   1      32.461  22.449 -21.161  0.00  0.00    -0.301 N 
ATOM     21  C   UNL d   1      32.537  22.626 -20.367  0.00  0.00     0.100 C 
ATOM     22  C   UNL d   1      32.195  23.020 -21.686  0.00  0.00     0.100 C 
ENDBRANCH  17  20
ENDBRANCH  13  14
ENDBRANCH   1  13
TORSDOF 4
ENDMDL
MODEL 2
REMARK VINA RESULT:      -3.3      0.880      4.990
REMARK  4 active torsions:
REMARK  status: ('A' for Active; 'I' for Inactive)
REMARK    1  A    between atoms: C_2  and  C_3 
REMARK    2  A    between atoms: N_4  and  C_2 
REMARK    3  A    between atoms: C_12  and  N_4 
REMARK    4  A    between atoms: N_8  and  C_7 
ROOT
ATOM      1  C   UNL d   1      33.106  19.640 -22.510  0.00  0.00     0.153 C 
ATOM      2  S   UNL d   1      33.239  19.094 -21.907  0.00  0.00    -0.056 SA
ENDROOT
BRANCH   1   3
ATOM      3  C   UNL d   1      33.035  20.440 -22.328  0.00  0.00     0.109 A 
ATOM      4  N   UNL d   1      32.758  20.673 -21.584  0.00  0.00    -0.243 NA
ATOM      5  C   UNL d   1      32.688  21.472 -21.402  0.00  0.00     0.081 A 
ATOM      6  C   UNL d   1      32.892  22.043 -21.961  0.00  0.00     0.018 A 
ATOM      7  C   UNL d   1      32.410  21.707 -20.655  0.00  0.00     0.019 A 
ATOM      8  C   UNL d   1      33.169  21.817 -22.705  0.00  0.00     0.003 A 
ATOM      9  C   UNL d   1      32.819  22.849 -21.774  0.00  0.00     0.002 A 
ATOM     10  C   UNL d   1      33.241  21.015 -22.890  0.00  0.00     0.021 A 
ATOM     11  C   UNL d   1      32.544  23.077 -21.033  0.00  0.00     0.000 A 
ATOM     12  C   UNL d   1      32.339  22.507 -20.474  0.00  0.00     0.002 A 
ENDBRANCH   1   3
BRANCH   1  13
ATOM     13  N   UNL d   1      33.044  19.389 -23.293  0.00  0.00    -0.233 NA
BRANCH  13  14
ATOM     14  C   UNL d   1      32.786  18.627 -23.459  0.00  0.00     0.083 A 
ATOM     15  C   UNL d   1      33.239  17.979 -23.214  0.00  0.00     0.021 A 
ATOM     16  C   UNL d   1      32.978  17.217 -23.381  0.00  0.00     0.019 A 
ATOM     17  C   UNL d   1      32.263  17.102 -23.794  0.00  0.00     0.064 A 
ATOM     18  C   UNL d   1      31.817  17.750 -24.035  0.00  0.00     0.019 A 
ATOM     19  C   UNL d   1      32.078  18.513 -23.868  0.00  0.00     0.021 A 
BRANCH  17  20
ATOM     20  N   UNL d   1      32.003  16.327 -23.961  0.00  0.00    -0.301 N 
ATOM     21  C   UNL d   1      32.367  15.899 -24.553  0.00  0.00     0.100 C 
ATOM     22  C   UNL d   1      31.388  15.998 -23.533  0.00  0.00     0.100 C 
ENDBRANCH  17  20
ENDBRANCH  13  14
ENDBRANCH   1  13
TORSDOF 4
ENDMDL
MODEL 3
REMARK VINA RESULT:      -2.3      1.180      4.864
REMARK  4 active torsions:
REMARK  status: ('A' for Active; 'I' for Inactive)
REMARK    1  A    between atoms: C_2  and  C_3 
REMARK    2  A    between atoms: N_4  and  C_2 
REMARK    3  A    between atoms: C_12  and  N_4 
REMARK    4  A    between atoms: N_8  and  C_7 
ROOT
ATOM      1  C   UNL d   1      33.140  18.733 -23.075  0.00  0.00     0.153 C 
ATOM      2  S   UNL d   1      33.239  18.126 -22.525  0.00  0.00    -0.056 SA
ENDROOT
BRANCH   1   3
ATOM      3  C   UNL d   1      33.141  19.516 -22.822  0.00  0.00     0.109 A 
ATOM      4  N   UNL d   1      33.189  20.130 -23.375  0.00  0.00    -0.243 NA
ATOM      5  C   UNL d   1      33.190  20.913 -23.122  0.00  0.00     0.081 A 
ATOM      6  C   UNL d   1      33.143  21.087 -22.317  0.00  0.00     0.018 A 
ATOM      7  C   UNL d   1      33.239  21.530 -23.675  0.00  0.00     0.019 A 
ATOM      8  C   UNL d   1      33.095  20.480 -21.761  0.00  0.00     0.003 A 
ATOM      9  C   UNL d   1      33.145  21.879 -22.065  0.00  0.00     0.002 A 
ATOM     10  C   UNL d   1      33.094  19.692 -22.012  0.00  0.00     0.021 A 
ATOM     11  C   UNL d   1      33.193  22.487 -22.618  0.00  0.00     0.000 A 
ATOM     12  C   UNL d   1      33.240  22.313 -23.423  0.00  0.00     0.002 A 
ENDBRANCH   1   3
BRANCH   1  13
ATOM     13  N   UNL d   1      33.040  18.557 -23.875  0.00  0.00    -0.233 NA
BRANCH  13  14
ATOM     14  C   UNL d   1      32.475  18.008 -24.105  0.00  0.00     0.083 A 
ATOM     15  C   UNL d   1      32.520  17.231 -23.822  0.00  0.00     0.021 A 
ATOM     16  C   UNL d   1      31.952  16.683 -24.054  0.00  0.00     0.019 A 
ATOM     17  C   UNL d   1      31.339  16.911 -24.571  0.00  0.00     0.064 A 
ATOM     18  C   UNL d   1      31.300  17.684 -24.850  0.00  0.00     0.019 A 
ATOM     19  C   UNL d   1      31.868  18.233 -24.617  0.00  0.00     0.021 A 
BRANCH  17  20
ATOM     20  N   UNL d   1      30.766  16.351 -24.804  0.00  0.00    -0.301 N 
ATOM     21  C   UNL d   1      31.003  15.601 -25.027  0.00  0.00     0.100 C 
ATOM     22  C   UNL d   1      29.972  16.551 -24.808  0.00  0.00     0.100 C 
ENDBRANCH  17  20
ENDBRANCH  13  14
ENDBRANCH   1  13
TORSDOF 4
ENDMDL
MODEL 4
REMARK VINA RESULT:      -2.1      1.888      4.982
REMARK  4 active torsions:
REMARK  status: ('A' for Active; 'I' for Inactive)
REMARK    1  A    between atoms: C_2  and  C_3 
REMARK    2  A    between atoms: N_4  and  C_2 
REMARK    3  A    between atoms: C_12  and  N_4 
REMARK    4  A    between atoms: N_8  and  C_7 
ROOT
ATOM      1  C   UNL d   1      31.885  17.063 -23.875  0.00  0.00     0.153 C 
ATOM      2  S   UNL d   1      32.161  16.457 -23.388  0.00  0.00    -0.056 SA
ENDROOT
BRANCH   1   3
ATOM      3  C   UNL d   1      32.221  17.813 -23.823  0.00  0.00     0.109 A 
ATOM      4  N   UNL d   1      32.230  18.215 -23.101  0.00  0.00    -0.243 NA
ATOM      5  C   UNL d   1      32.566  18.964 -23.050  0.00  0.00     0.081 A 
ATOM      6  C   UNL d   1      32.895  19.315 -23.720  0.00  0.00     0.018 A 
ATOM      7  C   UNL d   1      32.575  19.369 -22.325  0.00  0.00     0.019 A 
ATOM      8  C   UNL d   1      32.890  18.919 -24.444  0.00  0.00     0.003 A 
ATOM      9  C   UNL d   1      33.234  20.072 -23.665  0.00  0.00     0.002 A 
ATOM     10  C   UNL d   1      32.553  18.166 -24.497  0.00  0.00     0.021 A 
ATOM     11  C   UNL d   1      33.241  20.470 -22.944  0.00  0.00     0.000 A 
ATOM     12  C   UNL d   1      32.912  20.118 -22.274  0.00  0.00     0.002 A 
ENDBRANCH   1   3
BRANCH   1  13
ATOM     13  N   UNL d   1      31.274  16.920 -24.411  0.00  0.00    -0.233 NA
BRANCH  13  14
ATOM     14  C   UNL d   1      30.542  16.668 -24.139  0.00  0.00     0.083 A 
ATOM     15  C   UNL d   1      29.855  17.050 -24.401  0.00  0.00     0.021 A 
ATOM     16  C   UNL d   1      29.122  16.795 -24.127  0.00  0.00     0.019 A 
ATOM     17  C   UNL d   1      29.075  16.158 -23.590  0.00  0.00     0.064 A 
ATOM     18  C   UNL d   1      29.761  15.784 -23.334  0.00  0.00     0.019 A 
ATOM     19  C   UNL d   1      30.495  16.038 -23.608  0.00  0.00     0.021 A 
BRANCH  17  20
ATOM     20  N   UNL d   1      28.329  15.905 -23.316  0.00  0.00    -0.301 N 
ATOM     21  C   UNL d   1      28.084  16.111 -22.565  0.00  0.00     0.100 C 
ATOM     22  C   UNL d   1      27.846  15.453 -23.798  0.00  0.00     0.100 C 
ENDBRANCH  17  20
ENDBRANCH  13  14
ENDBRANCH   1  13
TORSDOF 4
ENDMDL
MODEL 5
REMARK VINA RESULT:      -1.6      1.261      2.049
REMARK  4 active torsions:
REMARK  status: ('A' for Active; 'I' for Inactive)
REMARK    1  A    between atoms: C_2  and  C_3 
REMARK    2  A    between atoms: N_4  and  C_2 
REMARK    3  A    between atoms: C_12  and  N_4 
REMARK    4  A    between atoms: N_8  and  C_7 
ROOT
ATOM      1  C   UNL d   1      33.163  20.549 -21.993  0.00  0.00     0.153 C 
ATOM      2  S   UNL d   1      33.241  21.289 -22.350  0.00  0.00    -0.056 SA
ENDROOT
BRANCH   1   3
ATOM      3  C   UNL d   1      33.095  19.875 -22.461  0.00  0.00     0.109 A 
ATOM      4  N   UNL d   1      33.194  19.126 -22.125  0.00  0.00    -0.243 NA
ATOM      5  C   UNL d   1      33.127  18.453 -22.593  0.00  0.00     0.081 A 
ATOM      6  C   UNL d   1      32.960  18.524 -23.398  0.00  0.00     0.018 A 
ATOM      7  C   UNL d   1      33.225  17.699 -22.258  0.00  0.00     0.019 A 
ATOM      8  C   UNL d   1      32.861  19.269 -23.739  0.00  0.00     0.003 A 
ATOM      9  C   UNL d   1      32.893  17.842 -23.868  0.00  0.00     0.002 A 
ATOM     10  C   UNL d   1      32.928  19.947 -23.271  0.00  0.00     0.021 A 
ATOM     11  C   UNL d   1      32.992  17.098 -23.531  0.00  0.00     0.000 A 
ATOM     12  C   UNL d   1      33.158  17.026 -22.726  0.00  0.00     0.002 A 
ENDBRANCH   1   3
BRANCH   1  13
ATOM     13  N   UNL d   1      33.153  20.484 -21.170  0.00  0.00    -0.233 NA
BRANCH  13  14
ATOM     14  C   UNL d   1      33.003  21.146 -20.709  0.00  0.00     0.083 A 
ATOM     15  C   UNL d   1      32.615  21.797 -21.043  0.00  0.00     0.021 A 
ATOM     16  C   UNL d   1      32.466  22.460 -20.578  0.00  0.00     0.019 A 
ATOM     17  C   UNL d   1      32.706  22.473 -19.780  0.00  0.00     0.064 A 
ATOM     18  C   UNL d   1      33.091  21.822 -19.455  0.00  0.00     0.019 A 
ATOM     19  C   UNL d   1      33.240  21.159 -19.919  0.00  0.00     0.021 A 
BRANCH  17  20
ATOM     20  N   UNL d   1      32.552  23.147 -19.314  0.00  0.00    -0.301 N 
ATOM     21  C   UNL d   1      31.934  23.643 -19.513  0.00  0.00     0.100 C 
ATOM     22  C   UNL d   1      33.018  23.312 -18.661  0.00  0.00     0.100 C 
ENDBRANCH  17  20
ENDBRANCH  13  14
ENDBRANCH   1  13
TORSDOF 4
ENDMDL
