MODEL 1
REMARK VINA RESULT:      -2.6      0.000      0.000
REMARK  6 active torsions:
REMARK  status: ('A' for Active; 'I' for Inactive)
REMARK    1  A    between atoms: N_2  and  S_1 
REMARK    2  A    between atoms: C_16  and  S_1 
REMARK    3  A    between atoms: C_4  and  C_3 
REMARK       I    between atoms: N_6  and  C_4 
REMARK    4  A    between atoms: C_15  and  N_6 
REMARK    5  A    between atoms: C_9  and  C_15 
REMARK    6  A    between atoms: C_20  and  C_16 
ROOT
ATOM      1  N   UNL d   1      31.510  17.340 -24.437  0.00  0.00    -0.229 N 
ATOM      2  C   UNL d   1      32.658  17.508 -23.609  0.00  0.00     0.076 A 
ATOM      3  C   UNL d   1      31.868  17.315 -23.692  0.00  0.00     0.096 A 
ATOM      4  C   UNL d   1      31.942  17.559 -25.095  0.00  0.00     0.092 A 
ATOM      5  C   UNL d   1      33.095  17.728 -24.268  0.00  0.00     0.008 A 
ATOM      6  C   UNL d   1      32.736  17.754 -25.013  0.00  0.00     0.020 A 
ENDROOT
BRANCH   2   7
ATOM      7  C   UNL d   1      33.024  17.485 -22.868  0.00  0.00     0.281 C 
ATOM      8  N   UNL d   1      33.175  18.180 -22.450  0.00  0.00    -0.204 NA
ATOM      9  O   UNL d   1      33.241  16.748 -22.545  0.00  0.00    -0.265 OA
BRANCH   8  10
ATOM     10  C   UNL d   1      32.959  18.905 -22.774  0.00  0.00     0.127 C 
BRANCH  10  11
ATOM     11  C   UNL d   1      33.019  19.592 -22.319  0.00  0.00     0.119 A 
ATOM     12  O   UNL d   1      32.865  20.359 -22.581  0.00  0.00    -0.304 OA
ATOM     13  C   UNL d   1      32.994  20.875 -21.948  0.00  0.00     0.123 A 
ATOM     14  C   UNL d   1      33.227  20.421 -21.298  0.00  0.00     0.029 A 
ATOM     15  C   UNL d   1      33.241  19.632 -21.534  0.00  0.00     0.028 A 
ENDBRANCH  10  11
ENDBRANCH   8  10
ENDBRANCH   2   7
BRANCH   1  16
ATOM     16  S   UNL d   1      30.705  17.142 -24.514  0.00  0.00     0.272 S 
ATOM     17  O   UNL d   1      30.507  17.926 -24.507  0.00  0.00    -0.200 OA
ATOM     18  O   UNL d   1      30.917  16.339 -24.520  0.00  0.00    -0.200 OA
BRANCH  16  19
ATOM     19  C   UNL d   1      29.902  16.953 -24.590  0.00  0.00     0.116 C 
BRANCH  19  20
ATOM     20  C   UNL d   1      29.468  16.677 -23.942  0.00  0.00     0.014 C 
ATOM     21  C   UNL d   1      28.646  16.679 -23.972  0.00  0.00     0.001 C 
ENDBRANCH  19  20
ENDBRANCH  16  19
ENDBRANCH   1  16
TORSDOF 6
ENDMDL
MODEL 2
REMARK VINA RESULT:      -1.9      1.627      4.303
REMARK  6 active torsions:
REMARK  status: ('A' for Active; 'I' for Inactive)
REMARK    1  A    between atoms: N_2  and  S_1 
REMARK    2  A    between atoms: C_16  and  S_1 
REMARK    3  A    between atoms: C_4  and  C_3 
REMARK       I    between atoms: N_6  and  C_4 
REMARK    4  A    between atoms: C_15  and  N_6 
REMARK    5  A    between atoms: C_9  and  C_15 
REMARK    6  A    between atoms: C_20  and  C_16 
ROOT
ATOM      1  N   UNL d   1      32.993  19.760 -22.205  0.00  0.00    -0.229 N 
ATOM      2  C   UNL d   1      32.886  18.973 -23.389  0.00  0.00     0.076 A 
ATOM      3  C   UNL d   1      32.839  19.698 -23.015  0.00  0.00     0.096 A 
ATOM      4  C   UNL d   1      33.193  19.096 -21.772  0.00  0.00     0.092 A 
ATOM      5  C   UNL d   1      33.087  18.305 -22.956  0.00  0.00     0.008 A 
ATOM      6  C   UNL d   1      33.241  18.366 -22.146  0.00  0.00     0.020 A 
ENDROOT
BRANCH   2   7
ATOM      7  C   UNL d   1      32.734  18.903 -24.198  0.00  0.00     0.281 C 
ATOM      8  N   UNL d   1      32.118  18.429 -24.472  0.00  0.00    -0.204 NA
ATOM      9  O   UNL d   1      33.213  19.318 -24.739  0.00  0.00    -0.265 OA
BRANCH   8  10
ATOM     10  C   UNL d   1      31.648  18.020 -23.933  0.00  0.00     0.127 C 
BRANCH  10  11
ATOM     11  C   UNL d   1      31.019  17.558 -24.206  0.00  0.00     0.119 A 
ATOM     12  O   UNL d   1      30.355  17.838 -24.608  0.00  0.00    -0.304 OA
ATOM     13  C   UNL d   1      29.869  17.191 -24.776  0.00  0.00     0.123 A 
ATOM     14  C   UNL d   1      30.237  16.514 -24.475  0.00  0.00     0.029 A 
ATOM     15  C   UNL d   1      30.946  16.749 -24.125  0.00  0.00     0.028 A 
ENDBRANCH  10  11
ENDBRANCH   8  10
ENDBRANCH   2   7
BRANCH   1  16
ATOM     16  S   UNL d   1      32.943  20.502 -21.832  0.00  0.00     0.272 S 
ATOM     17  O   UNL d   1      33.217  20.862 -22.501  0.00  0.00    -0.200 OA
ATOM     18  O   UNL d   1      32.662  20.125 -21.148  0.00  0.00    -0.200 OA
BRANCH  16  19
ATOM     19  C   UNL d   1      32.896  21.244 -21.467  0.00  0.00     0.116 C 
BRANCH  19  20
ATOM     20  C   UNL d   1      32.209  21.478 -21.068  0.00  0.00     0.014 C 
ATOM     21  C   UNL d   1      32.160  22.237 -20.753  0.00  0.00     0.001 C 
ENDBRANCH  19  20
ENDBRANCH  16  19
ENDBRANCH   1  16
TORSDOF 6
ENDMDL
MODEL 3
REMARK VINA RESULT:      -1.7      1.347      4.191
REMARK  6 active torsions:
REMARK  status: ('A' for Active; 'I' for Inactive)
REMARK    1  A    between atoms: N_2  and  S_1 
REMARK    2  A    between atoms: C_16  and  S_1 
REMARK    3  A    between atoms: C_4  and  C_3 
REMARK       I    between atoms: N_6  and  C_4 
REMARK    4  A    between atoms: C_15  and  N_6 
REMARK    5  A    between atoms: C_9  and  C_15 
REMARK    6  A    between atoms: C_20  and  C_16 
ROOT
ATOM      1  N   UNL d   1      32.816  18.498 -22.910  0.00  0.00    -0.229 N 
ATOM      2  C   UNL d   1      32.031  17.711 -23.801  0.00  0.00     0.076 A 
ATOM      3  C   UNL d   1      32.213  18.436 -23.472  0.00  0.00     0.096 A 
ATOM      4  C   UNL d   1      33.235  17.835 -22.680  0.00  0.00     0.092 A 
ATOM      5  C   UNL d   1      32.449  17.043 -23.572  0.00  0.00     0.008 A 
ATOM      6  C   UNL d   1      33.052  17.105 -23.010  0.00  0.00     0.020 A 
ENDROOT
BRANCH   2   7
ATOM      7  C   UNL d   1      31.428  17.641 -24.364  0.00  0.00     0.281 C 
ATOM      8  N   UNL d   1      30.787  17.139 -24.234  0.00  0.00    -0.204 NA
ATOM      9  O   UNL d   1      31.476  18.084 -25.068  0.00  0.00    -0.265 OA
BRANCH   8  10
ATOM     10  C   UNL d   1      30.744  16.703 -23.537  0.00  0.00     0.127 C 
BRANCH  10  11
ATOM     11  C   UNL d   1      30.060  16.275 -23.362  0.00  0.00     0.119 A 
ATOM     12  O   UNL d   1      29.669  16.267 -22.635  0.00  0.00    -0.304 OA
ATOM     13  C   UNL d   1      29.014  15.769 -22.704  0.00  0.00     0.123 A 
ATOM     14  C   UNL d   1      29.004  15.471 -23.475  0.00  0.00     0.029 A 
ATOM     15  C   UNL d   1      29.652  15.788 -23.875  0.00  0.00     0.028 A 
ENDBRANCH  10  11
ENDBRANCH   8  10
ENDBRANCH   2   7
BRANCH   1  16
ATOM     16  S   UNL d   1      32.997  19.240 -22.579  0.00  0.00     0.272 S 
ATOM     17  O   UNL d   1      32.975  18.920 -21.837  0.00  0.00    -0.200 OA
ATOM     18  O   UNL d   1      33.018  19.562 -23.344  0.00  0.00    -0.200 OA
BRANCH  16  19
ATOM     19  C   UNL d   1      33.176  19.976 -22.242  0.00  0.00     0.116 C 
BRANCH  19  20
ATOM     20  C   UNL d   1      32.656  20.335 -21.708  0.00  0.00     0.014 C 
ATOM     21  C   UNL d   1      32.839  21.075 -21.397  0.00  0.00     0.001 C 
ENDBRANCH  19  20
ENDBRANCH  16  19
ENDBRANCH   1  16
TORSDOF 6
ENDMDL
MODEL 4
REMARK VINA RESULT:      -1.5      1.983      4.762
REMARK  6 active torsions:
REMARK  status: ('A' for Active; 'I' for Inactive)
REMARK    1  A    between atoms: N_2  and  S_1 
REMARK    2  A    between atoms: C_16  and  S_1 
REMARK    3  A    between atoms: C_4  and  C_3 
REMARK       I    between atoms: N_6  and  C_4 
REMARK    4  A    between atoms: C_15  and  N_6 
REMARK    5  A    between atoms: C_9  and  C_15 
REMARK    6  A    between atoms: C_20  and  C_16 
ROOT
ATOM      1  N   UNL d   1      32.749  20.929 -21.560  0.00  0.00    -0.229 N 
ATOM      2  C   UNL d   1      32.992  20.013 -22.625  0.00  0.00     0.076 A 
ATOM      3  C   UNL d   1      32.748  20.749 -22.368  0.00  0.00     0.096 A 
ATOM      4  C   UNL d   1      32.994  20.373 -21.014  0.00  0.00     0.092 A 
ATOM      5  C   UNL d   1      33.239  19.451 -22.079  0.00  0.00     0.008 A 
ATOM      6  C   UNL d   1      33.240  19.632 -21.271  0.00  0.00     0.020 A 
ENDROOT
BRANCH   2   7
ATOM      7  C   UNL d   1      32.994  19.825 -23.430  0.00  0.00     0.281 C 
ATOM      8  N   UNL d   1      32.756  19.079 -23.689  0.00  0.00    -0.204 NA
ATOM      9  O   UNL d   1      33.240  20.399 -23.981  0.00  0.00    -0.265 OA
BRANCH   8  10
ATOM     10  C   UNL d   1      32.514  18.514 -23.140  0.00  0.00     0.127 C 
BRANCH  10  11
ATOM     11  C   UNL d   1      32.243  17.779 -23.401  0.00  0.00     0.119 A 
ATOM     12  O   UNL d   1      31.547  17.644 -23.824  0.00  0.00    -0.304 OA
ATOM     13  C   UNL d   1      31.493  16.832 -23.970  0.00  0.00     0.123 A 
ATOM     14  C   UNL d   1      32.157  16.471 -23.636  0.00  0.00     0.029 A 
ATOM     15  C   UNL d   1      32.615  17.060 -23.287  0.00  0.00     0.028 A 
ENDBRANCH  10  11
ENDBRANCH   8  10
ENDBRANCH   2   7
BRANCH   1  16
ATOM     16  S   UNL d   1      32.500  21.681 -21.306  0.00  0.00     0.272 S 
ATOM     17  O   UNL d   1      33.238  21.979 -21.445  0.00  0.00    -0.200 OA
ATOM     18  O   UNL d   1      31.744  21.368 -21.165  0.00  0.00    -0.200 OA
BRANCH  16  19
ATOM     19  C   UNL d   1      32.259  22.433 -21.054  0.00  0.00     0.116 C 
BRANCH  19  20
ATOM     20  C   UNL d   1      32.385  22.679 -20.273  0.00  0.00     0.014 C 
ATOM     21  C   UNL d   1      32.336  23.479 -20.086  0.00  0.00     0.001 C 
ENDBRANCH  19  20
ENDBRANCH  16  19
ENDBRANCH   1  16
TORSDOF 6
ENDMDL
MODEL 5
REMARK VINA RESULT:      -1.1      1.776      2.869
REMARK  6 active torsions:
REMARK  status: ('A' for Active; 'I' for Inactive)
REMARK    1  A    between atoms: N_2  and  S_1 
REMARK    2  A    between atoms: C_16  and  S_1 
REMARK    3  A    between atoms: C_4  and  C_3 
REMARK       I    between atoms: N_6  and  C_4 
REMARK    4  A    between atoms: C_15  and  N_6 
REMARK    5  A    between atoms: C_9  and  C_15 
REMARK    6  A    between atoms: C_20  and  C_16 
ROOT
ATOM      1  N   UNL d   1      29.433  15.906 -23.307  0.00  0.00    -0.229 N 
ATOM      2  C   UNL d   1      30.750  15.883 -23.851  0.00  0.00     0.076 A 
ATOM      3  C   UNL d   1      29.952  16.036 -23.937  0.00  0.00     0.096 A 
ATOM      4  C   UNL d   1      29.714  15.624 -22.593  0.00  0.00     0.092 A 
ATOM      5  C   UNL d   1      31.035  15.598 -23.135  0.00  0.00     0.008 A 
ATOM      6  C   UNL d   1      30.516  15.469 -22.505  0.00  0.00     0.020 A 
ENDROOT
BRANCH   2   7
ATOM      7  C   UNL d   1      31.276  16.010 -24.476  0.00  0.00     0.281 C 
ATOM      8  N   UNL d   1      31.759  16.677 -24.492  0.00  0.00    -0.204 NA
ATOM      9  O   UNL d   1      31.314  15.453 -25.095  0.00  0.00    -0.265 OA
BRANCH   8  10
ATOM     10  C   UNL d   1      31.718  17.225 -23.878  0.00  0.00     0.127 C 
BRANCH  10  11
ATOM     11  C   UNL d   1      32.190  17.903 -23.901  0.00  0.00     0.119 A 
ATOM     12  O   UNL d   1      32.203  18.460 -24.510  0.00  0.00    -0.304 OA
ATOM     13  C   UNL d   1      32.752  19.044 -24.307  0.00  0.00     0.123 A 
ATOM     14  C   UNL d   1      33.074  18.844 -23.573  0.00  0.00     0.029 A 
ATOM     15  C   UNL d   1      32.723  18.139 -23.329  0.00  0.00     0.028 A 
ENDBRANCH  10  11
ENDBRANCH   8  10
ENDBRANCH   2   7
BRANCH   1  16
ATOM     16  S   UNL d   1      28.622  16.065 -23.402  0.00  0.00     0.272 S 
ATOM     17  O   UNL d   1      28.580  15.520 -23.997  0.00  0.00    -0.200 OA
ATOM     18  O   UNL d   1      28.672  16.623 -22.789  0.00  0.00    -0.200 OA
BRANCH  16  19
ATOM     19  C   UNL d   1      27.814  16.218 -23.503  0.00  0.00     0.116 C 
BRANCH  19  20
ATOM     20  C   UNL d   1      27.313  15.648 -23.834  0.00  0.00     0.014 C 
ATOM     21  C   UNL d   1      26.517  15.635 -23.625  0.00  0.00     0.001 C 
ENDBRANCH  19  20
ENDBRANCH  16  19
ENDBRANCH   1  16
TORSDOF 6
ENDMDL
MODEL 6
REMARK VINA RESULT:      -0.6      1.644      1.940
REMARK  6 active torsions:
REMARK  status: ('A' for Active; 'I' for Inactive)
REMARK    1  A    between atoms: N_2  and  S_1 
REMARK    2  A    between atoms: C_16  and  S_1 
REMARK    3  A    between atoms: C_4  and  C_3 
REMARK       I    between atoms: N_6  and  C_4 
REMARK    4  A    between atoms: C_15  and  N_6 
REMARK    5  A    between atoms: C_9  and  C_15 
REMARK    6  A    between atoms: C_20  and  C_16 
ROOT
ATOM      1  N   UNL d   1      31.705  18.020 -24.277  0.00  0.00    -0.229 N 
ATOM      2  C   UNL d   1      32.646  18.866 -23.621  0.00  0.00     0.076 A 
ATOM      3  C   UNL d   1      31.881  18.593 -23.707  0.00  0.00     0.096 A 
ATOM      4  C   UNL d   1      32.295  17.724 -24.759  0.00  0.00     0.092 A 
ATOM      5  C   UNL d   1      33.241  18.570 -24.104  0.00  0.00     0.008 A 
ATOM      6  C   UNL d   1      33.065  17.998 -24.674  0.00  0.00     0.020 A 
ENDROOT
BRANCH   2   7
ATOM      7  C   UNL d   1      32.831  19.438 -23.053  0.00  0.00     0.281 C 
ATOM      8  N   UNL d   1      33.092  20.187 -23.278  0.00  0.00    -0.204 NA
ATOM      9  O   UNL d   1      32.750  19.249 -22.246  0.00  0.00    -0.265 OA
BRANCH   8  10
ATOM     10  C   UNL d   1      33.170  20.368 -24.078  0.00  0.00     0.127 C 
BRANCH  10  11
ATOM     11  C   UNL d   1      33.177  21.158 -24.320  0.00  0.00     0.119 A 
ATOM     12  O   UNL d   1      33.241  21.814 -23.823  0.00  0.00    -0.304 OA
ATOM     13  C   UNL d   1      33.224  22.492 -24.295  0.00  0.00     0.123 A 
ATOM     14  C   UNL d   1      33.150  22.250 -25.082  0.00  0.00     0.029 A 
ATOM     15  C   UNL d   1      33.121  21.426 -25.089  0.00  0.00     0.028 A 
ENDBRANCH  10  11
ENDBRANCH   8  10
ENDBRANCH   2   7
BRANCH   1  16
ATOM     16  S   UNL d   1      30.923  17.747 -24.359  0.00  0.00     0.272 S 
ATOM     17  O   UNL d   1      30.763  18.346 -24.876  0.00  0.00    -0.200 OA
ATOM     18  O   UNL d   1      31.096  17.133 -23.826  0.00  0.00    -0.200 OA
BRANCH  16  19
ATOM     19  C   UNL d   1      30.143  17.480 -24.445  0.00  0.00     0.116 C 
BRANCH  19  20
ATOM     20  C   UNL d   1      29.824  16.926 -23.920  0.00  0.00     0.014 C 
ATOM     21  C   UNL d   1      29.007  16.849 -23.857  0.00  0.00     0.001 C 
ENDBRANCH  19  20
ENDBRANCH  16  19
ENDBRANCH   1  16
TORSDOF 6
ENDMDL
MODEL 7
REMARK VINA RESULT:       0.2      4.403      6.183
REMARK  6 active torsions:
REMARK  status: ('A' for Active; 'I' for Inactive)
REMARK    1  A    between atoms: N_2  and  S_1 
REMARK    2  A    between atoms: C_16  and  S_1 
REMARK    3  A    between atoms: C_4  and  C_3 
REMARK       I    between atoms: N_6  and  C_4 
REMARK    4  A    between atoms: C_15  and  N_6 
REMARK    5  A    between atoms: C_9  and  C_15 
REMARK    6  A    between atoms: C_20  and  C_16 
ROOT
ATOM      1  N   UNL d   1      32.449  22.404 -20.052  0.00  0.00    -0.229 N 
ATOM      2  C   UNL d   1      32.542  21.583 -21.213  0.00  0.00     0.076 A 
ATOM      3  C   UNL d   1      32.905  22.019 -20.625  0.00  0.00     0.096 A 
ATOM      4  C   UNL d   1      31.634  22.351 -20.070  0.00  0.00     0.092 A 
ATOM      5  C   UNL d   1      31.723  21.528 -21.234  0.00  0.00     0.008 A 
ATOM      6  C   UNL d   1      31.268  21.913 -20.661  0.00  0.00     0.020 A 
ENDROOT
BRANCH   2   7
ATOM      7  C   UNL d   1      32.990  21.195 -21.790  0.00  0.00     0.281 C 
ATOM      8  N   UNL d   1      33.235  21.590 -22.470  0.00  0.00    -0.204 NA
ATOM      9  O   UNL d   1      33.193  20.395 -21.676  0.00  0.00    -0.265 OA
BRANCH   8  10
ATOM     10  C   UNL d   1      33.031  22.381 -22.578  0.00  0.00     0.127 C 
BRANCH  10  11
ATOM     11  C   UNL d   1      32.994  22.695 -23.342  0.00  0.00     0.119 A 
ATOM     12  O   UNL d   1      32.709  23.444 -23.542  0.00  0.00    -0.304 OA
ATOM     13  C   UNL d   1      32.773  23.529 -24.361  0.00  0.00     0.123 A 
ATOM     14  C   UNL d   1      33.098  22.831 -24.662  0.00  0.00     0.029 A 
ATOM     15  C   UNL d   1      33.231  22.322 -24.028  0.00  0.00     0.028 A 
ENDBRANCH  10  11
ENDBRANCH   8  10
ENDBRANCH   2   7
BRANCH   1  16
ATOM     16  S   UNL d   1      32.825  22.847 -19.456  0.00  0.00     0.272 S 
ATOM     17  O   UNL d   1      32.500  23.526 -19.749  0.00  0.00    -0.200 OA
ATOM     18  O   UNL d   1      33.155  22.144 -19.160  0.00  0.00    -0.200 OA
BRANCH  16  19
ATOM     19  C   UNL d   1      33.196  23.294 -18.865  0.00  0.00     0.116 C 
BRANCH  19  20
ATOM     20  C   UNL d   1      33.105  23.100 -18.066  0.00  0.00     0.014 C 
ATOM     21  C   UNL d   1      33.178  23.687 -17.493  0.00  0.00     0.001 C 
ENDBRANCH  19  20
ENDBRANCH  16  19
ENDBRANCH   1  16
TORSDOF 6
ENDMDL
