MODEL 1
REMARK VINA RESULT:      -6.4      0.000      0.000
REMARK  7 active torsions:
REMARK  status: ('A' for Active; 'I' for Inactive)
REMARK    1  A    between atoms: C_6  and  N_1 
REMARK    2  A    between atoms: C_7  and  C_2 
REMARK    3  A    between atoms: C_11  and  C_6 
REMARK    4  A    between atoms: N_8  and  C_12 
REMARK    5  A    between atoms: C_9  and  N_8 
REMARK    6  A    between atoms: C_17  and  C_9 
REMARK    7  A    between atoms: C_12  and  C_11 
ROOT
ATOM      1  N   UNL d   1     -49.062  13.876  22.684  0.00  0.00    -0.301 N 
ATOM      2  C   UNL d   1     -50.001  14.555  23.344  0.00  0.00     0.061 A 
ATOM      3  C   UNL d   1     -49.264  14.619  22.989  0.00  0.00     0.084 A 
ATOM      4  C   UNL d   1     -49.685  13.355  22.858  0.00  0.00     0.064 A 
ATOM      5  C   UNL d   1     -50.269  13.778  23.269  0.00  0.00     0.021 A 
ATOM      6  C   UNL d   1     -49.796  12.552  22.696  0.00  0.00     0.018 A 
ATOM      7  C   UNL d   1     -50.953  13.401  23.513  0.00  0.00     0.002 A 
ATOM      8  C   UNL d   1     -51.064  12.603  23.352  0.00  0.00     0.000 A 
ATOM      9  C   UNL d   1     -50.487  12.184  22.946  0.00  0.00     0.002 A 
ENDROOT
BRANCH   1  10
ATOM     10  C   UNL d   1     -48.371  13.681  22.281  0.00  0.00     0.124 C 
BRANCH  10  11
ATOM     11  C   UNL d   1     -47.641  13.939  22.566  0.00  0.00     0.232 C 
ATOM     12  O   UNL d   1     -47.494  14.754  22.642  0.00  0.00    -0.283 OA
BRANCH  11  13
ATOM     13  C   UNL d   1     -47.052  13.393  22.778  0.00  0.00     0.137 C 
BRANCH  13  14
ATOM     14  N   UNL d   1     -46.288  13.470  22.484  0.00  0.00    -0.262 NA
BRANCH  14  15
ATOM     15  C   UNL d   1     -45.734  12.875  22.608  0.00  0.00     0.143 C 
ATOM     16  C   UNL d   1     -45.008  12.890  22.216  0.00  0.00     0.032 C 
ATOM     17  C   UNL d   1     -45.371  13.382  22.063  0.00  0.00     0.032 C 
BRANCH  15  18
ATOM     18  C   UNL d   1     -45.905  12.252  23.132  0.00  0.00     0.229 C 
ATOM     19  O   UNL d   1     -45.294  11.777  23.419  0.00  0.00    -0.286 OA
ENDBRANCH  15  18
ENDBRANCH  14  15
ENDBRANCH  13  14
ENDBRANCH  11  13
ENDBRANCH  10  11
ENDBRANCH   1  10
BRANCH   2  20
ATOM     20  C   UNL d   1     -50.341  15.217  23.697  0.00  0.00     0.236 C 
ATOM     21  O   UNL d   1     -50.422  15.922  23.275  0.00  0.00    -0.283 OA
ENDBRANCH   2  20
TORSDOF 7
ENDMDL
MODEL 2
REMARK VINA RESULT:      -6.2      1.518      2.175
REMARK  7 active torsions:
REMARK  status: ('A' for Active; 'I' for Inactive)
REMARK    1  A    between atoms: C_6  and  N_1 
REMARK    2  A    between atoms: C_7  and  C_2 
REMARK    3  A    between atoms: C_11  and  C_6 
REMARK    4  A    between atoms: N_8  and  C_12 
REMARK    5  A    between atoms: C_9  and  N_8 
REMARK    6  A    between atoms: C_17  and  C_9 
REMARK    7  A    between atoms: C_12  and  C_11 
ROOT
ATOM      1  N   UNL d   1     -47.704  13.511  22.727  0.00  0.00    -0.301 N 
ATOM      2  C   UNL d   1     -48.747  12.775  23.113  0.00  0.00     0.061 A 
ATOM      3  C   UNL d   1     -47.943  12.751  22.950  0.00  0.00     0.084 A 
ATOM      4  C   UNL d   1     -48.373  14.003  22.755  0.00  0.00     0.064 A 
ATOM      5  C   UNL d   1     -49.021  13.544  22.995  0.00  0.00     0.021 A 
ATOM      6  C   UNL d   1     -48.475  14.807  22.594  0.00  0.00     0.018 A 
ATOM      7  C   UNL d   1     -49.760  13.887  23.072  0.00  0.00     0.002 A 
ATOM      8  C   UNL d   1     -49.863  14.686  22.912  0.00  0.00     0.000 A 
ATOM      9  C   UNL d   1     -49.222  15.141  22.674  0.00  0.00     0.002 A 
ENDROOT
BRANCH   1  10
ATOM     10  C   UNL d   1     -46.943  13.746  22.514  0.00  0.00     0.124 C 
BRANCH  10  11
ATOM     11  C   UNL d   1     -46.290  13.414  22.892  0.00  0.00     0.232 C 
ATOM     12  O   UNL d   1     -46.156  13.572  23.697  0.00  0.00    -0.283 OA
BRANCH  11  13
ATOM     13  C   UNL d   1     -45.764  12.924  22.475  0.00  0.00     0.137 C 
BRANCH  13  14
ATOM     14  N   UNL d   1     -44.990  13.165  22.338  0.00  0.00    -0.262 NA
BRANCH  14  15
ATOM     15  C   UNL d   1     -44.410  12.613  22.151  0.00  0.00     0.143 C 
ATOM     16  C   UNL d   1     -43.884  12.752  21.530  0.00  0.00     0.032 C 
ATOM     17  C   UNL d   1     -44.294  13.225  21.605  0.00  0.00     0.032 C 
BRANCH  15  18
ATOM     18  C   UNL d   1     -44.352  11.909  22.589  0.00  0.00     0.229 C 
ATOM     19  O   UNL d   1     -43.643  11.485  22.594  0.00  0.00    -0.286 OA
ENDBRANCH  15  18
ENDBRANCH  14  15
ENDBRANCH  13  14
ENDBRANCH  11  13
ENDBRANCH  10  11
ENDBRANCH   1  10
BRANCH   2  20
ATOM     20  C   UNL d   1     -49.135  12.088  23.350  0.00  0.00     0.236 C 
ATOM     21  O   UNL d   1     -48.924  11.356  23.031  0.00  0.00    -0.283 OA
ENDBRANCH   2  20
TORSDOF 7
ENDMDL
MODEL 3
REMARK VINA RESULT:      -5.1      8.925     10.102
REMARK  7 active torsions:
REMARK  status: ('A' for Active; 'I' for Inactive)
REMARK    1  A    between atoms: C_6  and  N_1 
REMARK    2  A    between atoms: C_7  and  C_2 
REMARK    3  A    between atoms: C_11  and  C_6 
REMARK    4  A    between atoms: N_8  and  C_12 
REMARK    5  A    between atoms: C_9  and  N_8 
REMARK    6  A    between atoms: C_17  and  C_9 
REMARK    7  A    between atoms: C_12  and  C_11 
ROOT
ATOM      1  N   UNL d   1     -40.021  14.289  18.227  0.00  0.00    -0.301 N 
ATOM      2  C   UNL d   1     -40.414  15.021  17.184  0.00  0.00     0.061 A 
ATOM      3  C   UNL d   1     -40.597  14.819  17.958  0.00  0.00     0.084 A 
ATOM      4  C   UNL d   1     -39.481  14.169  17.608  0.00  0.00     0.064 A 
ATOM      5  C   UNL d   1     -39.726  14.625  16.959  0.00  0.00     0.021 A 
ATOM      6  C   UNL d   1     -38.799  13.704  17.551  0.00  0.00     0.018 A 
ATOM      7  C   UNL d   1     -39.294  14.615  16.264  0.00  0.00     0.002 A 
ATOM      8  C   UNL d   1     -38.616  14.153  16.207  0.00  0.00     0.000 A 
ATOM      9  C   UNL d   1     -38.373  13.702  16.848  0.00  0.00     0.002 A 
ENDROOT
BRANCH   1  10
ATOM     10  C   UNL d   1     -39.983  13.940  18.973  0.00  0.00     0.124 C 
BRANCH  10  11
ATOM     11  C   UNL d   1     -40.323  14.319  19.622  0.00  0.00     0.232 C 
ATOM     12  O   UNL d   1     -41.151  14.343  19.697  0.00  0.00    -0.283 OA
BRANCH  11  13
ATOM     13  C   UNL d   1     -39.846  14.676  20.202  0.00  0.00     0.137 C 
BRANCH  13  14
ATOM     14  N   UNL d   1     -39.806  14.360  20.960  0.00  0.00    -0.262 NA
BRANCH  14  15
ATOM     15  C   UNL d   1     -39.366  14.737  21.543  0.00  0.00     0.143 C 
ATOM     16  C   UNL d   1     -39.136  14.330  22.223  0.00  0.00     0.032 C 
ATOM     17  C   UNL d   1     -39.469  13.967  21.830  0.00  0.00     0.032 C 
BRANCH  15  18
ATOM     18  C   UNL d   1     -39.149  15.535  21.448  0.00  0.00     0.229 C 
ATOM     19  O   UNL d   1     -38.729  15.920  22.046  0.00  0.00    -0.286 OA
ENDBRANCH  15  18
ENDBRANCH  14  15
ENDBRANCH  13  14
ENDBRANCH  11  13
ENDBRANCH  10  11
ENDBRANCH   1  10
BRANCH   2  20
ATOM     20  C   UNL d   1     -40.899  15.546  16.774  0.00  0.00     0.236 C 
ATOM     21  O   UNL d   1     -41.706  15.392  16.690  0.00  0.00    -0.283 OA
ENDBRANCH   2  20
TORSDOF 7
ENDMDL
MODEL 4
REMARK VINA RESULT:      -5.0      8.425      9.950
REMARK  7 active torsions:
REMARK  status: ('A' for Active; 'I' for Inactive)
REMARK    1  A    between atoms: C_6  and  N_1 
REMARK    2  A    between atoms: C_7  and  C_2 
REMARK    3  A    between atoms: C_11  and  C_6 
REMARK    4  A    between atoms: N_8  and  C_12 
REMARK    5  A    between atoms: C_9  and  N_8 
REMARK    6  A    between atoms: C_17  and  C_9 
REMARK    7  A    between atoms: C_12  and  C_11 
ROOT
ATOM      1  N   UNL d   1     -39.798  14.475  19.883  0.00  0.00    -0.301 N 
ATOM      2  C   UNL d   1     -40.360  15.314  20.755  0.00  0.00     0.061 A 
ATOM      3  C   UNL d   1     -40.346  15.090  19.965  0.00  0.00     0.084 A 
ATOM      4  C   UNL d   1     -39.475  14.325  20.633  0.00  0.00     0.064 A 
ATOM      5  C   UNL d   1     -39.825  14.847  21.175  0.00  0.00     0.021 A 
ATOM      6  C   UNL d   1     -38.909  13.781  20.893  0.00  0.00     0.018 A 
ATOM      7  C   UNL d   1     -39.611  14.825  21.964  0.00  0.00     0.002 A 
ATOM      8  C   UNL d   1     -39.048  14.284  22.223  0.00  0.00     0.000 A 
ATOM      9  C   UNL d   1     -38.701  13.768  21.688  0.00  0.00     0.002 A 
ENDROOT
BRANCH   1  10
ATOM     10  C   UNL d   1     -39.603  14.080  19.187  0.00  0.00     0.124 C 
BRANCH  10  11
ATOM     11  C   UNL d   1     -39.996  14.262  18.486  0.00  0.00     0.232 C 
ATOM     12  O   UNL d   1     -40.793  14.044  18.391  0.00  0.00    -0.283 OA
BRANCH  11  13
ATOM     13  C   UNL d   1     -39.602  14.663  17.872  0.00  0.00     0.137 C 
BRANCH  13  14
ATOM     14  N   UNL d   1     -39.350  14.255  17.204  0.00  0.00    -0.262 NA
BRANCH  14  15
ATOM     15  C   UNL d   1     -38.970  14.654  16.594  0.00  0.00     0.143 C 
ATOM     16  C   UNL d   1     -38.504  14.242  16.052  0.00  0.00     0.032 C 
ATOM     17  C   UNL d   1     -38.757  13.861  16.485  0.00  0.00     0.032 C 
BRANCH  15  18
ATOM     18  C   UNL d   1     -39.055  15.478  16.522  0.00  0.00     0.229 C 
ATOM     19  O   UNL d   1     -38.775  15.862  15.846  0.00  0.00    -0.286 OA
ENDBRANCH  15  18
ENDBRANCH  14  15
ENDBRANCH  13  14
ENDBRANCH  11  13
ENDBRANCH  10  11
ENDBRANCH   1  10
BRANCH   2  20
ATOM     20  C   UNL d   1     -40.862  15.921  20.997  0.00  0.00     0.236 C 
ATOM     21  O   UNL d   1     -41.669  15.891  20.825  0.00  0.00    -0.283 OA
ENDBRANCH   2  20
TORSDOF 7
ENDMDL
MODEL 5
REMARK VINA RESULT:      -4.9      9.628     10.121
REMARK  7 active torsions:
REMARK  status: ('A' for Active; 'I' for Inactive)
REMARK    1  A    between atoms: C_6  and  N_1 
REMARK    2  A    between atoms: C_7  and  C_2 
REMARK    3  A    between atoms: C_11  and  C_6 
REMARK    4  A    between atoms: N_8  and  C_12 
REMARK    5  A    between atoms: C_9  and  N_8 
REMARK    6  A    between atoms: C_17  and  C_9 
REMARK    7  A    between atoms: C_12  and  C_11 
ROOT
ATOM      1  N   UNL d   1     -39.640  14.595  18.993  0.00  0.00    -0.301 N 
ATOM      2  C   UNL d   1     -39.434  13.961  17.838  0.00  0.00     0.061 A 
ATOM      3  C   UNL d   1     -39.235  13.969  18.634  0.00  0.00     0.084 A 
ATOM      4  C   UNL d   1     -40.092  14.971  18.406  0.00  0.00     0.064 A 
ATOM      5  C   UNL d   1     -39.963  14.576  17.688  0.00  0.00     0.021 A 
ATOM      6  C   UNL d   1     -40.602  15.622  18.433  0.00  0.00     0.018 A 
ATOM      7  C   UNL d   1     -40.340  14.830  17.007  0.00  0.00     0.002 A 
ATOM      8  C   UNL d   1     -40.848  15.476  17.033  0.00  0.00     0.000 A 
ATOM      9  C   UNL d   1     -40.975  15.867  17.743  0.00  0.00     0.002 A 
ENDROOT
BRANCH   1  10
ATOM     10  C   UNL d   1     -39.607  14.812  19.787  0.00  0.00     0.124 C 
BRANCH  10  11
ATOM     11  C   UNL d   1     -38.915  14.688  20.219  0.00  0.00     0.232 C 
ATOM     12  O   UNL d   1     -38.229  15.117  20.027  0.00  0.00    -0.283 OA
BRANCH  11  13
ATOM     13  C   UNL d   1     -38.898  14.140  20.843  0.00  0.00     0.137 C 
BRANCH  13  14
ATOM     14  N   UNL d   1     -38.772  14.394  21.616  0.00  0.00    -0.262 NA
BRANCH  14  15
ATOM     15  C   UNL d   1     -38.626  13.847  22.212  0.00  0.00     0.143 C 
ATOM     16  C   UNL d   1     -38.826  14.018  22.994  0.00  0.00     0.032 C 
ATOM     17  C   UNL d   1     -38.972  14.490  22.603  0.00  0.00     0.032 C 
BRANCH  15  18
ATOM     18  C   UNL d   1     -38.275  13.116  22.028  0.00  0.00     0.229 C 
ATOM     19  O   UNL d   1     -37.940  12.658  22.628  0.00  0.00    -0.286 OA
ENDBRANCH  15  18
ENDBRANCH  14  15
ENDBRANCH  13  14
ENDBRANCH  11  13
ENDBRANCH  10  11
ENDBRANCH   1  10
BRANCH   2  20
ATOM     20  C   UNL d   1     -39.108  13.390  17.342  0.00  0.00     0.236 C 
ATOM     21  O   UNL d   1     -39.040  12.606  17.593  0.00  0.00    -0.283 OA
ENDBRANCH   2  20
TORSDOF 7
ENDMDL
MODEL 6
REMARK VINA RESULT:      -4.7      1.342      4.198
REMARK  7 active torsions:
REMARK  status: ('A' for Active; 'I' for Inactive)
REMARK    1  A    between atoms: C_6  and  N_1 
REMARK    2  A    between atoms: C_7  and  C_2 
REMARK    3  A    between atoms: C_11  and  C_6 
REMARK    4  A    between atoms: N_8  and  C_12 
REMARK    5  A    between atoms: C_9  and  N_8 
REMARK    6  A    between atoms: C_17  and  C_9 
REMARK    7  A    between atoms: C_12  and  C_11 
ROOT
ATOM      1  N   UNL d   1     -47.074  13.334  23.055  0.00  0.00    -0.301 N 
ATOM      2  C   UNL d   1     -45.902  13.173  22.439  0.00  0.00     0.061 A 
ATOM      3  C   UNL d   1     -46.510  13.707  22.578  0.00  0.00     0.084 A 
ATOM      4  C   UNL d   1     -46.804  12.564  23.207  0.00  0.00     0.064 A 
ATOM      5  C   UNL d   1     -46.075  12.464  22.824  0.00  0.00     0.021 A 
ATOM      6  C   UNL d   1     -47.128  11.941  23.645  0.00  0.00     0.018 A 
ATOM      7  C   UNL d   1     -45.677  11.752  22.878  0.00  0.00     0.002 A 
ATOM      8  C   UNL d   1     -45.998  11.132  23.313  0.00  0.00     0.000 A 
ATOM      9  C   UNL d   1     -46.719  11.230  23.692  0.00  0.00     0.002 A 
ENDROOT
BRANCH   1  10
ATOM     10  C   UNL d   1     -47.778  13.661  23.333  0.00  0.00     0.124 C 
BRANCH  10  11
ATOM     11  C   UNL d   1     -48.283  14.053  22.812  0.00  0.00     0.232 C 
ATOM     12  O   UNL d   1     -48.092  14.819  22.551  0.00  0.00    -0.283 OA
BRANCH  11  13
ATOM     13  C   UNL d   1     -48.981  13.689  22.545  0.00  0.00     0.137 C 
BRANCH  13  14
ATOM     14  N   UNL d   1     -49.565  14.131  22.172  0.00  0.00    -0.262 NA
BRANCH  14  15
ATOM     15  C   UNL d   1     -50.270  13.777  21.940  0.00  0.00     0.143 C 
ATOM     16  C   UNL d   1     -50.962  14.221  21.879  0.00  0.00     0.032 C 
ATOM     17  C   UNL d   1     -50.470  14.571  22.062  0.00  0.00     0.032 C 
BRANCH  15  18
ATOM     18  C   UNL d   1     -50.286  12.964  21.766  0.00  0.00     0.229 C 
ATOM     19  O   UNL d   1     -50.142  12.706  20.994  0.00  0.00    -0.286 OA
ENDBRANCH  15  18
ENDBRANCH  14  15
ENDBRANCH  13  14
ENDBRANCH  11  13
ENDBRANCH  10  11
ENDBRANCH   1  10
BRANCH   2  20
ATOM     20  C   UNL d   1     -45.260  13.399  21.975  0.00  0.00     0.236 C 
ATOM     21  O   UNL d   1     -44.667  13.883  22.287  0.00  0.00    -0.283 OA
ENDBRANCH   2  20
TORSDOF 7
ENDMDL
MODEL 7
REMARK VINA RESULT:      -4.3      8.607     10.235
REMARK  7 active torsions:
REMARK  status: ('A' for Active; 'I' for Inactive)
REMARK    1  A    between atoms: C_6  and  N_1 
REMARK    2  A    between atoms: C_7  and  C_2 
REMARK    3  A    between atoms: C_11  and  C_6 
REMARK    4  A    between atoms: N_8  and  C_12 
REMARK    5  A    between atoms: C_9  and  N_8 
REMARK    6  A    between atoms: C_17  and  C_9 
REMARK    7  A    between atoms: C_12  and  C_11 
ROOT
ATOM      1  N   UNL d   1     -39.907  14.605  19.445  0.00  0.00    -0.301 N 
ATOM      2  C   UNL d   1     -39.294  14.350  20.601  0.00  0.00     0.061 A 
ATOM      3  C   UNL d   1     -39.291  14.179  19.799  0.00  0.00     0.084 A 
ATOM      4  C   UNL d   1     -40.287  15.039  20.041  0.00  0.00     0.064 A 
ATOM      5  C   UNL d   1     -39.905  14.880  20.761  0.00  0.00     0.021 A 
ATOM      6  C   UNL d   1     -40.931  15.558  20.023  0.00  0.00     0.018 A 
ATOM      7  C   UNL d   1     -40.165  15.236  21.450  0.00  0.00     0.002 A 
ATOM      8  C   UNL d   1     -40.804  15.752  21.433  0.00  0.00     0.000 A 
ATOM      9  C   UNL d   1     -41.182  15.910  20.721  0.00  0.00     0.002 A 
ENDROOT
BRANCH   1  10
ATOM     10  C   UNL d   1     -40.111  14.603  18.646  0.00  0.00     0.124 C 
BRANCH  10  11
ATOM     11  C   UNL d   1     -39.731  14.088  18.126  0.00  0.00     0.232 C 
ATOM     12  O   UNL d   1     -39.967  13.291  18.089  0.00  0.00    -0.283 OA
BRANCH  11  13
ATOM     13  C   UNL d   1     -39.116  14.359  17.637  0.00  0.00     0.137 C 
BRANCH  13  14
ATOM     14  N   UNL d   1     -39.129  14.209  16.829  0.00  0.00    -0.262 NA
BRANCH  14  15
ATOM     15  C   UNL d   1     -38.613  14.603  16.325  0.00  0.00     0.143 C 
ATOM     16  C   UNL d   1     -38.162  14.184  15.776  0.00  0.00     0.032 C 
ATOM     17  C   UNL d   1     -38.530  13.805  16.120  0.00  0.00     0.032 C 
BRANCH  15  18
ATOM     18  C   UNL d   1     -38.543  15.431  16.369  0.00  0.00     0.229 C 
ATOM     19  O   UNL d   1     -38.763  15.896  15.722  0.00  0.00    -0.286 OA
ENDBRANCH  15  18
ENDBRANCH  14  15
ENDBRANCH  13  14
ENDBRANCH  11  13
ENDBRANCH  10  11
ENDBRANCH   1  10
BRANCH   2  20
ATOM     20  C   UNL d   1     -38.734  13.999  21.094  0.00  0.00     0.236 C 
ATOM     21  O   UNL d   1     -38.256  13.386  20.815  0.00  0.00    -0.283 OA
ENDBRANCH   2  20
TORSDOF 7
ENDMDL
MODEL 8
REMARK VINA RESULT:      -4.1      7.914      9.703
REMARK  7 active torsions:
REMARK  status: ('A' for Active; 'I' for Inactive)
REMARK    1  A    between atoms: C_6  and  N_1 
REMARK    2  A    between atoms: C_7  and  C_2 
REMARK    3  A    between atoms: C_11  and  C_6 
REMARK    4  A    between atoms: N_8  and  C_12 
REMARK    5  A    between atoms: C_9  and  N_8 
REMARK    6  A    between atoms: C_17  and  C_9 
REMARK    7  A    between atoms: C_12  and  C_11 
ROOT
ATOM      1  N   UNL d   1     -39.964  15.121  20.057  0.00  0.00    -0.301 N 
ATOM      2  C   UNL d   1     -40.485  14.412  21.059  0.00  0.00     0.061 A 
ATOM      3  C   UNL d   1     -40.537  14.557  20.253  0.00  0.00     0.084 A 
ATOM      4  C   UNL d   1     -39.559  15.321  20.754  0.00  0.00     0.064 A 
ATOM      5  C   UNL d   1     -39.884  14.879  21.377  0.00  0.00     0.021 A 
ATOM      6  C   UNL d   1     -38.937  15.846  20.902  0.00  0.00     0.018 A 
ATOM      7  C   UNL d   1     -39.590  14.963  22.136  0.00  0.00     0.002 A 
ATOM      8  C   UNL d   1     -38.972  15.485  22.284  0.00  0.00     0.000 A 
ATOM      9  C   UNL d   1     -38.650  15.922  21.668  0.00  0.00     0.002 A 
ENDROOT
BRANCH   1  10
ATOM     10  C   UNL d   1     -39.816  15.433  19.309  0.00  0.00     0.124 C 
BRANCH  10  11
ATOM     11  C   UNL d   1     -39.950  14.974  18.638  0.00  0.00     0.232 C 
ATOM     12  O   UNL d   1     -39.554  14.248  18.549  0.00  0.00    -0.283 OA
BRANCH  11  13
ATOM     13  C   UNL d   1     -40.478  15.229  18.049  0.00  0.00     0.137 C 
BRANCH  13  14
ATOM     14  N   UNL d   1     -40.215  15.355  17.280  0.00  0.00    -0.262 NA
BRANCH  14  15
ATOM     15  C   UNL d   1     -40.726  15.659  16.712  0.00  0.00     0.143 C 
ATOM     16  C   UNL d   1     -40.435  15.922  15.986  0.00  0.00     0.032 C 
ATOM     17  C   UNL d   1     -39.977  15.705  16.361  0.00  0.00     0.032 C 
BRANCH  15  18
ATOM     18  C   UNL d   1     -41.541  15.703  16.868  0.00  0.00     0.229 C 
ATOM     19  O   UNL d   1     -42.068  15.883  16.258  0.00  0.00    -0.286 OA
ENDBRANCH  15  18
ENDBRANCH  14  15
ENDBRANCH  13  14
ENDBRANCH  11  13
ENDBRANCH  10  11
ENDBRANCH   1  10
BRANCH   2  20
ATOM     20  C   UNL d   1     -40.996  13.868  21.409  0.00  0.00     0.236 C 
ATOM     21  O   UNL d   1     -41.806  13.896  21.256  0.00  0.00    -0.283 OA
ENDBRANCH   2  20
TORSDOF 7
ENDMDL
