MODEL 1
REMARK VINA RESULT:      -8.8      0.000      0.000
REMARK  5 active torsions:
REMARK  status: ('A' for Active; 'I' for Inactive)
REMARK    1  A    between atoms: C_4  and  N_1 
REMARK    2  A    between atoms: C_8  and  C_2 
REMARK    3  A    between atoms: C_13  and  C_6 
REMARK    4  A    between atoms: C_7  and  C_8 
REMARK    5  A    between atoms: O_24  and  C_22 
ROOT
ATOM      1  N   UNL d   1     -47.914  12.000  23.111  0.00  0.00    -0.255 N 
ATOM      2  C   UNL d   1     -46.745  12.657  23.141  0.00  0.00     0.101 A 
ATOM      3  C   UNL d   1     -47.339  11.489  23.414  0.00  0.00     0.305 A 
ATOM      4  C   UNL d   1     -46.624  11.891  23.432  0.00  0.00     0.256 A 
ATOM      5  C   UNL d   1     -47.544  12.724  22.943  0.00  0.00     0.075 A 
ATOM      6  O   UNL d   1     -47.465  10.709  23.655  0.00  0.00    -0.263 OA
ATOM      7  O   UNL d   1     -45.900  11.583  23.697  0.00  0.00    -0.281 OA
ENDROOT
BRANCH   2   8
ATOM      8  C   UNL d   1     -46.172  13.246  23.064  0.00  0.00     0.223 C 
ATOM      9  O   UNL d   1     -46.293  13.980  23.418  0.00  0.00    -0.284 OA
BRANCH   8  10
ATOM     10  C   UNL d   1     -45.485  13.100  22.636  0.00  0.00     0.139 A 
ATOM     11  O   UNL d   1     -45.018  12.424  22.689  0.00  0.00    -0.304 OA
ATOM     12  C   UNL d   1     -44.382  12.510  22.161  0.00  0.00     0.100 A 
ATOM     13  C   UNL d   1     -43.748  12.020  21.978  0.00  0.00     0.025 A 
ATOM     14  C   UNL d   1     -44.469  13.240  21.790  0.00  0.00     0.025 A 
ATOM     15  C   UNL d   1     -43.195  12.257  21.421  0.00  0.00     0.002 A 
ATOM     16  C   UNL d   1     -43.274  12.992  21.041  0.00  0.00     0.000 A 
ATOM     17  C   UNL d   1     -43.908  13.479  21.226  0.00  0.00     0.002 A 
ATOM     18  C   UNL d   1     -45.144  13.604  22.079  0.00  0.00     0.030 A 
ENDBRANCH   8  10
ENDBRANCH   2   8
BRANCH   5  19
ATOM     19  C   UNL d   1     -47.915  13.394  22.631  0.00  0.00     0.018 A 
ATOM     20  C   UNL d   1     -48.214  13.967  23.131  0.00  0.00     0.026 A 
ATOM     21  C   UNL d   1     -48.583  14.635  22.822  0.00  0.00     0.094 A 
ATOM     22  C   UNL d   1     -48.650  14.724  21.999  0.00  0.00     0.024 A 
ATOM     23  C   UNL d   1     -48.343  14.137  21.499  0.00  0.00     0.002 A 
ATOM     24  C   UNL d   1     -47.978  13.476  21.812  0.00  0.00     0.002 A 
BRANCH  21  25
ATOM     25  O   UNL d   1     -48.886  15.215  23.328  0.00  0.00    -0.328 OA
ATOM     26  C   UNL d   1     -49.700  15.308  23.411  0.00  0.00     0.181 C 
ENDBRANCH  21  25
ENDBRANCH   5  19
BRANCH   1  27
ATOM     27  C   UNL d   1     -48.717  11.821  22.997  0.00  0.00     0.179 A 
ATOM     28  N   UNL d   1     -49.063  11.591  22.282  0.00  0.00    -0.108 NA
ATOM     29  O   UNL d   1     -49.865  11.471  22.424  0.00  0.00    -0.210 OA
ATOM     30  C   UNL d   1     -50.016  11.624  23.214  0.00  0.00     0.128 A 
ATOM     31  C   UNL d   1     -49.307  11.842  23.577  0.00  0.00     0.067 A 
ATOM     32  C   UNL d   1     -50.754  11.570  23.592  0.00  0.00     0.029 C 
ENDBRANCH   1  27
TORSDOF 5
ENDMDL
MODEL 2
REMARK VINA RESULT:      -8.8      1.099      2.471
REMARK  5 active torsions:
REMARK  status: ('A' for Active; 'I' for Inactive)
REMARK    1  A    between atoms: C_4  and  N_1 
REMARK    2  A    between atoms: C_8  and  C_2 
REMARK    3  A    between atoms: C_13  and  C_6 
REMARK    4  A    between atoms: C_7  and  C_8 
REMARK    5  A    between atoms: O_24  and  C_22 
ROOT
ATOM      1  N   UNL d   1     -47.931  14.301  22.722  0.00  0.00    -0.255 N 
ATOM      2  C   UNL d   1     -46.884  13.522  23.026  0.00  0.00     0.101 A 
ATOM      3  C   UNL d   1     -47.298  14.790  22.931  0.00  0.00     0.305 A 
ATOM      4  C   UNL d   1     -46.657  14.313  23.117  0.00  0.00     0.256 A 
ATOM      5  C   UNL d   1     -47.673  13.515  22.781  0.00  0.00     0.075 A 
ATOM      6  O   UNL d   1     -47.311  15.615  22.948  0.00  0.00    -0.263 OA
ATOM      7  O   UNL d   1     -45.907  14.577  23.356  0.00  0.00    -0.281 OA
ENDROOT
BRANCH   2   8
ATOM      8  C   UNL d   1     -46.407  12.859  23.156  0.00  0.00     0.223 C 
ATOM      9  O   UNL d   1     -46.646  12.287  23.698  0.00  0.00    -0.284 OA
BRANCH   8  10
ATOM     10  C   UNL d   1     -45.699  12.773  22.746  0.00  0.00     0.139 A 
ATOM     11  O   UNL d   1     -45.479  13.190  22.071  0.00  0.00    -0.304 OA
ATOM     12  C   UNL d   1     -44.724  12.928  21.843  0.00  0.00     0.100 A 
ATOM     13  C   UNL d   1     -44.232  13.141  21.221  0.00  0.00     0.025 A 
ATOM     14  C   UNL d   1     -44.492  12.352  22.384  0.00  0.00     0.025 A 
ATOM     15  C   UNL d   1     -43.501  12.779  21.134  0.00  0.00     0.002 A 
ATOM     16  C   UNL d   1     -43.257  12.197  21.675  0.00  0.00     0.000 A 
ATOM     17  C   UNL d   1     -43.751  11.986  22.295  0.00  0.00     0.002 A 
ATOM     18  C   UNL d   1     -45.087  12.255  22.938  0.00  0.00     0.030 A 
ENDBRANCH   8  10
ENDBRANCH   2   8
BRANCH   5  19
ATOM     19  C   UNL d   1     -48.128  12.844  22.623  0.00  0.00     0.018 A 
ATOM     20  C   UNL d   1     -48.535  12.472  23.227  0.00  0.00     0.026 A 
ATOM     21  C   UNL d   1     -48.989  11.804  23.071  0.00  0.00     0.094 A 
ATOM     22  C   UNL d   1     -49.033  11.508  22.296  0.00  0.00     0.024 A 
ATOM     23  C   UNL d   1     -48.617  11.891  21.689  0.00  0.00     0.002 A 
ATOM     24  C   UNL d   1     -48.168  12.555  21.851  0.00  0.00     0.002 A 
BRANCH  21  25
ATOM     25  O   UNL d   1     -49.400  11.428  23.682  0.00  0.00    -0.328 OA
ATOM     26  C   UNL d   1     -50.223  11.404  23.675  0.00  0.00     0.181 C 
ENDBRANCH  21  25
ENDBRANCH   5  19
BRANCH   1  27
ATOM     27  C   UNL d   1     -48.689  14.552  22.494  0.00  0.00     0.179 A 
ATOM     28  N   UNL d   1     -48.964  14.611  21.717  0.00  0.00    -0.108 NA
ATOM     29  O   UNL d   1     -49.741  14.881  21.750  0.00  0.00    -0.210 OA
ATOM     30  C   UNL d   1     -49.947  14.989  22.535  0.00  0.00     0.128 A 
ATOM     31  C   UNL d   1     -49.298  14.787  23.004  0.00  0.00     0.067 A 
ATOM     32  C   UNL d   1     -50.681  15.256  22.818  0.00  0.00     0.029 C 
ENDBRANCH   1  27
TORSDOF 5
ENDMDL
MODEL 3
REMARK VINA RESULT:      -8.3      7.826      9.268
REMARK  5 active torsions:
REMARK  status: ('A' for Active; 'I' for Inactive)
REMARK    1  A    between atoms: C_4  and  N_1 
REMARK    2  A    between atoms: C_8  and  C_2 
REMARK    3  A    between atoms: C_13  and  C_6 
REMARK    4  A    between atoms: C_7  and  C_8 
REMARK    5  A    between atoms: O_24  and  C_22 
ROOT
ATOM      1  N   UNL d   1     -40.384  15.392  19.052  0.00  0.00    -0.255 N 
ATOM      2  C   UNL d   1     -39.402  15.454  19.962  0.00  0.00     0.101 A 
ATOM      3  C   UNL d   1     -40.714  15.631  19.772  0.00  0.00     0.305 A 
ATOM      4  C   UNL d   1     -40.112  15.669  20.328  0.00  0.00     0.256 A 
ATOM      5  C   UNL d   1     -39.570  15.282  19.172  0.00  0.00     0.075 A 
ATOM      6  O   UNL d   1     -41.511  15.802  19.904  0.00  0.00    -0.263 OA
ATOM      7  O   UNL d   1     -40.201  15.887  21.124  0.00  0.00    -0.281 OA
ENDROOT
BRANCH   2   8
ATOM      8  C   UNL d   1     -38.659  15.417  20.322  0.00  0.00     0.223 C 
ATOM      9  O   UNL d   1     -38.057  15.916  20.063  0.00  0.00    -0.284 OA
BRANCH   8  10
ATOM     10  C   UNL d   1     -38.522  14.886  20.935  0.00  0.00     0.139 A 
ATOM     11  O   UNL d   1     -38.560  14.065  20.878  0.00  0.00    -0.304 OA
ATOM     12  C   UNL d   1     -38.384  13.749  21.626  0.00  0.00     0.100 A 
ATOM     13  C   UNL d   1     -38.339  12.976  21.901  0.00  0.00     0.025 A 
ATOM     14  C   UNL d   1     -38.240  14.383  22.132  0.00  0.00     0.025 A 
ATOM     15  C   UNL d   1     -38.148  12.830  22.685  0.00  0.00     0.002 A 
ATOM     16  C   UNL d   1     -38.002  13.463  23.203  0.00  0.00     0.000 A 
ATOM     17  C   UNL d   1     -38.048  14.233  22.926  0.00  0.00     0.002 A 
ATOM     18  C   UNL d   1     -38.324  15.080  21.711  0.00  0.00     0.030 A 
ENDBRANCH   8  10
ENDBRANCH   2   8
BRANCH   5  19
ATOM     19  C   UNL d   1     -39.026  15.043  18.598  0.00  0.00     0.018 A 
ATOM     20  C   UNL d   1     -38.920  14.247  18.440  0.00  0.00     0.026 A 
ATOM     21  C   UNL d   1     -38.379  14.007  17.868  0.00  0.00     0.094 A 
ATOM     22  C   UNL d   1     -37.940  14.576  17.453  0.00  0.00     0.024 A 
ATOM     23  C   UNL d   1     -38.053  15.381  17.620  0.00  0.00     0.002 A 
ATOM     24  C   UNL d   1     -38.593  15.613  18.189  0.00  0.00     0.002 A 
BRANCH  21  25
ATOM     25  O   UNL d   1     -38.272  13.203  17.709  0.00  0.00    -0.328 OA
ATOM     26  C   UNL d   1     -38.020  12.958  16.964  0.00  0.00     0.181 C 
ENDBRANCH  21  25
ENDBRANCH   5  19
BRANCH   1  27
ATOM     27  C   UNL d   1     -40.794  15.281  18.339  0.00  0.00     0.179 A 
ATOM     28  N   UNL d   1     -41.201  14.597  18.118  0.00  0.00    -0.108 NA
ATOM     29  O   UNL d   1     -41.522  14.731  17.371  0.00  0.00    -0.210 OA
ATOM     30  C   UNL d   1     -41.319  15.487  17.131  0.00  0.00     0.128 A 
ATOM     31  C   UNL d   1     -40.866  15.835  17.728  0.00  0.00     0.067 A 
ATOM     32  C   UNL d   1     -41.528  15.847  16.413  0.00  0.00     0.029 C 
ENDBRANCH   1  27
TORSDOF 5
ENDMDL
