MODEL 1
REMARK VINA RESULT:      13.2      0.000      0.000
REMARK  3 active torsions:
REMARK  status: ('A' for Active; 'I' for Inactive)
REMARK    1  A    between atoms: C_9  and  C_5 
REMARK    2  A    between atoms: C_10  and  C_6 
REMARK    3  A    between atoms: O_16  and  C_13 
ROOT
ATOM      1  N   UNL d   1      46.248 -18.027  43.828  0.00  0.00    -0.205 N 
ATOM      2  C   UNL d   1      46.238 -18.081  44.652  0.00  0.00     0.197 A 
ATOM      3  N   UNL d   1      46.046 -17.332  44.955  0.00  0.00    -0.200 NA
ATOM      4  N   UNL d   1      46.063 -17.250  43.621  0.00  0.00    -0.144 NA
ATOM      5  C   UNL d   1      45.939 -16.822  44.313  0.00  0.00     0.184 A 
ATOM      6  C   UNL d   1      46.439 -18.773  43.519  0.00  0.00     0.092 A 
ATOM      7  S   UNL d   1      46.425 -18.867  44.856  0.00  0.00    -0.046 SA
ATOM      8  C   UNL d   1      46.548 -19.290  44.151  0.00  0.00     0.058 A 
ENDROOT
BRANCH   5   9
ATOM      9  C   UNL d   1      45.744 -16.030  44.365  0.00  0.00     0.038 A 
ATOM     10  C   UNL d   1      46.137 -15.477  43.902  0.00  0.00     0.005 A 
ATOM     11  C   UNL d   1      45.942 -14.677  43.953  0.00  0.00     0.024 A 
ATOM     12  C   UNL d   1      45.352 -14.431  44.466  0.00  0.00     0.094 A 
ATOM     13  C   UNL d   1      44.950 -14.985  44.937  0.00  0.00     0.024 A 
ATOM     14  C   UNL d   1      45.149 -15.782  44.883  0.00  0.00     0.005 A 
BRANCH  12  15
ATOM     15  O   UNL d   1      45.157 -13.630  44.516  0.00  0.00    -0.328 OA
ATOM     16  C   UNL d   1      45.758 -13.063  44.602  0.00  0.00     0.181 C 
ENDBRANCH  12  15
ENDBRANCH   5   9
BRANCH   6  17
ATOM     17  C   UNL d   1      46.507 -18.958  42.714  0.00  0.00     0.018 A 
ATOM     18  C   UNL d   1      46.551 -18.360  42.148  0.00  0.00     0.002 A 
ATOM     19  C   UNL d   1      46.618 -18.547  41.349  0.00  0.00     0.000 A 
ATOM     20  C   UNL d   1      46.642 -19.342  41.107  0.00  0.00     0.000 A 
ATOM     21  C   UNL d   1      46.597 -19.939  41.671  0.00  0.00     0.000 A 
ATOM     22  C   UNL d   1      46.530 -19.757  42.473  0.00  0.00     0.002 A 
ENDBRANCH   6  17
TORSDOF 3
ENDMDL
