MODEL 1
REMARK VINA RESULT:     -10.7      0.000      0.000
REMARK  3 active torsions:
REMARK  status: ('A' for Active; 'I' for Inactive)
REMARK    1  A    between atoms: C_9  and  C_2 
REMARK    2  A    between atoms: C_10  and  C_6 
REMARK    3  A    between atoms: O_18  and  C_9 
ROOT
ATOM      1  C   UNL d   1      53.173  32.159  53.561  0.00  0.00     0.044 A 
ATOM      2  C   UNL d   1      53.202  30.813  53.497  0.00  0.00     0.113 A 
ATOM      3  C   UNL d   1      53.559  31.472  53.841  0.00  0.00     0.116 A 
ATOM      4  C   UNL d   1      52.572  31.915  53.039  0.00  0.00     0.112 A 
ATOM      5  S   UNL d   1      52.591  31.081  53.000  0.00  0.00    -0.061 SA
ATOM      6  C   UNL d   1      53.285  32.957  53.707  0.00  0.00     0.011 A 
ATOM      7  N   UNL d   1      52.101  32.470  52.678  0.00  0.00    -0.239 NA
ATOM      8  C   UNL d   1      52.807  33.510  53.341  0.00  0.00     0.018 A 
ATOM      9  C   UNL d   1      52.217  33.271  52.829  0.00  0.00     0.082 A 
ATOM     10  N   UNL d   1      54.190  31.459  54.372  0.00  0.00    -0.147 N 
ATOM     11  C   UNL d   1      52.930  34.313  53.497  0.00  0.00     0.002 A 
ATOM     12  C   UNL d   1      51.739  33.831  52.462  0.00  0.00     0.019 A 
ATOM     13  C   UNL d   1      52.446  34.866  53.126  0.00  0.00     0.000 A 
ATOM     14  C   UNL d   1      51.851  34.625  52.608  0.00  0.00     0.002 A 
ENDROOT
BRANCH   6  15
ATOM     15  C   UNL d   1      53.882  33.190  54.225  0.00  0.00     0.030 A 
ATOM     16  S   UNL d   1      53.809  33.315  55.039  0.00  0.00    -0.086 SA
ATOM     17  C   UNL d   1      54.551  33.541  55.324  0.00  0.00     0.035 A 
ATOM     18  C   UNL d   1      55.081  33.557  54.693  0.00  0.00     0.007 A 
ATOM     19  C   UNL d   1      54.667  33.339  54.013  0.00  0.00     0.007 A 
ENDBRANCH   6  15
BRANCH   2  20
ATOM     20  C   UNL d   1      53.412  30.025  53.623  0.00  0.00     0.303 C 
ATOM     21  O   UNL d   1      54.070  29.708  53.244  0.00  0.00    -0.259 OA
BRANCH  20  22
ATOM     22  O   UNL d   1      52.961  29.561  54.126  0.00  0.00    -0.295 OA
ATOM     23  C   UNL d   1      53.241  28.820  54.358  0.00  0.00     0.185 C 
ENDBRANCH  20  22
ENDBRANCH   2  20
TORSDOF 3
ENDMDL
MODEL 2
REMARK VINA RESULT:     -10.2      1.922      3.356
REMARK  3 active torsions:
REMARK  status: ('A' for Active; 'I' for Inactive)
REMARK    1  A    between atoms: C_9  and  C_2 
REMARK    2  A    between atoms: C_10  and  C_6 
REMARK    3  A    between atoms: O_18  and  C_9 
ROOT
ATOM      1  C   UNL d   1      52.646  32.615  53.363  0.00  0.00     0.044 A 
ATOM      2  C   UNL d   1      51.722  33.515  52.973  0.00  0.00     0.113 A 
ATOM      3  C   UNL d   1      52.425  33.420  53.395  0.00  0.00     0.116 A 
ATOM      4  C   UNL d   1      52.071  32.212  52.915  0.00  0.00     0.112 A 
ATOM      5  S   UNL d   1      51.499  32.772  52.674  0.00  0.00    -0.061 SA
ATOM      6  C   UNL d   1      53.280  32.200  53.674  0.00  0.00     0.011 A 
ATOM      7  N   UNL d   1      52.142  31.413  52.790  0.00  0.00    -0.239 NA
ATOM      8  C   UNL d   1      53.346  31.396  53.544  0.00  0.00     0.018 A 
ATOM      9  C   UNL d   1      52.782  31.001  53.105  0.00  0.00     0.082 A 
ATOM     10  N   UNL d   1      52.840  34.017  53.784  0.00  0.00    -0.147 N 
ATOM     11  C   UNL d   1      53.991  30.989  53.864  0.00  0.00     0.002 A 
ATOM     12  C   UNL d   1      52.852  30.192  52.976  0.00  0.00     0.019 A 
ATOM     13  C   UNL d   1      54.053  30.179  53.730  0.00  0.00     0.000 A 
ATOM     14  C   UNL d   1      53.483  29.780  53.286  0.00  0.00     0.002 A 
ENDROOT
BRANCH   6  15
ATOM     15  C   UNL d   1      53.845  32.605  54.116  0.00  0.00     0.030 A 
ATOM     16  S   UNL d   1      54.527  32.974  53.829  0.00  0.00    -0.086 SA
ATOM     17  C   UNL d   1      54.922  33.306  54.474  0.00  0.00     0.035 A 
ATOM     18  C   UNL d   1      54.490  33.146  55.158  0.00  0.00     0.007 A 
ATOM     19  C   UNL d   1      53.823  32.712  54.937  0.00  0.00     0.007 A 
ENDBRANCH   6  15
BRANCH   2  20
ATOM     20  C   UNL d   1      51.312  34.223  52.865  0.00  0.00     0.303 C 
ATOM     21  O   UNL d   1      51.661  34.845  52.455  0.00  0.00    -0.259 OA
BRANCH  20  22
ATOM     22  O   UNL d   1      50.554  34.302  53.170  0.00  0.00    -0.295 OA
ATOM     23  C   UNL d   1      50.035  34.847  52.833  0.00  0.00     0.185 C 
ENDBRANCH  20  22
ENDBRANCH   2  20
TORSDOF 3
ENDMDL
MODEL 3
REMARK VINA RESULT:     -10.0      1.208      2.419
REMARK  3 active torsions:
REMARK  status: ('A' for Active; 'I' for Inactive)
REMARK    1  A    between atoms: C_9  and  C_2 
REMARK    2  A    between atoms: C_10  and  C_6 
REMARK    3  A    between atoms: O_18  and  C_9 
ROOT
ATOM      1  C   UNL d   1      52.782  32.879  53.509  0.00  0.00     0.044 A 
ATOM      2  C   UNL d   1      53.040  31.571  53.314  0.00  0.00     0.113 A 
ATOM      3  C   UNL d   1      52.529  32.187  53.115  0.00  0.00     0.116 A 
ATOM      4  C   UNL d   1      53.457  32.683  53.956  0.00  0.00     0.112 A 
ATOM      5  S   UNL d   1      53.616  31.872  53.834  0.00  0.00    -0.061 SA
ATOM      6  C   UNL d   1      52.496  33.646  53.523  0.00  0.00     0.011 A 
ATOM      7  N   UNL d   1      53.826  33.253  54.401  0.00  0.00    -0.239 NA
ATOM      8  C   UNL d   1      52.872  34.215  53.973  0.00  0.00     0.018 A 
ATOM      9  C   UNL d   1      53.535  34.023  54.411  0.00  0.00     0.082 A 
ATOM     10  N   UNL d   1      51.879  32.132  52.612  0.00  0.00    -0.147 N 
ATOM     11  C   UNL d   1      52.573  34.986  53.977  0.00  0.00     0.002 A 
ATOM     12  C   UNL d   1      53.911  34.599  54.863  0.00  0.00     0.019 A 
ATOM     13  C   UNL d   1      52.957  35.556  54.433  0.00  0.00     0.000 A 
ATOM     14  C   UNL d   1      53.625  35.362  54.875  0.00  0.00     0.002 A 
ENDROOT
BRANCH   6  15
ATOM     15  C   UNL d   1      51.828  33.832  53.078  0.00  0.00     0.030 A 
ATOM     16  S   UNL d   1      51.040  33.778  53.322  0.00  0.00    -0.086 SA
ATOM     17  C   UNL d   1      50.565  34.022  52.692  0.00  0.00     0.035 A 
ATOM     18  C   UNL d   1      51.053  34.228  52.060  0.00  0.00     0.007 A 
ATOM     19  C   UNL d   1      51.835  34.110  52.299  0.00  0.00     0.007 A 
ENDBRANCH   6  15
BRANCH   2  20
ATOM     20  C   UNL d   1      52.991  30.792  53.047  0.00  0.00     0.303 C 
ATOM     21  O   UNL d   1      53.068  30.625  52.245  0.00  0.00    -0.259 OA
BRANCH  20  22
ATOM     22  O   UNL d   1      52.866  30.186  53.585  0.00  0.00    -0.295 OA
ATOM     23  C   UNL d   1      52.902  29.402  53.332  0.00  0.00     0.185 C 
ENDBRANCH  20  22
ENDBRANCH   2  20
TORSDOF 3
ENDMDL
MODEL 4
REMARK VINA RESULT:      -9.7      1.995      3.548
REMARK  3 active torsions:
REMARK  status: ('A' for Active; 'I' for Inactive)
REMARK    1  A    between atoms: C_9  and  C_2 
REMARK    2  A    between atoms: C_10  and  C_6 
REMARK    3  A    between atoms: O_18  and  C_9 
ROOT
ATOM      1  C   UNL d   1      52.703  33.533  53.545  0.00  0.00     0.044 A 
ATOM      2  C   UNL d   1      51.658  34.082  52.895  0.00  0.00     0.113 A 
ATOM      3  C   UNL d   1      52.085  33.384  53.002  0.00  0.00     0.116 A 
ATOM      4  C   UNL d   1      52.652  34.333  53.773  0.00  0.00     0.112 A 
ATOM      5  S   UNL d   1      52.004  34.671  53.369  0.00  0.00    -0.061 SA
ATOM      6  C   UNL d   1      53.294  33.059  53.857  0.00  0.00     0.011 A 
ATOM      7  N   UNL d   1      53.188  34.637  54.302  0.00  0.00    -0.239 NA
ATOM      8  C   UNL d   1      53.829  33.372  54.389  0.00  0.00     0.018 A 
ATOM      9  C   UNL d   1      53.780  34.156  54.613  0.00  0.00     0.082 A 
ATOM     10  N   UNL d   1      51.931  32.662  52.637  0.00  0.00    -0.147 N 
ATOM     11  C   UNL d   1      54.421  32.883  54.698  0.00  0.00     0.002 A 
ATOM     12  C   UNL d   1      54.321  34.467  55.149  0.00  0.00     0.019 A 
ATOM     13  C   UNL d   1      54.959  33.203  55.233  0.00  0.00     0.000 A 
ATOM     14  C   UNL d   1      54.909  33.995  55.459  0.00  0.00     0.002 A 
ENDROOT
BRANCH   6  15
ATOM     15  C   UNL d   1      53.337  32.269  53.627  0.00  0.00     0.030 A 
ATOM     16  S   UNL d   1      52.957  31.629  53.985  0.00  0.00    -0.086 SA
ATOM     17  C   UNL d   1      53.164  30.948  53.565  0.00  0.00     0.035 A 
ATOM     18  C   UNL d   1      53.670  31.164  52.949  0.00  0.00     0.007 A 
ATOM     19  C   UNL d   1      53.777  31.982  52.988  0.00  0.00     0.007 A 
ENDBRANCH   6  15
BRANCH   2  20
ATOM     20  C   UNL d   1      51.001  34.180  52.405  0.00  0.00     0.303 C 
ATOM     21  O   UNL d   1      51.097  34.211  51.588  0.00  0.00    -0.259 OA
BRANCH  20  22
ATOM     22  O   UNL d   1      50.254  34.247  52.736  0.00  0.00    -0.295 OA
ATOM     23  C   UNL d   1      49.622  34.497  52.269  0.00  0.00     0.185 C 
ENDBRANCH  20  22
ENDBRANCH   2  20
TORSDOF 3
ENDMDL
MODEL 5
REMARK VINA RESULT:      -8.1      2.193      4.028
REMARK  3 active torsions:
REMARK  status: ('A' for Active; 'I' for Inactive)
REMARK    1  A    between atoms: C_9  and  C_2 
REMARK    2  A    between atoms: C_10  and  C_6 
REMARK    3  A    between atoms: O_18  and  C_9 
ROOT
ATOM      1  C   UNL d   1      52.850  33.507  53.905  0.00  0.00     0.044 A 
ATOM      2  C   UNL d   1      53.273  34.562  54.630  0.00  0.00     0.113 A 
ATOM      3  C   UNL d   1      52.697  34.306  54.098  0.00  0.00     0.116 A 
ATOM      4  C   UNL d   1      53.530  33.271  54.326  0.00  0.00     0.112 A 
ATOM      5  S   UNL d   1      53.790  33.926  54.775  0.00  0.00    -0.061 SA
ATOM      6  C   UNL d   1      52.472  32.972  53.414  0.00  0.00     0.011 A 
ATOM      7  N   UNL d   1      53.812  32.515  54.246  0.00  0.00    -0.239 NA
ATOM      8  C   UNL d   1      52.762  32.211  53.338  0.00  0.00     0.018 A 
ATOM      9  C   UNL d   1      53.428  31.980  53.751  0.00  0.00     0.082 A 
ATOM     10  N   UNL d   1      52.075  34.759  53.804  0.00  0.00    -0.147 N 
ATOM     11  C   UNL d   1      52.371  31.681  52.839  0.00  0.00     0.002 A 
ATOM     12  C   UNL d   1      53.716  31.214  53.672  0.00  0.00     0.019 A 
ATOM     13  C   UNL d   1      52.666  30.915  52.766  0.00  0.00     0.000 A 
ATOM     14  C   UNL d   1      53.339  30.682  53.183  0.00  0.00     0.002 A 
ENDROOT
BRANCH   6  15
ATOM     15  C   UNL d   1      51.801  33.212  53.001  0.00  0.00     0.030 A 
ATOM     16  S   UNL d   1      51.015  33.130  53.243  0.00  0.00    -0.086 SA
ATOM     17  C   UNL d   1      50.536  33.450  52.652  0.00  0.00     0.035 A 
ATOM     18  C   UNL d   1      51.019  33.730  52.045  0.00  0.00     0.007 A 
ATOM     19  C   UNL d   1      51.803  33.583  52.261  0.00  0.00     0.007 A 
ENDBRANCH   6  15
BRANCH   2  20
ATOM     20  C   UNL d   1      53.328  35.315  54.962  0.00  0.00     0.303 C 
ATOM     21  O   UNL d   1      53.151  35.429  55.758  0.00  0.00    -0.259 OA
BRANCH  20  22
ATOM     22  O   UNL d   1      53.560  35.948  54.495  0.00  0.00    -0.295 OA
ATOM     23  C   UNL d   1      53.563  36.709  54.813  0.00  0.00     0.185 C 
ENDBRANCH  20  22
ENDBRANCH   2  20
TORSDOF 3
ENDMDL
