MODEL 1
REMARK VINA RESULT:      63.6      0.000      0.000
REMARK  9 active torsions:
REMARK  status: ('A' for Active; 'I' for Inactive)
REMARK    1  A    between atoms: C_9  and  N_1 
REMARK    2  A    between atoms: S_8  and  C_2 
REMARK    3  A    between atoms: C_7  and  C_12 
REMARK       I    between atoms: N_13  and  C_7 
REMARK    4  A    between atoms: C_26  and  S_8 
REMARK    5  A    between atoms: C_27  and  N_13 
REMARK    6  A    between atoms: C_15  and  C_27 
REMARK    7  A    between atoms: C_16  and  C_26 
REMARK    8  A    between atoms: O_31  and  C_16 
REMARK    9  A    between atoms: C_33  and  O_31 
ROOT
ATOM      1  N   UNL d   1      14.399  15.810  -4.255  0.00  0.00    -0.254 N 
ATOM      2  C   UNL d   1      14.369  15.663  -3.454  0.00  0.00     0.182 A 
ATOM      3  C   UNL d   1      14.186  15.227  -4.793  0.00  0.00     0.268 A 
ATOM      4  N   UNL d   1      14.125  14.927  -3.190  0.00  0.00    -0.222 NA
ATOM      5  C   UNL d   1      13.943  14.494  -4.531  0.00  0.00     0.074 A 
ATOM      6  C   UNL d   1      13.910  14.337  -3.718  0.00  0.00     0.088 A 
ATOM      7  C   UNL d   1      13.664  13.594  -3.445  0.00  0.00     0.024 A 
ATOM      8  C   UNL d   1      13.727  13.901  -5.062  0.00  0.00     0.006 A 
ATOM      9  C   UNL d   1      13.450  13.008  -3.985  0.00  0.00     0.059 A 
ATOM     10  O   UNL d   1      14.220  15.384  -5.606  0.00  0.00    -0.267 OA
ATOM     11  C   UNL d   1      13.483  13.165  -4.799  0.00  0.00     0.005 A 
ENDROOT
BRANCH   9  12
ATOM     12  C   UNL d   1      13.203  12.262  -3.715  0.00  0.00     0.279 C 
ATOM     13  N   UNL d   1      13.396  12.034  -2.962  0.00  0.00    -0.204 NA
ATOM     14  O   UNL d   1      12.770  11.780  -4.219  0.00  0.00    -0.265 OA
BRANCH  13  15
ATOM     15  C   UNL d   1      13.830  12.531  -2.472  0.00  0.00     0.127 C 
BRANCH  15  16
ATOM     16  C   UNL d   1      14.090  12.261  -1.738  0.00  0.00     0.119 A 
ATOM     17  O   UNL d   1      14.826  12.174  -1.412  0.00  0.00    -0.304 OA
ATOM     18  C   UNL d   1      14.758  11.877  -0.651  0.00  0.00     0.123 A 
ATOM     19  C   UNL d   1      13.946  11.783  -0.514  0.00  0.00     0.029 A 
ATOM     20  C   UNL d   1      13.535  12.014  -1.171  0.00  0.00     0.028 A 
ENDBRANCH  15  16
ENDBRANCH  13  15
ENDBRANCH   9  12
BRANCH   2  21
ATOM     21  S   UNL d   1      14.583  16.249  -2.914  0.00  0.00    -0.044 SA
BRANCH  21  22
ATOM     22  C   UNL d   1      14.460  16.135  -2.113  0.00  0.00     0.107 C 
BRANCH  22  23
ATOM     23  C   UNL d   1      14.964  16.499  -1.570  0.00  0.00     0.307 C 
ATOM     24  O   UNL d   1      15.502  17.079  -1.815  0.00  0.00    -0.258 OA
BRANCH  23  25
ATOM     25  O   UNL d   1      14.925  16.276  -0.772  0.00  0.00    -0.271 OA
BRANCH  25  26
ATOM     26  C   UNL d   1      15.617  16.279  -0.324  0.00  0.00     0.126 C 
ATOM     27  C   UNL d   1      16.055  15.595  -0.281  0.00  0.00     0.029 C 
ENDBRANCH  25  26
ENDBRANCH  23  25
ENDBRANCH  22  23
ENDBRANCH  21  22
ENDBRANCH   2  21
BRANCH   1  28
ATOM     28  C   UNL d   1      14.645  16.550  -4.525  0.00  0.00     0.069 A 
ATOM     29  C   UNL d   1      14.092  17.151  -4.641  0.00  0.00     0.020 A 
ATOM     30  C   UNL d   1      14.327  17.882  -4.907  0.00  0.00     0.031 A 
ATOM     31  C   UNL d   1      15.125  18.021  -5.060  0.00  0.00     0.140 A 
ATOM     32  C   UNL d   1      15.678  17.420  -4.943  0.00  0.00     0.031 A 
ATOM     33  F   UNL d   1      15.367  18.772  -5.332  0.00  0.00    -0.204 F 
ATOM     34  C   UNL d   1      15.441  16.687  -4.677  0.00  0.00     0.020 A 
ENDBRANCH   1  28
TORSDOF 9
ENDMDL
