MODEL 1
REMARK VINA RESULT:      45.3      0.000      0.000
REMARK  3 active torsions:
REMARK  status: ('A' for Active; 'I' for Inactive)
REMARK    1  A    between atoms: C_6  and  C_2 
REMARK    2  A    between atoms: O_7  and  C_6 
REMARK    3  A    between atoms: C_8  and  O_7 
ROOT
ATOM      1  N   UNL d   1     -49.618  26.488  33.677  0.00  0.00    -0.224 NA
ATOM      2  C   UNL d   1     -49.929  27.253  33.762  0.00  0.00     0.188 A 
ATOM      3  N   UNL d   1     -50.751  27.179  33.677  0.00  0.00    -0.224 NA
ATOM      4  C   UNL d   1     -50.228  25.968  33.546  0.00  0.00     0.101 A 
ATOM      5  C   UNL d   1     -50.934  26.399  33.545  0.00  0.00     0.101 A 
ATOM      6  C   UNL d   1     -50.267  25.159  33.423  0.00  0.00     0.021 A 
ATOM      7  C   UNL d   1     -51.660  26.008  33.422  0.00  0.00     0.021 A 
ATOM      8  C   UNL d   1     -51.657  25.213  33.306  0.00  0.00     0.002 A 
ATOM      9  C   UNL d   1     -50.950  24.783  33.306  0.00  0.00     0.002 A 
ENDROOT
BRANCH   2  10
ATOM     10  C   UNL d   1     -49.345  27.789  33.894  0.00  0.00     0.161 C 
BRANCH  10  11
ATOM     11  O   UNL d   1     -48.902  27.767  34.604  0.00  0.00    -0.302 OA
BRANCH  11  12
ATOM     12  C   UNL d   1     -48.501  28.443  34.880  0.00  0.00     0.100 A 
ATOM     13  C   UNL d   1     -48.106  28.419  35.597  0.00  0.00     0.025 A 
ATOM     14  C   UNL d   1     -47.701  29.075  35.892  0.00  0.00     0.002 A 
ATOM     15  C   UNL d   1     -47.712  29.758  35.431  0.00  0.00     0.000 A 
ATOM     16  C   UNL d   1     -48.108  29.786  34.711  0.00  0.00     0.002 A 
ATOM     17  C   UNL d   1     -47.312  30.434  35.707  0.00  0.00     0.000 C 
ATOM     18  C   UNL d   1     -48.510  29.130  34.422  0.00  0.00     0.025 A 
ENDBRANCH  11  12
ENDBRANCH  10  11
ENDBRANCH   2  10
TORSDOF 3
ENDMDL
MODEL 2
REMARK VINA RESULT:      46.1      1.130      4.679
REMARK  3 active torsions:
REMARK  status: ('A' for Active; 'I' for Inactive)
REMARK    1  A    between atoms: C_6  and  C_2 
REMARK    2  A    between atoms: O_7  and  C_6 
REMARK    3  A    between atoms: C_8  and  O_7 
ROOT
ATOM      1  N   UNL d   1     -48.555  28.470  35.506  0.00  0.00    -0.224 NA
ATOM      2  C   UNL d   1     -48.739  28.387  34.701  0.00  0.00     0.188 A 
ATOM      3  N   UNL d   1     -48.372  29.021  34.312  0.00  0.00    -0.224 NA
ATOM      4  C   UNL d   1     -48.093  29.131  35.604  0.00  0.00     0.101 A 
ATOM      5  C   UNL d   1     -47.979  29.474  34.860  0.00  0.00     0.101 A 
ATOM      6  C   UNL d   1     -47.747  29.490  36.254  0.00  0.00     0.021 A 
ATOM      7  C   UNL d   1     -47.522  30.167  34.787  0.00  0.00     0.021 A 
ATOM      8  C   UNL d   1     -47.199  30.489  35.449  0.00  0.00     0.002 A 
ATOM      9  C   UNL d   1     -47.313  30.146  36.192  0.00  0.00     0.002 A 
ENDROOT
BRANCH   2  10
ATOM     10  C   UNL d   1     -49.197  27.738  34.576  0.00  0.00     0.161 C 
BRANCH  10  11
ATOM     11  O   UNL d   1     -49.468  27.552  33.805  0.00  0.00    -0.302 OA
BRANCH  11  12
ATOM     12  C   UNL d   1     -50.009  26.931  33.679  0.00  0.00     0.100 A 
ATOM     13  C   UNL d   1     -49.734  26.182  33.495  0.00  0.00     0.025 A 
ATOM     14  C   UNL d   1     -50.249  25.550  33.366  0.00  0.00     0.002 A 
ATOM     15  C   UNL d   1     -51.055  25.707  33.431  0.00  0.00     0.000 A 
ATOM     16  C   UNL d   1     -51.335  26.458  33.616  0.00  0.00     0.002 A 
ATOM     17  C   UNL d   1     -51.596  25.087  33.306  0.00  0.00     0.000 C 
ATOM     18  C   UNL d   1     -50.818  27.084  33.743  0.00  0.00     0.025 A 
ENDBRANCH  11  12
ENDBRANCH  10  11
ENDBRANCH   2  10
TORSDOF 3
ENDMDL
MODEL 3
REMARK VINA RESULT:      48.2      2.799      4.072
REMARK  3 active torsions:
REMARK  status: ('A' for Active; 'I' for Inactive)
REMARK    1  A    between atoms: C_6  and  C_2 
REMARK    2  A    between atoms: O_7  and  C_6 
REMARK    3  A    between atoms: C_8  and  O_7 
ROOT
ATOM      1  N   UNL d   1     -52.074  23.975  34.571  0.00  0.00    -0.224 NA
ATOM      2  C   UNL d   1     -52.226  24.057  33.759  0.00  0.00     0.188 A 
ATOM      3  N   UNL d   1     -53.017  23.833  33.649  0.00  0.00    -0.224 NA
ATOM      4  C   UNL d   1     -52.747  23.710  34.941  0.00  0.00     0.101 A 
ATOM      5  C   UNL d   1     -53.335  23.622  34.366  0.00  0.00     0.101 A 
ATOM      6  C   UNL d   1     -52.934  23.529  35.718  0.00  0.00     0.021 A 
ATOM      7  C   UNL d   1     -54.094  23.356  34.583  0.00  0.00     0.021 A 
ATOM      8  C   UNL d   1     -54.239  23.189  35.356  0.00  0.00     0.002 A 
ATOM      9  C   UNL d   1     -53.651  23.277  35.931  0.00  0.00     0.002 A 
ENDROOT
BRANCH   2  10
ATOM     10  C   UNL d   1     -51.574  24.318  33.369  0.00  0.00     0.161 C 
BRANCH  10  11
ATOM     11  O   UNL d   1     -51.000  24.783  33.765  0.00  0.00    -0.302 OA
BRANCH  11  12
ATOM     12  C   UNL d   1     -50.964  25.607  33.651  0.00  0.00     0.100 A 
ATOM     13  C   UNL d   1     -50.240  25.990  33.677  0.00  0.00     0.025 A 
ATOM     14  C   UNL d   1     -50.176  26.806  33.566  0.00  0.00     0.002 A 
ATOM     15  C   UNL d   1     -50.876  27.219  33.429  0.00  0.00     0.000 A 
ATOM     16  C   UNL d   1     -51.604  26.837  33.402  0.00  0.00     0.002 A 
ATOM     17  C   UNL d   1     -50.840  28.043  33.314  0.00  0.00     0.000 C 
ATOM     18  C   UNL d   1     -51.662  26.025  33.513  0.00  0.00     0.025 A 
ENDBRANCH  11  12
ENDBRANCH  10  11
ENDBRANCH   2  10
TORSDOF 3
ENDMDL
