MODEL 1
REMARK VINA RESULT:      -8.2      0.000      0.000
REMARK  4 active torsions:
REMARK  status: ('A' for Active; 'I' for Inactive)
REMARK    1  A    between atoms: N_5  and  C_1 
REMARK    2  A    between atoms: N_9  and  N_5 
REMARK    3  A    between atoms: C_7  and  C_8 
REMARK    4  A    between atoms: C_12  and  N_9 
ROOT
ATOM      1  N   UNL d   1     -48.915  12.953  23.527  0.00  0.00    -0.146 NA
ENDROOT
BRANCH   1   2
ATOM      2  C   UNL d   1     -49.703  13.280  23.335  0.00  0.00     0.122 A 
ATOM      3  C   UNL d   1     -50.359  12.838  23.198  0.00  0.00     0.101 A 
ATOM      4  N   UNL d   1     -50.996  13.355  23.034  0.00  0.00    -0.244 NA
ATOM      5  C   UNL d   1     -50.414  12.021  23.212  0.00  0.00     0.022 C 
ATOM      6  C   UNL d   1     -50.715  14.113  23.074  0.00  0.00     0.083 A 
ATOM      7  C   UNL d   1     -49.897  14.078  23.264  0.00  0.00     0.039 A 
ATOM      8  C   UNL d   1     -51.064  14.860  22.970  0.00  0.00     0.019 A 
ATOM      9  C   UNL d   1     -49.445  14.778  23.346  0.00  0.00     0.003 A 
ATOM     10  C   UNL d   1     -49.806  15.516  23.239  0.00  0.00     0.000 A 
ATOM     11  C   UNL d   1     -50.628  15.565  23.048  0.00  0.00     0.002 A 
ENDBRANCH   1   2
BRANCH   1  12
ATOM     12  N   UNL d   1     -48.463  12.576  22.944  0.00  0.00    -0.148 NA
BRANCH  12  13
ATOM     13  C   UNL d   1     -47.663  12.438  23.067  0.00  0.00     0.103 A 
ATOM     14  C   UNL d   1     -47.111  12.925  22.753  0.00  0.00     0.027 A 
ATOM     15  C   UNL d   1     -46.311  12.787  22.877  0.00  0.00     0.066 A 
ATOM     16  C   UNL d   1     -46.081  12.155  23.318  0.00  0.00     0.006 A 
ATOM     17  C   UNL d   1     -46.635  11.662  23.636  0.00  0.00     0.002 A 
ATOM     18  C   UNL d   1     -47.421  11.805  23.509  0.00  0.00     0.021 A 
BRANCH  15  19
ATOM     19  C   UNL d   1     -45.712  13.266  22.571  0.00  0.00     0.211 C 
ATOM     20  O   UNL d   1     -45.072  12.913  22.168  0.00  0.00    -0.644 OA
ATOM     21  O   UNL d   1     -45.744  14.097  22.662  0.00  0.00    -0.644 OA
ENDBRANCH  15  19
ENDBRANCH  12  13
ENDBRANCH   1  12
TORSDOF 4
ENDMDL
MODEL 2
REMARK VINA RESULT:      -8.1      1.425      2.173
REMARK  4 active torsions:
REMARK  status: ('A' for Active; 'I' for Inactive)
REMARK    1  A    between atoms: N_5  and  C_1 
REMARK    2  A    between atoms: N_9  and  N_5 
REMARK    3  A    between atoms: C_7  and  C_8 
REMARK    4  A    between atoms: C_12  and  N_9 
ROOT
ATOM      1  N   UNL d   1     -48.140  14.049  22.292  0.00  0.00    -0.146 NA
ENDROOT
BRANCH   1   2
ATOM      2  C   UNL d   1     -48.982  14.282  22.261  0.00  0.00     0.122 A 
ATOM      3  C   UNL d   1     -49.273  14.981  22.527  0.00  0.00     0.101 A 
ATOM      4  N   UNL d   1     -50.099  14.989  22.398  0.00  0.00    -0.244 NA
ATOM      5  C   UNL d   1     -48.848  15.592  22.870  0.00  0.00     0.022 C 
ATOM      6  C   UNL d   1     -50.302  14.288  22.050  0.00  0.00     0.083 A 
ATOM      7  C   UNL d   1     -49.602  13.830  21.958  0.00  0.00     0.039 A 
ATOM      8  C   UNL d   1     -51.021  13.963  21.788  0.00  0.00     0.019 A 
ATOM      9  C   UNL d   1     -49.629  13.068  21.611  0.00  0.00     0.003 A 
ATOM     10  C   UNL d   1     -50.354  12.758  21.355  0.00  0.00     0.000 A 
ATOM     11  C   UNL d   1     -51.064  13.208  21.442  0.00  0.00     0.002 A 
ENDBRANCH   1   2
BRANCH   1  12
ATOM     12  N   UNL d   1     -47.831  13.679  22.967  0.00  0.00    -0.148 NA
BRANCH  12  13
ATOM     13  C   UNL d   1     -47.090  13.327  22.942  0.00  0.00     0.103 A 
ATOM     14  C   UNL d   1     -46.973  12.600  23.255  0.00  0.00     0.027 A 
ATOM     15  C   UNL d   1     -46.232  12.247  23.229  0.00  0.00     0.066 A 
ATOM     16  C   UNL d   1     -45.618  12.638  22.885  0.00  0.00     0.006 A 
ATOM     17  C   UNL d   1     -45.733  13.371  22.569  0.00  0.00     0.002 A 
ATOM     18  C   UNL d   1     -46.466  13.711  22.599  0.00  0.00     0.021 A 
BRANCH  15  19
ATOM     19  C   UNL d   1     -46.070  11.500  23.540  0.00  0.00     0.211 C 
ATOM     20  O   UNL d   1     -46.702  10.976  23.698  0.00  0.00    -0.644 OA
ATOM     21  O   UNL d   1     -45.282  11.266  23.697  0.00  0.00    -0.644 OA
ENDBRANCH  15  19
ENDBRANCH  12  13
ENDBRANCH   1  12
TORSDOF 4
ENDMDL
MODEL 3
REMARK VINA RESULT:      -7.8      2.197      4.094
REMARK  4 active torsions:
REMARK  status: ('A' for Active; 'I' for Inactive)
REMARK    1  A    between atoms: N_5  and  C_1 
REMARK    2  A    between atoms: N_9  and  N_5 
REMARK    3  A    between atoms: C_7  and  C_8 
REMARK    4  A    between atoms: C_12  and  N_9 
ROOT
ATOM      1  N   UNL d   1     -48.164  12.394  23.463  0.00  0.00    -0.146 NA
ENDROOT
BRANCH   1   2
ATOM      2  C   UNL d   1     -47.305  12.332  23.314  0.00  0.00     0.122 A 
ATOM      3  C   UNL d   1     -46.869  11.668  23.428  0.00  0.00     0.101 A 
ATOM      4  N   UNL d   1     -46.076  11.834  23.223  0.00  0.00    -0.244 NA
ATOM      5  C   UNL d   1     -47.139  10.942  23.698  0.00  0.00     0.022 C 
ATOM      6  C   UNL d   1     -46.039  12.606  22.984  0.00  0.00     0.083 A 
ATOM      7  C   UNL d   1     -46.812  12.933  23.038  0.00  0.00     0.039 A 
ATOM      8  C   UNL d   1     -45.422  13.096  22.717  0.00  0.00     0.019 A 
ATOM      9  C   UNL d   1     -46.958  13.730  22.827  0.00  0.00     0.003 A 
ATOM     10  C   UNL d   1     -46.333  14.206  22.562  0.00  0.00     0.000 A 
ATOM     11  C   UNL d   1     -45.551  13.890  22.504  0.00  0.00     0.002 A 
ENDBRANCH   1   2
BRANCH   1  12
ATOM     12  N   UNL d   1     -48.707  12.024  22.957  0.00  0.00    -0.148 NA
BRANCH  12  13
ATOM     13  C   UNL d   1     -49.496  12.251  22.961  0.00  0.00     0.103 A 
ATOM     14  C   UNL d   1     -49.772  12.774  22.422  0.00  0.00     0.027 A 
ATOM     15  C   UNL d   1     -50.561  13.002  22.425  0.00  0.00     0.066 A 
ATOM     16  C   UNL d   1     -51.060  12.695  22.978  0.00  0.00     0.006 A 
ATOM     17  C   UNL d   1     -50.785  12.168  23.522  0.00  0.00     0.002 A 
ATOM     18  C   UNL d   1     -50.006  11.949  23.511  0.00  0.00     0.021 A 
BRANCH  15  19
ATOM     19  C   UNL d   1     -50.885  13.537  21.887  0.00  0.00     0.211 C 
ATOM     20  O   UNL d   1     -51.040  13.289  21.105  0.00  0.00    -0.644 OA
ATOM     21  O   UNL d   1     -51.058  14.322  22.120  0.00  0.00    -0.644 OA
ENDBRANCH  15  19
ENDBRANCH  12  13
ENDBRANCH   1  12
TORSDOF 4
ENDMDL
MODEL 4
REMARK VINA RESULT:      -5.8      9.092     10.286
REMARK  4 active torsions:
REMARK  status: ('A' for Active; 'I' for Inactive)
REMARK    1  A    between atoms: N_5  and  C_1 
REMARK    2  A    between atoms: N_9  and  N_5 
REMARK    3  A    between atoms: C_7  and  C_8 
REMARK    4  A    between atoms: C_12  and  N_9 
ROOT
ATOM      1  N   UNL d   1     -39.338  14.587  19.837  0.00  0.00    -0.146 NA
ENDROOT
BRANCH   1   2
ATOM      2  C   UNL d   1     -39.386  14.527  20.707  0.00  0.00     0.122 A 
ATOM      3  C   UNL d   1     -39.872  14.968  21.170  0.00  0.00     0.101 A 
ATOM      4  N   UNL d   1     -39.752  14.746  21.967  0.00  0.00    -0.244 NA
ATOM      5  C   UNL d   1     -40.401  15.542  20.920  0.00  0.00     0.022 C 
ATOM      6  C   UNL d   1     -39.188  14.166  21.979  0.00  0.00     0.083 A 
ATOM      7  C   UNL d   1     -38.948  14.018  21.187  0.00  0.00     0.039 A 
ATOM      8  C   UNL d   1     -38.831  13.725  22.587  0.00  0.00     0.019 A 
ATOM      9  C   UNL d   1     -38.365  13.442  21.014  0.00  0.00     0.003 A 
ATOM     10  C   UNL d   1     -38.018  13.010  21.631  0.00  0.00     0.000 A 
ATOM     11  C   UNL d   1     -38.251  13.149  22.432  0.00  0.00     0.002 A 
ENDBRANCH   1   2
BRANCH   1  12
ATOM     12  N   UNL d   1     -39.932  14.259  19.360  0.00  0.00    -0.148 NA
BRANCH  12  13
ATOM     13  C   UNL d   1     -39.873  14.297  18.542  0.00  0.00     0.103 A 
ATOM     14  C   UNL d   1     -40.239  14.880  18.133  0.00  0.00     0.027 A 
ATOM     15  C   UNL d   1     -40.180  14.918  17.315  0.00  0.00     0.066 A 
ATOM     16  C   UNL d   1     -39.748  14.364  16.922  0.00  0.00     0.006 A 
ATOM     17  C   UNL d   1     -39.377  13.777  17.331  0.00  0.00     0.002 A 
ATOM     18  C   UNL d   1     -39.441  13.746  18.137  0.00  0.00     0.021 A 
BRANCH  15  19
ATOM     19  C   UNL d   1     -40.542  15.502  16.857  0.00  0.00     0.211 C 
ATOM     20  O   UNL d   1     -41.351  15.671  16.975  0.00  0.00    -0.644 OA
ATOM     21  O   UNL d   1     -40.105  15.921  16.280  0.00  0.00    -0.644 OA
ENDBRANCH  15  19
ENDBRANCH  12  13
ENDBRANCH   1  12
TORSDOF 4
ENDMDL
MODEL 5
REMARK VINA RESULT:      -5.6      9.510     10.015
REMARK  4 active torsions:
REMARK  status: ('A' for Active; 'I' for Inactive)
REMARK    1  A    between atoms: N_5  and  C_1 
REMARK    2  A    between atoms: N_9  and  N_5 
REMARK    3  A    between atoms: C_7  and  C_8 
REMARK    4  A    between atoms: C_12  and  N_9 
ROOT
ATOM      1  N   UNL d   1     -39.311  14.668  19.424  0.00  0.00    -0.146 NA
ENDROOT
BRANCH   1   2
ATOM      2  C   UNL d   1     -39.542  14.502  18.598  0.00  0.00     0.122 A 
ATOM      3  C   UNL d   1     -39.257  13.895  18.157  0.00  0.00     0.101 A 
ATOM      4  N   UNL d   1     -39.613  13.927  17.401  0.00  0.00    -0.244 NA
ATOM      5  C   UNL d   1     -38.710  13.331  18.392  0.00  0.00     0.022 C 
ATOM      6  C   UNL d   1     -40.115  14.560  17.392  0.00  0.00     0.083 A 
ATOM      7  C   UNL d   1     -40.080  14.933  18.144  0.00  0.00     0.039 A 
ATOM      8  C   UNL d   1     -40.622  14.883  16.816  0.00  0.00     0.019 A 
ATOM      9  C   UNL d   1     -40.541  15.612  18.311  0.00  0.00     0.003 A 
ATOM     10  C   UNL d   1     -41.041  15.922  17.727  0.00  0.00     0.000 A 
ATOM     11  C   UNL d   1     -41.087  15.557  16.966  0.00  0.00     0.002 A 
ENDBRANCH   1   2
BRANCH   1  12
ATOM     12  N   UNL d   1     -39.762  14.373  20.054  0.00  0.00    -0.148 NA
BRANCH  12  13
ATOM     13  C   UNL d   1     -39.527  14.508  20.829  0.00  0.00     0.103 A 
ATOM     14  C   UNL d   1     -39.224  13.914  21.273  0.00  0.00     0.027 A 
ATOM     15  C   UNL d   1     -38.989  14.050  22.048  0.00  0.00     0.066 A 
ATOM     16  C   UNL d   1     -39.063  14.787  22.363  0.00  0.00     0.006 A 
ATOM     17  C   UNL d   1     -39.368  15.387  21.918  0.00  0.00     0.002 A 
ATOM     18  C   UNL d   1     -39.597  15.245  21.155  0.00  0.00     0.021 A 
BRANCH  15  19
ATOM     19  C   UNL d   1     -38.672  13.466  22.538  0.00  0.00     0.211 C 
ATOM     20  O   UNL d   1     -39.052  13.287  23.260  0.00  0.00    -0.644 OA
ATOM     21  O   UNL d   1     -37.978  13.055  22.317  0.00  0.00    -0.644 OA
ENDBRANCH  15  19
ENDBRANCH  12  13
ENDBRANCH   1  12
TORSDOF 4
ENDMDL
MODEL 6
REMARK VINA RESULT:      -5.6      1.834      4.663
REMARK  4 active torsions:
REMARK  status: ('A' for Active; 'I' for Inactive)
REMARK    1  A    between atoms: N_5  and  C_1 
REMARK    2  A    between atoms: N_9  and  N_5 
REMARK    3  A    between atoms: C_7  and  C_8 
REMARK    4  A    between atoms: C_12  and  N_9 
ROOT
ATOM      1  N   UNL d   1     -46.923  12.631  22.698  0.00  0.00    -0.146 NA
ENDROOT
BRANCH   1   2
ATOM      2  C   UNL d   1     -46.091  12.374  22.766  0.00  0.00     0.122 A 
ATOM      3  C   UNL d   1     -45.459  12.805  22.523  0.00  0.00     0.101 A 
ATOM      4  N   UNL d   1     -44.764  12.370  22.685  0.00  0.00    -0.244 NA
ATOM      5  C   UNL d   1     -45.474  13.547  22.175  0.00  0.00     0.022 C 
ATOM      6  C   UNL d   1     -44.984  11.671  23.028  0.00  0.00     0.083 A 
ATOM      7  C   UNL d   1     -45.823  11.662  23.085  0.00  0.00     0.039 A 
ATOM      8  C   UNL d   1     -44.563  11.012  23.312  0.00  0.00     0.019 A 
ATOM      9  C   UNL d   1     -46.225  11.007  23.419  0.00  0.00     0.003 A 
ATOM     10  C   UNL d   1     -45.791  10.358  23.698  0.00  0.00     0.000 A 
ATOM     11  C   UNL d   1     -44.948  10.354  23.646  0.00  0.00     0.002 A 
ENDBRANCH   1   2
BRANCH   1  12
ATOM     12  N   UNL d   1     -47.251  13.147  23.258  0.00  0.00    -0.148 NA
BRANCH  12  13
ATOM     13  C   UNL d   1     -48.034  13.387  23.190  0.00  0.00     0.103 A 
ATOM     14  C   UNL d   1     -48.214  14.149  23.025  0.00  0.00     0.027 A 
ATOM     15  C   UNL d   1     -48.997  14.388  22.956  0.00  0.00     0.066 A 
ATOM     16  C   UNL d   1     -49.587  13.850  23.057  0.00  0.00     0.006 A 
ATOM     17  C   UNL d   1     -49.408  13.081  23.223  0.00  0.00     0.002 A 
ATOM     18  C   UNL d   1     -48.635  12.854  23.289  0.00  0.00     0.021 A 
BRANCH  15  19
ATOM     19  C   UNL d   1     -49.225  15.163  22.787  0.00  0.00     0.211 C 
ATOM     20  O   UNL d   1     -48.950  15.528  22.087  0.00  0.00    -0.644 OA
ATOM     21  O   UNL d   1     -49.726  15.583  23.309  0.00  0.00    -0.644 OA
ENDBRANCH  15  19
ENDBRANCH  12  13
ENDBRANCH   1  12
TORSDOF 4
ENDMDL
MODEL 7
REMARK VINA RESULT:      -5.5      8.962     10.996
REMARK  4 active torsions:
REMARK  status: ('A' for Active; 'I' for Inactive)
REMARK    1  A    between atoms: N_5  and  C_1 
REMARK    2  A    between atoms: N_9  and  N_5 
REMARK    3  A    between atoms: C_7  and  C_8 
REMARK    4  A    between atoms: C_12  and  N_9 
ROOT
ATOM      1  N   UNL d   1     -39.398  13.901  18.266  0.00  0.00    -0.146 NA
ENDROOT
BRANCH   1   2
ATOM      2  C   UNL d   1     -38.897  13.790  17.559  0.00  0.00     0.122 A 
ATOM      3  C   UNL d   1     -38.497  13.116  17.384  0.00  0.00     0.101 A 
ATOM      4  N   UNL d   1     -38.086  13.232  16.665  0.00  0.00    -0.244 NA
ATOM      5  C   UNL d   1     -38.482  12.425  17.824  0.00  0.00     0.022 C 
ATOM      6  C   UNL d   1     -38.243  13.983  16.409  0.00  0.00     0.083 A 
ATOM      7  C   UNL d   1     -38.756  14.347  16.967  0.00  0.00     0.039 A 
ATOM      8  C   UNL d   1     -38.006  14.424  15.745  0.00  0.00     0.019 A 
ATOM      9  C   UNL d   1     -39.022  15.133  16.857  0.00  0.00     0.003 A 
ATOM     10  C   UNL d   1     -38.778  15.561  16.190  0.00  0.00     0.000 A 
ATOM     11  C   UNL d   1     -38.262  15.207  15.622  0.00  0.00     0.002 A 
ENDBRANCH   1   2
BRANCH   1  12
ATOM     12  N   UNL d   1     -39.097  14.281  18.939  0.00  0.00    -0.148 NA
BRANCH  12  13
ATOM     13  C   UNL d   1     -39.556  14.345  19.617  0.00  0.00     0.103 A 
ATOM     14  C   UNL d   1     -39.228  14.252  20.342  0.00  0.00     0.027 A 
ATOM     15  C   UNL d   1     -39.687  14.315  21.020  0.00  0.00     0.066 A 
ATOM     16  C   UNL d   1     -40.474  14.472  20.953  0.00  0.00     0.006 A 
ATOM     17  C   UNL d   1     -40.806  14.566  20.225  0.00  0.00     0.002 A 
ATOM     18  C   UNL d   1     -40.347  14.502  19.562  0.00  0.00     0.021 A 
BRANCH  15  19
ATOM     19  C   UNL d   1     -39.388  14.227  21.784  0.00  0.00     0.211 C 
ATOM     20  O   UNL d   1     -39.061  14.888  22.175  0.00  0.00    -0.644 OA
ATOM     21  O   UNL d   1     -39.411  13.482  22.165  0.00  0.00    -0.644 OA
ENDBRANCH  15  19
ENDBRANCH  12  13
ENDBRANCH   1  12
TORSDOF 4
ENDMDL
