MODEL 1
REMARK VINA RESULT:     -10.9      0.000      0.000
REMARK  2 active torsions:
REMARK  status: ('A' for Active; 'I' for Inactive)
REMARK       I    between atoms: C_2  and  N_1 
REMARK       I    between atoms: N_8  and  C_2 
REMARK    1  A    between atoms: C_15  and  N_8 
REMARK    2  A    between atoms: C_9  and  C_15 
ROOT
ATOM      1  N   UNL d   1      52.822  32.831  53.478  0.00  0.00    -0.258 N 
ATOM      2  C   UNL d   1      52.728  32.065  53.182  0.00  0.00     0.354 C 
ATOM      3  S   UNL d   1      53.034  34.354  54.093  0.00  0.00    -0.084 SA
ATOM      4  C   UNL d   1      53.368  32.964  54.092  0.00  0.00     0.074 A 
ATOM      5  C   UNL d   1      52.384  33.447  53.170  0.00  0.00     0.074 A 
ATOM      6  C   UNL d   1      53.476  33.730  54.403  0.00  0.00     0.046 A 
ATOM      7  C   UNL d   1      52.491  34.213  53.480  0.00  0.00     0.046 A 
ATOM      8  N   UNL d   1      53.220  31.381  53.529  0.00  0.00    -0.189 NA
ATOM      9  O   UNL d   1      52.133  31.926  52.513  0.00  0.00    -0.244 OA
ATOM     10  C   UNL d   1      51.849  33.315  52.567  0.00  0.00     0.018 A 
ATOM     11  C   UNL d   1      53.805  32.344  54.397  0.00  0.00     0.018 A 
ATOM     12  C   UNL d   1      54.011  33.857  55.004  0.00  0.00     0.008 A 
ATOM     13  C   UNL d   1      52.054  34.837  53.175  0.00  0.00     0.008 A 
ATOM     14  C   UNL d   1      54.342  32.475  55.002  0.00  0.00     0.002 A 
ATOM     15  C   UNL d   1      51.408  33.941  52.259  0.00  0.00     0.002 A 
ATOM     16  C   UNL d   1      51.510  34.710  52.564  0.00  0.00     0.001 A 
ATOM     17  C   UNL d   1      54.450  33.245  55.313  0.00  0.00     0.001 A 
ENDROOT
BRANCH   8  18
ATOM     18  C   UNL d   1      53.123  30.618  53.231  0.00  0.00     0.128 C 
BRANCH  18  19
ATOM     19  C   UNL d   1      53.227  29.962  53.725  0.00  0.00     0.119 A 
ATOM     20  O   UNL d   1      52.674  29.663  54.261  0.00  0.00    -0.304 OA
ATOM     21  C   UNL d   1      53.008  29.008  54.636  0.00  0.00     0.123 A 
ATOM     22  C   UNL d   1      53.767  28.900  54.332  0.00  0.00     0.029 A 
ATOM     23  C   UNL d   1      53.901  29.489  53.771  0.00  0.00     0.028 A 
ENDBRANCH  18  19
ENDBRANCH   8  18
TORSDOF 2
ENDMDL
MODEL 2
REMARK VINA RESULT:      -9.9      1.771      3.967
REMARK  2 active torsions:
REMARK  status: ('A' for Active; 'I' for Inactive)
REMARK       I    between atoms: C_2  and  N_1 
REMARK       I    between atoms: N_8  and  C_2 
REMARK    1  A    between atoms: C_15  and  N_8 
REMARK    2  A    between atoms: C_9  and  C_15 
ROOT
ATOM      1  N   UNL d   1      53.134  33.438  53.829  0.00  0.00    -0.258 N 
ATOM      2  C   UNL d   1      52.655  34.070  53.597  0.00  0.00     0.354 C 
ATOM      3  S   UNL d   1      54.076  32.150  54.272  0.00  0.00    -0.084 SA
ATOM      4  C   UNL d   1      52.988  32.681  53.514  0.00  0.00     0.074 A 
ATOM      5  C   UNL d   1      53.742  33.557  54.360  0.00  0.00     0.074 A 
ATOM      6  C   UNL d   1      53.461  32.033  53.736  0.00  0.00     0.046 A 
ATOM      7  C   UNL d   1      54.216  32.908  54.583  0.00  0.00     0.046 A 
ATOM      8  N   UNL d   1      51.977  33.933  53.004  0.00  0.00    -0.189 NA
ATOM      9  O   UNL d   1      52.819  34.891  53.944  0.00  0.00    -0.244 OA
ATOM     10  C   UNL d   1      53.886  34.300  54.669  0.00  0.00     0.018 A 
ATOM     11  C   UNL d   1      52.377  32.568  52.982  0.00  0.00     0.018 A 
ATOM     12  C   UNL d   1      53.315  31.293  53.426  0.00  0.00     0.008 A 
ATOM     13  C   UNL d   1      54.830  33.021  55.117  0.00  0.00     0.008 A 
ATOM     14  C   UNL d   1      52.233  31.823  52.671  0.00  0.00     0.002 A 
ATOM     15  C   UNL d   1      54.501  34.415  55.205  0.00  0.00     0.002 A 
ATOM     16  C   UNL d   1      54.979  33.770  55.433  0.00  0.00     0.001 A 
ATOM     17  C   UNL d   1      52.709  31.172  52.896  0.00  0.00     0.001 A 
ENDROOT
BRANCH   8  18
ATOM     18  C   UNL d   1      51.501  34.566  52.775  0.00  0.00     0.128 C 
BRANCH  18  19
ATOM     19  C   UNL d   1      50.784  34.428  52.386  0.00  0.00     0.119 A 
ATOM     20  O   UNL d   1      50.686  34.300  51.576  0.00  0.00    -0.304 OA
ATOM     21  C   UNL d   1      49.881  34.187  51.429  0.00  0.00     0.123 A 
ATOM     22  C   UNL d   1      49.481  34.246  52.147  0.00  0.00     0.029 A 
ATOM     23  C   UNL d   1      50.038  34.394  52.737  0.00  0.00     0.028 A 
ENDBRANCH  18  19
ENDBRANCH   8  18
TORSDOF 2
ENDMDL
MODEL 3
REMARK VINA RESULT:      -8.5      1.407      3.913
REMARK  2 active torsions:
REMARK  status: ('A' for Active; 'I' for Inactive)
REMARK       I    between atoms: C_2  and  N_1 
REMARK       I    between atoms: N_8  and  C_2 
REMARK    1  A    between atoms: C_15  and  N_8 
REMARK    2  A    between atoms: C_9  and  C_15 
ROOT
ATOM      1  N   UNL d   1      52.533  33.114  53.330  0.00  0.00    -0.258 N 
ATOM      2  C   UNL d   1      51.859  33.115  52.852  0.00  0.00     0.354 C 
ATOM      3  S   UNL d   1      53.879  33.146  54.295  0.00  0.00    -0.084 SA
ATOM      4  C   UNL d   1      52.760  33.818  53.713  0.00  0.00     0.074 A 
ATOM      5  C   UNL d   1      52.969  32.430  53.424  0.00  0.00     0.074 A 
ATOM      6  C   UNL d   1      53.437  33.835  54.198  0.00  0.00     0.046 A 
ATOM      7  C   UNL d   1      53.646  32.447  53.910  0.00  0.00     0.046 A 
ATOM      8  N   UNL d   1      51.376  33.881  52.750  0.00  0.00    -0.189 NA
ATOM      9  O   UNL d   1      51.617  32.346  52.439  0.00  0.00    -0.244 OA
ATOM     10  C   UNL d   1      52.746  31.740  53.049  0.00  0.00     0.018 A 
ATOM     11  C   UNL d   1      52.320  34.500  53.615  0.00  0.00     0.018 A 
ATOM     12  C   UNL d   1      53.657  34.526  54.571  0.00  0.00     0.008 A 
ATOM     13  C   UNL d   1      54.089  31.762  54.009  0.00  0.00     0.008 A 
ATOM     14  C   UNL d   1      52.544  35.193  53.992  0.00  0.00     0.002 A 
ATOM     15  C   UNL d   1      53.189  31.052  53.147  0.00  0.00     0.002 A 
ATOM     16  C   UNL d   1      53.868  31.061  53.631  0.00  0.00     0.001 A 
ATOM     17  C   UNL d   1      53.224  35.209  54.479  0.00  0.00     0.001 A 
ENDROOT
BRANCH   8  18
ATOM     18  C   UNL d   1      50.704  33.878  52.273  0.00  0.00     0.128 C 
BRANCH  18  19
ATOM     19  C   UNL d   1      50.075  34.392  52.435  0.00  0.00     0.119 A 
ATOM     20  O   UNL d   1      49.821  34.629  53.185  0.00  0.00    -0.304 OA
ATOM     21  C   UNL d   1      49.181  35.141  53.089  0.00  0.00     0.123 A 
ATOM     22  C   UNL d   1      49.039  35.222  52.281  0.00  0.00     0.029 A 
ATOM     23  C   UNL d   1      49.591  34.760  51.878  0.00  0.00     0.028 A 
ENDBRANCH  18  19
ENDBRANCH   8  18
TORSDOF 2
ENDMDL
MODEL 4
REMARK VINA RESULT:      -8.4      1.096      2.338
REMARK  2 active torsions:
REMARK  status: ('A' for Active; 'I' for Inactive)
REMARK       I    between atoms: C_2  and  N_1 
REMARK       I    between atoms: N_8  and  C_2 
REMARK    1  A    between atoms: C_15  and  N_8 
REMARK    2  A    between atoms: C_9  and  C_15 
ROOT
ATOM      1  N   UNL d   1      53.056  33.462  53.884  0.00  0.00    -0.258 N 
ATOM      2  C   UNL d   1      53.489  32.765  53.984  0.00  0.00     0.354 C 
ATOM      3  S   UNL d   1      52.166  34.841  53.661  0.00  0.00    -0.084 SA
ATOM      4  C   UNL d   1      52.393  33.458  53.380  0.00  0.00     0.074 A 
ATOM      5  C   UNL d   1      53.277  34.143  54.275  0.00  0.00     0.074 A 
ATOM      6  C   UNL d   1      51.944  34.151  53.267  0.00  0.00     0.046 A 
ATOM      7  C   UNL d   1      52.828  34.837  54.163  0.00  0.00     0.046 A 
ATOM      8  N   UNL d   1      53.238  32.007  53.546  0.00  0.00    -0.189 NA
ATOM      9  O   UNL d   1      54.209  32.776  54.534  0.00  0.00    -0.244 OA
ATOM     10  C   UNL d   1      53.927  34.146  54.770  0.00  0.00     0.018 A 
ATOM     11  C   UNL d   1      52.175  32.773  52.991  0.00  0.00     0.018 A 
ATOM     12  C   UNL d   1      51.296  34.144  52.773  0.00  0.00     0.008 A 
ATOM     13  C   UNL d   1      53.046  35.526  54.553  0.00  0.00     0.008 A 
ATOM     14  C   UNL d   1      51.523  32.769  52.494  0.00  0.00     0.002 A 
ATOM     15  C   UNL d   1      54.147  34.837  55.163  0.00  0.00     0.002 A 
ATOM     16  C   UNL d   1      53.703  35.535  55.055  0.00  0.00     0.001 A 
ATOM     17  C   UNL d   1      51.073  33.466  52.381  0.00  0.00     0.001 A 
ENDROOT
BRANCH   8  18
ATOM     18  C   UNL d   1      53.673  31.314  53.648  0.00  0.00     0.128 C 
BRANCH  18  19
ATOM     19  C   UNL d   1      53.329  30.579  53.483  0.00  0.00     0.119 A 
ATOM     20  O   UNL d   1      53.106  30.302  52.738  0.00  0.00    -0.304 OA
ATOM     21  C   UNL d   1      52.788  29.546  52.829  0.00  0.00     0.123 A 
ATOM     22  C   UNL d   1      52.815  29.354  53.631  0.00  0.00     0.029 A 
ATOM     23  C   UNL d   1      53.149  29.992  54.033  0.00  0.00     0.028 A 
ENDBRANCH  18  19
ENDBRANCH   8  18
TORSDOF 2
ENDMDL
