MODEL 1
REMARK VINA RESULT:       0.8      0.000      0.000
REMARK  6 active torsions:
REMARK  status: ('A' for Active; 'I' for Inactive)
REMARK    1  A    between atoms: N_7  and  C_1 
REMARK    2  A    between atoms: C_6  and  C_4 
REMARK    3  A    between atoms: C_20  and  N_9 
REMARK    4  A    between atoms: C_23  and  C_13 
REMARK    5  A    between atoms: O_19  and  C_23 
REMARK    6  A    between atoms: C_21  and  O_19 
ROOT
ATOM      1  C   UNL d   1      56.414  -0.161  32.243  0.00  0.00     0.198 A 
ATOM      2  C   UNL d   1      56.592  -0.944  32.034  0.00  0.00     0.191 A 
ATOM      3  O   UNL d   1      56.759   0.343  31.699  0.00  0.00    -0.268 OA
ATOM      4  C   UNL d   1      57.145  -0.105  31.158  0.00  0.00     0.208 A 
ATOM      5  N   UNL d   1      57.052  -0.905  31.350  0.00  0.00    -0.206 NA
ATOM      6  C   UNL d   1      56.363  -1.655  32.422  0.00  0.00     0.124 C 
ATOM      7  N   UNL d   1      56.130  -2.360  32.815  0.00  0.00    -0.190 NA
ENDROOT
BRANCH   1   8
ATOM      8  N   UNL d   1      55.952  -0.020  32.918  0.00  0.00    -0.280 N 
ATOM      9  C   UNL d   1      56.216  -0.273  33.640  0.00  0.00     0.101 A 
ATOM     10  C   UNL d   1      55.756  -0.133  34.310  0.00  0.00     0.100 A 
ATOM     11  N   UNL d   1      55.044   0.256  34.242  0.00  0.00    -0.301 N 
ATOM     12  C   UNL d   1      54.768   0.519  33.497  0.00  0.00     0.100 A 
ATOM     13  C   UNL d   1      55.228   0.380  32.826  0.00  0.00     0.101 A 
BRANCH  11  14
ATOM     14  C   UNL d   1      54.587   0.395  34.908  0.00  0.00     0.064 A 
ATOM     15  C   UNL d   1      53.791   0.530  34.829  0.00  0.00     0.018 A 
ATOM     16  C   UNL d   1      53.328   0.671  35.504  0.00  0.00     0.002 A 
ATOM     17  C   UNL d   1      53.680   0.672  36.233  0.00  0.00     0.000 A 
ATOM     18  C   UNL d   1      54.490   0.536  36.328  0.00  0.00     0.002 A 
ATOM     19  C   UNL d   1      54.953   0.395  35.653  0.00  0.00     0.018 A 
ENDBRANCH  11  14
ENDBRANCH   1   8
BRANCH   4  20
ATOM     20  C   UNL d   1      57.603  -0.318  30.495  0.00  0.00     0.141 A 
ATOM     21  O   UNL d   1      57.923  -0.877  29.989  0.00  0.00    -0.301 OA
ATOM     22  C   UNL d   1      58.352  -0.465  29.431  0.00  0.00     0.125 A 
ATOM     23  C   UNL d   1      58.322   0.320  29.552  0.00  0.00     0.029 A 
ATOM     24  C   UNL d   1      57.857   0.428  30.215  0.00  0.00     0.030 A 
BRANCH  22  25
ATOM     25  C   UNL d   1      58.779  -0.795  28.798  0.00  0.00     0.147 C 
BRANCH  25  26
ATOM     26  O   UNL d   1      59.586  -0.966  28.846  0.00  0.00    -0.303 OA
BRANCH  26  27
ATOM     27  C   UNL d   1      59.854  -1.718  28.810  0.00  0.00     0.100 A 
ATOM     28  C   UNL d   1      60.610  -1.912  29.073  0.00  0.00     0.023 A 
ATOM     29  C   UNL d   1      61.120  -1.303  29.390  0.00  0.00     0.002 C 
ATOM     30  C   UNL d   1      60.905  -2.668  29.047  0.00  0.00     0.002 A 
ATOM     31  C   UNL d   1      60.417  -3.269  28.739  0.00  0.00     0.000 A 
ATOM     32  C   UNL d   1      59.659  -3.099  28.471  0.00  0.00     0.002 A 
ATOM     33  C   UNL d   1      59.393  -2.324  28.512  0.00  0.00     0.025 A 
ENDBRANCH  26  27
ENDBRANCH  25  26
ENDBRANCH  22  25
ENDBRANCH   4  20
TORSDOF 6
ENDMDL
