MODEL 1
REMARK VINA RESULT:      -2.4      0.000      0.000
REMARK  2 active torsions:
REMARK  status: ('A' for Active; 'I' for Inactive)
REMARK    1  A    between atoms: S_5  and  C_3 
REMARK    2  A    between atoms: C_12  and  S_5 
ROOT
ATOM      1  C   UNL d   1      58.723   0.336  31.285  0.00  0.00     0.155 A 
ATOM      2  C   UNL d   1      58.039   0.128  30.892  0.00  0.00     0.092 A 
ATOM      3  C   UNL d   1      57.319   0.179  32.108  0.00  0.00     0.124 A 
ATOM      4  N   UNL d   1      59.430   0.415  30.870  0.00  0.00    -0.210 NA
ATOM      5  N   UNL d   1      58.710   0.466  32.085  0.00  0.00    -0.272 N 
ATOM      6  C   UNL d   1      58.011   0.390  32.506  0.00  0.00     0.181 A 
ATOM      7  C   UNL d   1      58.053  -0.004  30.081  0.00  0.00     0.269 A 
ATOM      8  N   UNL d   1      58.758   0.075  29.670  0.00  0.00    -0.258 N 
ATOM      9  C   UNL d   1      57.336   0.048  31.300  0.00  0.00     0.022 A 
ATOM     10  C   UNL d   1      59.447   0.286  30.072  0.00  0.00     0.152 A 
ATOM     11  N   UNL d   1      58.002   0.524  33.324  0.00  0.00    -0.128 N 
ATOM     12  C   UNL d   1      58.784  -0.055  28.856  0.00  0.00     0.084 A 
ATOM     13  O   UNL d   1      57.357  -0.217  29.674  0.00  0.00    -0.266 OA
ATOM     14  C   UNL d   1      60.154   0.365  29.656  0.00  0.00     0.038 A 
ATOM     15  C   UNL d   1      59.482   0.025  28.455  0.00  0.00     0.019 A 
ATOM     16  C   UNL d   1      60.171   0.236  28.857  0.00  0.00     0.005 A 
ATOM     17  C   UNL d   1      59.412   0.680  32.491  0.00  0.00     0.102 C 
ENDROOT
BRANCH   3  18
ATOM     18  S   UNL d   1      56.610   0.100  32.528  0.00  0.00     0.213 S 
ATOM     19  O   UNL d   1      56.236   0.648  32.022  0.00  0.00    -0.217 OA
ATOM     20  O   UNL d   1      56.971  -0.445  33.036  0.00  0.00    -0.217 OA
BRANCH  18  21
ATOM     21  C   UNL d   1      55.899   0.013  32.959  0.00  0.00     0.088 A 
ATOM     22  C   UNL d   1      55.528   0.676  33.286  0.00  0.00     0.014 A 
ATOM     23  C   UNL d   1      54.818   0.589  33.717  0.00  0.00     0.030 A 
ATOM     24  C   UNL d   1      54.483  -0.163  33.818  0.00  0.00     0.140 A 
ATOM     25  C   UNL d   1      54.865  -0.832  33.482  0.00  0.00     0.030 A 
ATOM     26  F   UNL d   1      53.778  -0.258  34.244  0.00  0.00    -0.204 F 
ATOM     27  C   UNL d   1      55.571  -0.744  33.054  0.00  0.00     0.014 A 
ENDBRANCH  18  21
ENDBRANCH   3  18
TORSDOF 2
ENDMDL
MODEL 2
REMARK VINA RESULT:      -1.7      1.624      1.953
REMARK  2 active torsions:
REMARK  status: ('A' for Active; 'I' for Inactive)
REMARK    1  A    between atoms: S_5  and  C_3 
REMARK    2  A    between atoms: C_12  and  S_5 
ROOT
ATOM      1  C   UNL d   1      59.062  -0.893  30.251  0.00  0.00     0.155 A 
ATOM      2  C   UNL d   1      58.453  -1.433  30.308  0.00  0.00     0.092 A 
ATOM      3  C   UNL d   1      57.773  -0.578  31.205  0.00  0.00     0.124 A 
ATOM      4  N   UNL d   1      59.711  -1.052  29.769  0.00  0.00    -0.210 NA
ATOM      5  N   UNL d   1      59.030  -0.197  30.666  0.00  0.00    -0.272 N 
ATOM      6  C   UNL d   1      58.388  -0.031  31.147  0.00  0.00     0.181 A 
ATOM      7  C   UNL d   1      58.486  -2.138  29.887  0.00  0.00     0.269 A 
ATOM      8  N   UNL d   1      59.133  -2.294  29.408  0.00  0.00    -0.258 N 
ATOM      9  C   UNL d   1      57.808  -1.279  30.784  0.00  0.00     0.022 A 
ATOM     10  C   UNL d   1      59.746  -1.745  29.353  0.00  0.00     0.152 A 
ATOM     11  N   UNL d   1      58.360   0.682  31.571  0.00  0.00    -0.128 N 
ATOM     12  C   UNL d   1      59.177  -2.998  28.981  0.00  0.00     0.084 A 
ATOM     13  O   UNL d   1      57.867  -2.694  29.942  0.00  0.00    -0.266 OA
ATOM     14  C   UNL d   1      60.395  -1.904  28.871  0.00  0.00     0.038 A 
ATOM     15  C   UNL d   1      59.818  -3.147  28.510  0.00  0.00     0.019 A 
ATOM     16  C   UNL d   1      60.430  -2.597  28.455  0.00  0.00     0.005 A 
ATOM     17  C   UNL d   1      59.655   0.359  30.608  0.00  0.00     0.102 C 
ENDROOT
BRANCH   3  18
ATOM     18  S   UNL d   1      57.121  -0.415  31.690  0.00  0.00     0.213 S 
ATOM     19  O   UNL d   1      57.523  -0.722  32.354  0.00  0.00    -0.217 OA
ATOM     20  O   UNL d   1      56.713  -0.108  31.038  0.00  0.00    -0.217 OA
BRANCH  18  21
ATOM     21  C   UNL d   1      56.458  -0.247  32.170  0.00  0.00     0.088 A 
ATOM     22  C   UNL d   1      56.171  -0.817  32.696  0.00  0.00     0.014 A 
ATOM     23  C   UNL d   1      55.507  -0.649  33.175  0.00  0.00     0.030 A 
ATOM     24  C   UNL d   1      55.135   0.090  33.125  0.00  0.00     0.140 A 
ATOM     25  C   UNL d   1      55.433   0.665  32.588  0.00  0.00     0.030 A 
ATOM     26  F   UNL d   1      54.477   0.265  33.597  0.00  0.00    -0.204 F 
ATOM     27  C   UNL d   1      56.092   0.496  32.112  0.00  0.00     0.014 A 
ENDBRANCH  18  21
ENDBRANCH   3  18
TORSDOF 2
ENDMDL
MODEL 3
REMARK VINA RESULT:      -1.1      0.821      1.026
REMARK  2 active torsions:
REMARK  status: ('A' for Active; 'I' for Inactive)
REMARK    1  A    between atoms: S_5  and  C_3 
REMARK    2  A    between atoms: C_12  and  S_5 
ROOT
ATOM      1  C   UNL d   1      58.524   0.625  31.678  0.00  0.00     0.155 A 
ATOM      2  C   UNL d   1      57.763   0.596  31.385  0.00  0.00     0.092 A 
ATOM      3  C   UNL d   1      57.252   0.623  32.703  0.00  0.00     0.124 A 
ATOM      4  N   UNL d   1      59.165   0.626  31.160  0.00  0.00    -0.210 NA
ATOM      5  N   UNL d   1      58.653   0.652  32.478  0.00  0.00    -0.272 N 
ATOM      6  C   UNL d   1      58.022   0.651  32.999  0.00  0.00     0.181 A 
ATOM      7  C   UNL d   1      57.633   0.569  30.574  0.00  0.00     0.269 A 
ATOM      8  N   UNL d   1      58.273   0.570  30.061  0.00  0.00    -0.258 N 
ATOM      9  C   UNL d   1      57.126   0.595  31.895  0.00  0.00     0.022 A 
ATOM     10  C   UNL d   1      59.040   0.599  30.362  0.00  0.00     0.152 A 
ATOM     11  N   UNL d   1      58.158   0.679  33.817  0.00  0.00    -0.128 N 
ATOM     12  C   UNL d   1      58.154   0.543  29.246  0.00  0.00     0.084 A 
ATOM     13  O   UNL d   1      56.857   0.540  30.271  0.00  0.00    -0.266 OA
ATOM     14  C   UNL d   1      59.681   0.600  29.844  0.00  0.00     0.038 A 
ATOM     15  C   UNL d   1      58.789   0.544  28.744  0.00  0.00     0.019 A 
ATOM     16  C   UNL d   1      59.557   0.573  29.044  0.00  0.00     0.005 A 
ATOM     17  C   UNL d   1      59.436   0.682  32.779  0.00  0.00     0.102 C 
ENDROOT
BRANCH   3  18
ATOM     18  S   UNL d   1      56.609   0.621  33.226  0.00  0.00     0.213 S 
ATOM     19  O   UNL d   1      57.125   0.668  33.880  0.00  0.00    -0.217 OA
ATOM     20  O   UNL d   1      56.087   0.576  32.584  0.00  0.00    -0.217 OA
BRANCH  18  21
ATOM     21  C   UNL d   1      55.953   0.620  33.744  0.00  0.00     0.088 A 
ATOM     22  C   UNL d   1      56.069   0.681  34.561  0.00  0.00     0.014 A 
ATOM     23  C   UNL d   1      55.413   0.679  35.078  0.00  0.00     0.030 A 
ATOM     24  C   UNL d   1      54.644   0.616  34.774  0.00  0.00     0.140 A 
ATOM     25  C   UNL d   1      54.534   0.554  33.943  0.00  0.00     0.030 A 
ATOM     26  F   UNL d   1      53.988   0.614  35.281  0.00  0.00    -0.204 F 
ATOM     27  C   UNL d   1      55.187   0.556  33.430  0.00  0.00     0.014 A 
ENDBRANCH  18  21
ENDBRANCH   3  18
TORSDOF 2
ENDMDL
MODEL 4
REMARK VINA RESULT:       0.0      1.351      1.938
REMARK  2 active torsions:
REMARK  status: ('A' for Active; 'I' for Inactive)
REMARK    1  A    between atoms: S_5  and  C_3 
REMARK    2  A    between atoms: C_12  and  S_5 
ROOT
ATOM      1  C   UNL d   1      58.575  -1.103  29.987  0.00  0.00     0.155 A 
ATOM      2  C   UNL d   1      58.736  -0.443  30.439  0.00  0.00     0.092 A 
ATOM      3  C   UNL d   1      57.565  -0.672  31.197  0.00  0.00     0.124 A 
ATOM      4  N   UNL d   1      59.085  -1.320  29.377  0.00  0.00    -0.210 NA
ATOM      5  N   UNL d   1      57.913  -1.547  30.136  0.00  0.00    -0.272 N 
ATOM      6  C   UNL d   1      57.402  -1.339  30.740  0.00  0.00     0.181 A 
ATOM      7  C   UNL d   1      59.407   0.007  30.288  0.00  0.00     0.269 A 
ATOM      8  N   UNL d   1      59.913  -0.211  29.680  0.00  0.00    -0.258 N 
ATOM      9  C   UNL d   1      58.234  -0.225  31.044  0.00  0.00     0.022 A 
ATOM     10  C   UNL d   1      59.745  -0.878  29.226  0.00  0.00     0.152 A 
ATOM     11  N   UNL d   1      56.726  -1.797  30.889  0.00  0.00    -0.128 N 
ATOM     12  C   UNL d   1      60.588   0.233  29.520  0.00  0.00     0.084 A 
ATOM     13  O   UNL d   1      59.576   0.682  30.747  0.00  0.00    -0.266 OA
ATOM     14  C   UNL d   1      60.255  -1.095  28.616  0.00  0.00     0.038 A 
ATOM     15  C   UNL d   1      61.084   0.014  28.919  0.00  0.00     0.019 A 
ATOM     16  C   UNL d   1      60.916  -0.654  28.464  0.00  0.00     0.005 A 
ATOM     17  C   UNL d   1      57.746  -2.226  29.671  0.00  0.00     0.102 C 
ENDROOT
BRANCH   3  18
ATOM     18  S   UNL d   1      57.051  -0.456  31.810  0.00  0.00     0.213 S 
ATOM     19  O   UNL d   1      56.679   0.104  31.317  0.00  0.00    -0.217 OA
ATOM     20  O   UNL d   1      57.413  -1.009  32.309  0.00  0.00    -0.217 OA
BRANCH  18  21
ATOM     21  C   UNL d   1      56.538  -0.247  32.435  0.00  0.00     0.088 A 
ATOM     22  C   UNL d   1      55.920  -0.752  32.653  0.00  0.00     0.014 A 
ATOM     23  C   UNL d   1      55.407  -0.543  33.278  0.00  0.00     0.030 A 
ATOM     24  C   UNL d   1      55.516   0.172  33.683  0.00  0.00     0.140 A 
ATOM     25  C   UNL d   1      56.146   0.681  33.457  0.00  0.00     0.030 A 
ATOM     26  F   UNL d   1      55.011   0.387  34.304  0.00  0.00    -0.204 F 
ATOM     27  C   UNL d   1      56.655   0.472  32.835  0.00  0.00     0.014 A 
ENDBRANCH  18  21
ENDBRANCH   3  18
TORSDOF 2
ENDMDL
