MODEL 1
REMARK VINA RESULT:      52.6      0.000      0.000
REMARK  4 active torsions:
REMARK  status: ('A' for Active; 'I' for Inactive)
REMARK    1  A    between atoms: C_11  and  C_3 
REMARK    2  A    between atoms: N_10  and  C_4 
REMARK    3  A    between atoms: C_12  and  N_10 
REMARK    4  A    between atoms: C_13  and  C_12 
ROOT
ATOM      1  C   UNL d   1      13.826  14.431  -3.850  0.00  0.00     0.167 A 
ATOM      2  N   UNL d   1      13.759  14.106  -3.096  0.00  0.00    -0.195 N 
ATOM      3  C   UNL d   1      14.090  15.201  -3.769  0.00  0.00     0.057 A 
ATOM      4  C   UNL d   1      13.502  13.330  -3.003  0.00  0.00     0.167 A 
ATOM      5  N   UNL d   1      13.983  14.679  -2.556  0.00  0.00    -0.161 NA
ATOM      6  N   UNL d   1      13.636  13.980  -4.511  0.00  0.00    -0.227 NA
ATOM      7  C   UNL d   1      13.311  12.878  -3.670  0.00  0.00     0.058 A 
ATOM      8  C   UNL d   1      14.186  15.349  -2.963  0.00  0.00     0.124 A 
ATOM      9  C   UNL d   1      13.378  13.199  -4.416  0.00  0.00     0.086 A 
ATOM     10  C   UNL d   1      13.182  12.728  -5.066  0.00  0.00     0.021 C 
ENDROOT
BRANCH   4  11
ATOM     11  N   UNL d   1      13.435  13.005  -2.248  0.00  0.00    -0.225 NA
BRANCH  11  12
ATOM     12  C   UNL d   1      13.715  12.247  -2.101  0.00  0.00     0.101 C 
BRANCH  12  13
ATOM     13  C   UNL d   1      14.151  12.090  -1.409  0.00  0.00     0.019 A 
ATOM     14  C   UNL d   1      13.759  11.934  -0.696  0.00  0.00     0.002 A 
ATOM     15  C   UNL d   1      14.188  11.781  -0.015  0.00  0.00     0.000 A 
ATOM     16  C   UNL d   1      15.017  11.780  -0.035  0.00  0.00     0.000 A 
ATOM     17  C   UNL d   1      15.405  11.936  -0.747  0.00  0.00     0.000 A 
ATOM     18  C   UNL d   1      14.971  12.091  -1.435  0.00  0.00     0.002 A 
ENDBRANCH  12  13
ENDBRANCH  11  12
ENDBRANCH   4  11
BRANCH   3  19
ATOM     19  C   UNL d   1      14.214  15.677  -4.434  0.00  0.00     0.004 A 
ATOM     20  C   UNL d   1      13.666  15.656  -5.054  0.00  0.00     0.000 A 
ATOM     21  C   UNL d   1      13.781  16.126  -5.717  0.00  0.00     0.000 A 
ATOM     22  C   UNL d   1      14.447  16.623  -5.766  0.00  0.00     0.000 A 
ATOM     23  C   UNL d   1      14.988  16.637  -5.144  0.00  0.00     0.000 A 
ATOM     24  C   UNL d   1      14.869  16.163  -4.478  0.00  0.00     0.000 A 
ENDBRANCH   3  19
TORSDOF 4
ENDMDL
