MODEL 1
REMARK VINA RESULT:      75.6      0.000      0.000
REMARK  6 active torsions:
REMARK  status: ('A' for Active; 'I' for Inactive)
REMARK    1  A    between atoms: C_9  and  N_1 
REMARK    2  A    between atoms: C_3  and  C_2 
REMARK    3  A    between atoms: C_12  and  C_9 
REMARK    4  A    between atoms: C_15  and  C_9 
REMARK    5  A    between atoms: C_20  and  C_15 
REMARK    6  A    between atoms: C_17  and  C_20 
ROOT
ATOM      1  N   UNL d   1     -47.417  30.241  35.477  0.00  0.00    -0.254 N 
ATOM      2  C   UNL d   1     -47.440  31.433  35.028  0.00  0.00     0.093 A 
ATOM      3  C   UNL d   1     -47.348  30.676  36.100  0.00  0.00     0.153 A 
ATOM      4  C   UNL d   1     -47.476  30.669  34.797  0.00  0.00     0.272 A 
ATOM      5  S   UNL d   1     -47.361  31.436  35.831  0.00  0.00    -0.053 SA
ATOM      6  S   UNL d   1     -47.277  30.384  36.874  0.00  0.00    -0.052 SA
ATOM      7  O   UNL d   1     -47.555  30.403  34.035  0.00  0.00    -0.266 OA
ENDROOT
BRANCH   2   8
ATOM      8  C   UNL d   1     -47.477  32.091  34.531  0.00  0.00     0.070 A 
ATOM      9  C   UNL d   1     -46.770  32.420  34.309  0.00  0.00     0.280 A 
ATOM     10  N   UNL d   1     -46.914  33.075  33.811  0.00  0.00    -0.208 NA
ATOM     11  O   UNL d   1     -46.021  32.153  34.538  0.00  0.00    -0.265 OA
ATOM     12  C   UNL d   1     -47.730  33.142  33.730  0.00  0.00     0.085 A 
ATOM     13  C   UNL d   1     -48.089  32.540  34.170  0.00  0.00     0.023 A 
ATOM     14  C   UNL d   1     -48.208  33.682  33.306  0.00  0.00     0.019 A 
ATOM     15  C   UNL d   1     -48.877  32.472  34.192  0.00  0.00     0.002 A 
ATOM     16  C   UNL d   1     -49.345  32.980  33.792  0.00  0.00     0.000 A 
ATOM     17  C   UNL d   1     -49.020  33.617  33.324  0.00  0.00     0.002 A 
ENDBRANCH   2   8
BRANCH   1  18
ATOM     18  C   UNL d   1     -47.424  29.380  35.554  0.00  0.00     0.133 C 
BRANCH  18  19
ATOM     19  C   UNL d   1     -46.684  28.993  35.510  0.00  0.00     0.228 C 
ATOM     20  O   UNL d   1     -46.257  28.818  36.159  0.00  0.00    -0.643 OA
ATOM     21  O   UNL d   1     -46.412  28.797  34.736  0.00  0.00    -0.643 OA
ENDBRANCH  18  19
BRANCH  18  22
ATOM     22  C   UNL d   1     -48.111  28.978  35.662  0.00  0.00     0.030 C 
BRANCH  22  23
ATOM     23  C   UNL d   1     -48.305  28.414  35.092  0.00  0.00     0.072 C 
BRANCH  23  24
ATOM     24  C   UNL d   1     -48.931  27.873  35.317  0.00  0.00     0.211 C 
ATOM     25  O   UNL d   1     -49.132  27.239  34.842  0.00  0.00    -0.644 OA
ATOM     26  O   UNL d   1     -49.305  28.028  36.020  0.00  0.00    -0.644 OA
ENDBRANCH  23  24
ENDBRANCH  22  23
ENDBRANCH  18  22
ENDBRANCH   1  18
TORSDOF 6
ENDMDL
MODEL 2
REMARK VINA RESULT:      75.8      1.230      1.751
REMARK  6 active torsions:
REMARK  status: ('A' for Active; 'I' for Inactive)
REMARK    1  A    between atoms: C_9  and  N_1 
REMARK    2  A    between atoms: C_3  and  C_2 
REMARK    3  A    between atoms: C_12  and  C_9 
REMARK    4  A    between atoms: C_15  and  C_9 
REMARK    5  A    between atoms: C_20  and  C_15 
REMARK    6  A    between atoms: C_17  and  C_20 
ROOT
ATOM      1  N   UNL d   1     -48.049  29.273  35.138  0.00  0.00    -0.254 N 
ATOM      2  C   UNL d   1     -47.584  30.458  35.071  0.00  0.00     0.093 A 
ATOM      3  C   UNL d   1     -47.310  29.193  35.312  0.00  0.00     0.153 A 
ATOM      4  C   UNL d   1     -48.256  30.036  34.983  0.00  0.00     0.272 A 
ATOM      5  S   UNL d   1     -47.002  29.937  35.274  0.00  0.00    -0.053 SA
ATOM      6  S   UNL d   1     -46.944  28.470  35.495  0.00  0.00    -0.052 SA
ATOM      7  O   UNL d   1     -48.984  30.334  34.781  0.00  0.00    -0.266 OA
ENDROOT
BRANCH   2   8
ATOM      8  C   UNL d   1     -47.507  31.273  34.972  0.00  0.00     0.070 A 
ATOM      9  C   UNL d   1     -47.072  31.668  35.531  0.00  0.00     0.280 A 
ATOM     10  N   UNL d   1     -47.053  32.483  35.343  0.00  0.00    -0.208 NA
ATOM     11  O   UNL d   1     -46.702  31.324  36.187  0.00  0.00    -0.265 OA
ATOM     12  C   UNL d   1     -47.489  32.580  34.652  0.00  0.00     0.085 A 
ATOM     13  C   UNL d   1     -47.774  31.841  34.413  0.00  0.00     0.023 A 
ATOM     14  C   UNL d   1     -47.670  33.257  34.195  0.00  0.00     0.019 A 
ATOM     15  C   UNL d   1     -48.215  31.770  33.759  0.00  0.00     0.002 A 
ATOM     16  C   UNL d   1     -48.395  32.408  33.314  0.00  0.00     0.000 A 
ATOM     17  C   UNL d   1     -48.123  33.192  33.521  0.00  0.00     0.002 A 
ENDBRANCH   2   8
BRANCH   1  18
ATOM     18  C   UNL d   1     -48.564  28.579  35.123  0.00  0.00     0.133 C 
BRANCH  18  19
ATOM     19  C   UNL d   1     -48.843  28.303  35.862  0.00  0.00     0.228 C 
ATOM     20  O   UNL d   1     -49.380  27.718  35.922  0.00  0.00    -0.643 OA
ATOM     21  O   UNL d   1     -48.522  28.680  36.545  0.00  0.00    -0.643 OA
ENDBRANCH  18  19
BRANCH  18  22
ATOM     22  C   UNL d   1     -48.761  28.222  34.431  0.00  0.00     0.030 C 
BRANCH  22  23
ATOM     23  C   UNL d   1     -49.323  27.620  34.471  0.00  0.00     0.072 C 
BRANCH  23  24
ATOM     24  C   UNL d   1     -49.552  27.289  33.714  0.00  0.00     0.211 C 
ATOM     25  O   UNL d   1     -50.208  27.566  33.312  0.00  0.00    -0.644 OA
ATOM     26  O   UNL d   1     -49.084  26.692  33.426  0.00  0.00    -0.644 OA
ENDBRANCH  23  24
ENDBRANCH  22  23
ENDBRANCH  18  22
ENDBRANCH   1  18
TORSDOF 6
ENDMDL
