MODEL 1
REMARK VINA RESULT:      -5.4      0.000      0.000
REMARK  4 active torsions:
REMARK  status: ('A' for Active; 'I' for Inactive)
REMARK    1  A    between atoms: C_5  and  C_1 
REMARK       I    between atoms: N_8  and  C_5 
REMARK    2  A    between atoms: C_10  and  N_8 
REMARK    3  A    between atoms: C_13  and  C_10 
REMARK    4  A    between atoms: C_11  and  C_13 
ROOT
ATOM      1  C   UNL d   1      58.103   0.188  30.191  0.00  0.00     0.299 C 
ATOM      2  O   UNL d   1      57.436   0.379  29.756  0.00  0.00    -0.263 OA
ATOM      3  N   UNL d   1      58.044   0.066  31.006  0.00  0.00    -0.205 NA
ENDROOT
BRANCH   1   4
ATOM      4  C   UNL d   1      58.836   0.116  29.817  0.00  0.00     0.162 A 
ATOM      5  N   UNL d   1      59.428   0.682  29.815  0.00  0.00    -0.143 NA
ATOM      6  N   UNL d   1      60.069   0.388  29.376  0.00  0.00    -0.148 NA
ATOM      7  C   UNL d   1      59.854  -0.371  29.108  0.00  0.00     0.105 A 
ATOM      8  C   UNL d   1      59.093  -0.536  29.382  0.00  0.00     0.044 A 
ATOM      9  C   UNL d   1      60.257  -0.917  28.657  0.00  0.00     0.021 A 
ATOM     10  C   UNL d   1      58.744  -1.256  29.196  0.00  0.00     0.003 A 
ATOM     11  C   UNL d   1      59.144  -1.799  28.747  0.00  0.00     0.000 A 
ATOM     12  C   UNL d   1      59.898  -1.634  28.477  0.00  0.00     0.002 A 
ENDBRANCH   1   4
BRANCH   3  13
ATOM     13  C   UNL d   1      57.311   0.137  31.381  0.00  0.00     0.102 C 
BRANCH  13  14
ATOM     14  C   UNL d   1      57.279   0.176  32.209  0.00  0.00     0.021 C 
BRANCH  14  15
ATOM     15  C   UNL d   1      56.570  -0.021  32.593  0.00  0.00     0.002 A 
ATOM     16  C   UNL d   1      56.134   0.580  32.964  0.00  0.00     0.000 A 
ATOM     17  C   UNL d   1      55.425   0.382  33.348  0.00  0.00     0.000 A 
ATOM     18  C   UNL d   1      55.160  -0.392  33.360  0.00  0.00     0.000 A 
ATOM     19  C   UNL d   1      55.602  -0.978  32.989  0.00  0.00     0.000 A 
ATOM     20  C   UNL d   1      56.297  -0.802  32.610  0.00  0.00     0.000 A 
ENDBRANCH  14  15
ENDBRANCH  13  14
ENDBRANCH   3  13
TORSDOF 4
ENDMDL
MODEL 2
REMARK VINA RESULT:      -5.1      1.099      4.931
REMARK  4 active torsions:
REMARK  status: ('A' for Active; 'I' for Inactive)
REMARK    1  A    between atoms: C_5  and  C_1 
REMARK       I    between atoms: N_8  and  C_5 
REMARK    2  A    between atoms: C_10  and  N_8 
REMARK    3  A    between atoms: C_13  and  C_10 
REMARK    4  A    between atoms: C_11  and  C_13 
ROOT
ATOM      1  C   UNL d   1      57.338  -0.054  31.461  0.00  0.00     0.299 C 
ATOM      2  O   UNL d   1      57.586   0.678  31.733  0.00  0.00    -0.263 OA
ATOM      3  N   UNL d   1      57.597  -0.333  30.728  0.00  0.00    -0.205 NA
ENDROOT
BRANCH   1   4
ATOM      4  C   UNL d   1      56.827  -0.514  31.920  0.00  0.00     0.162 A 
ATOM      5  N   UNL d   1      56.778  -1.331  31.904  0.00  0.00    -0.143 NA
ATOM      6  N   UNL d   1      56.196  -1.569  32.449  0.00  0.00    -0.148 NA
ATOM      7  C   UNL d   1      55.891  -0.876  32.797  0.00  0.00     0.105 A 
ATOM      8  C   UNL d   1      56.282  -0.227  32.468  0.00  0.00     0.044 A 
ATOM      9  C   UNL d   1      55.315  -0.767  33.362  0.00  0.00     0.021 A 
ATOM     10  C   UNL d   1      56.085   0.530  32.716  0.00  0.00     0.003 A 
ATOM     11  C   UNL d   1      55.512   0.640  33.279  0.00  0.00     0.000 A 
ATOM     12  C   UNL d   1      55.126  -0.004  33.602  0.00  0.00     0.002 A 
ENDBRANCH   1   4
BRANCH   3  13
ATOM     13  C   UNL d   1      58.107   0.127  30.269  0.00  0.00     0.102 C 
BRANCH  13  14
ATOM     14  C   UNL d   1      58.209  -0.056  29.467  0.00  0.00     0.021 C 
BRANCH  14  15
ATOM     15  C   UNL d   1      58.972  -0.024  29.142  0.00  0.00     0.002 A 
ATOM     16  C   UNL d   1      59.455  -0.699  29.185  0.00  0.00     0.000 A 
ATOM     17  C   UNL d   1      60.218  -0.667  28.860  0.00  0.00     0.000 A 
ATOM     18  C   UNL d   1      60.491   0.018  28.504  0.00  0.00     0.000 A 
ATOM     19  C   UNL d   1      60.003   0.678  28.469  0.00  0.00     0.000 A 
ATOM     20  C   UNL d   1      59.255   0.664  28.781  0.00  0.00     0.000 A 
ENDBRANCH  14  15
ENDBRANCH  13  14
ENDBRANCH   3  13
TORSDOF 4
ENDMDL
MODEL 3
REMARK VINA RESULT:      -3.7      1.297      4.858
REMARK  4 active torsions:
REMARK  status: ('A' for Active; 'I' for Inactive)
REMARK    1  A    between atoms: C_5  and  C_1 
REMARK       I    between atoms: N_8  and  C_5 
REMARK    2  A    between atoms: C_10  and  N_8 
REMARK    3  A    between atoms: C_13  and  C_10 
REMARK    4  A    between atoms: C_11  and  C_13 
ROOT
ATOM      1  C   UNL d   1      57.409  -1.171  30.849  0.00  0.00     0.299 C 
ATOM      2  O   UNL d   1      57.153  -1.941  30.958  0.00  0.00    -0.263 OA
ATOM      3  N   UNL d   1      57.983  -1.002  30.279  0.00  0.00    -0.205 NA
ENDROOT
BRANCH   1   4
ATOM      4  C   UNL d   1      57.095  -0.561  31.309  0.00  0.00     0.162 A 
ATOM      5  N   UNL d   1      57.197   0.240  31.173  0.00  0.00    -0.143 NA
ATOM      6  N   UNL d   1      56.789   0.659  31.765  0.00  0.00    -0.148 NA
ATOM      7  C   UNL d   1      56.436   0.095  32.265  0.00  0.00     0.105 A 
ATOM      8  C   UNL d   1      56.627  -0.657  31.981  0.00  0.00     0.044 A 
ATOM      9  C   UNL d   1      55.974   0.179  32.930  0.00  0.00     0.021 A 
ATOM     10  C   UNL d   1      56.346  -1.320  32.376  0.00  0.00     0.003 A 
ATOM     11  C   UNL d   1      55.886  -1.236  33.039  0.00  0.00     0.000 A 
ATOM     12  C   UNL d   1      55.699  -0.491  33.317  0.00  0.00     0.002 A 
ENDBRANCH   1   4
BRANCH   3  13
ATOM     13  C   UNL d   1      58.297  -1.612  29.819  0.00  0.00     0.102 C 
BRANCH  13  14
ATOM     14  C   UNL d   1      58.934  -1.452  29.312  0.00  0.00     0.021 C 
BRANCH  14  15
ATOM     15  C   UNL d   1      59.402  -2.084  29.044  0.00  0.00     0.002 A 
ATOM     16  C   UNL d   1      59.028  -2.756  28.732  0.00  0.00     0.000 A 
ATOM     17  C   UNL d   1      59.496  -3.387  28.464  0.00  0.00     0.000 A 
ATOM     18  C   UNL d   1      60.313  -3.348  28.508  0.00  0.00     0.000 A 
ATOM     19  C   UNL d   1      60.670  -2.676  28.820  0.00  0.00     0.000 A 
ATOM     20  C   UNL d   1      60.227  -2.051  29.085  0.00  0.00     0.000 A 
ENDBRANCH  14  15
ENDBRANCH  13  14
ENDBRANCH   3  13
TORSDOF 4
ENDMDL
MODEL 4
REMARK VINA RESULT:      -3.7      1.245      1.796
REMARK  4 active torsions:
REMARK  status: ('A' for Active; 'I' for Inactive)
REMARK    1  A    between atoms: C_5  and  C_1 
REMARK       I    between atoms: N_8  and  C_5 
REMARK    2  A    between atoms: C_10  and  N_8 
REMARK    3  A    between atoms: C_13  and  C_10 
REMARK    4  A    between atoms: C_11  and  C_13 
ROOT
ATOM      1  C   UNL d   1      57.563  -0.313  31.338  0.00  0.00     0.299 C 
ATOM      2  O   UNL d   1      58.043   0.173  31.790  0.00  0.00    -0.263 OA
ATOM      3  N   UNL d   1      56.779  -0.444  31.561  0.00  0.00    -0.205 NA
ENDROOT
BRANCH   1   4
ATOM      4  C   UNL d   1      57.863  -0.675  30.658  0.00  0.00     0.162 A 
ATOM      5  N   UNL d   1      57.715  -1.445  30.422  0.00  0.00    -0.143 NA
ATOM      6  N   UNL d   1      58.123  -1.584  29.711  0.00  0.00    -0.148 NA
ATOM      7  C   UNL d   1      58.523  -0.879  29.518  0.00  0.00     0.105 A 
ATOM      8  C   UNL d   1      58.361  -0.321  30.104  0.00  0.00     0.044 A 
ATOM      9  C   UNL d   1      59.005  -0.689  28.890  0.00  0.00     0.021 A 
ATOM     10  C   UNL d   1      58.691   0.429  30.048  0.00  0.00     0.003 A 
ATOM     11  C   UNL d   1      59.171   0.619  29.423  0.00  0.00     0.000 A 
ATOM     12  C   UNL d   1      59.329   0.064  28.844  0.00  0.00     0.002 A 
ENDBRANCH   1   4
BRANCH   3  13
ATOM     13  C   UNL d   1      56.479  -0.083  32.240  0.00  0.00     0.102 C 
BRANCH  13  14
ATOM     14  C   UNL d   1      55.862  -0.449  32.657  0.00  0.00     0.021 C 
BRANCH  14  15
ATOM     15  C   UNL d   1      55.551  -0.070  33.327  0.00  0.00     0.002 A 
ATOM     16  C   UNL d   1      56.064   0.135  33.947  0.00  0.00     0.000 A 
ATOM     17  C   UNL d   1      55.752   0.514  34.617  0.00  0.00     0.000 A 
ATOM     18  C   UNL d   1      54.952   0.682  34.666  0.00  0.00     0.000 A 
ATOM     19  C   UNL d   1      54.456   0.473  34.045  0.00  0.00     0.000 A 
ATOM     20  C   UNL d   1      54.744   0.103  33.384  0.00  0.00     0.000 A 
ENDBRANCH  14  15
ENDBRANCH  13  14
ENDBRANCH   3  13
TORSDOF 4
ENDMDL
