MODEL 1
REMARK VINA RESULT:      29.1      0.000      0.000
REMARK  6 active torsions:
REMARK  status: ('A' for Active; 'I' for Inactive)
REMARK    1  A    between atoms: C_2  and  S_1 
REMARK    2  A    between atoms: N_3  and  S_1 
REMARK    3  A    between atoms: C_10  and  N_3 
REMARK    4  A    between atoms: O_15  and  C_5 
REMARK    5  A    between atoms: C_13  and  C_10 
REMARK    6  A    between atoms: C_17  and  O_15 
ROOT
ATOM      1  S   UNL d   1     -54.726-101.983 -41.994  0.00  0.00     0.285 S 
ATOM      2  O   UNL d   1     -54.740-101.185 -41.766  0.00  0.00    -0.198 OA
ATOM      3  O   UNL d   1     -54.713-102.775 -42.220  0.00  0.00    -0.198 OA
ENDROOT
BRANCH   1   4
ATOM      4  C   UNL d   1     -54.732-101.757 -42.787  0.00  0.00     0.107 A 
ATOM      5  C   UNL d   1     -54.730-100.954 -42.988  0.00  0.00     0.038 A 
ATOM      6  C   UNL d   1     -54.735-100.726 -43.789  0.00  0.00     0.111 A 
ATOM      7  C   UNL d   1     -54.743-101.302 -44.383  0.00  0.00     0.081 A 
ATOM      8  C   UNL d   1     -54.745-102.100 -44.181  0.00  0.00     0.014 A 
ATOM      9 CL   UNL d   1     -54.749-101.076 -45.176  0.00  0.00    -0.080 Cl
ATOM     10  C   UNL d   1     -54.740-102.328 -43.379  0.00  0.00     0.014 A 
BRANCH   6  11
ATOM     11  O   UNL d   1     -54.733 -99.927 -43.991  0.00  0.00    -0.304 OA
BRANCH  11  12
ATOM     12  C   UNL d   1     -55.429 -99.567 -44.244  0.00  0.00     0.123 C 
ATOM     13  C   UNL d   1     -55.433 -98.763 -44.423  0.00  0.00     0.029 C 
ENDBRANCH  11  12
ENDBRANCH   6  11
ENDBRANCH   1   4
BRANCH   1  14
ATOM     14  N   UNL d   1     -54.721-102.209 -41.200  0.00  0.00    -0.155 NA
BRANCH  14  15
ATOM     15  C   UNL d   1     -55.301-101.921 -40.686  0.00  0.00     0.131 C 
BRANCH  15  16
ATOM     16  C   UNL d   1     -55.374-102.240 -39.929  0.00  0.00     0.101 A 
ATOM     17  N   UNL d   1     -56.098-102.537 -39.673  0.00  0.00    -0.242 NA
ATOM     18  C   UNL d   1     -56.171-102.856 -38.916  0.00  0.00     0.099 A 
ATOM     19  C   UNL d   1     -55.518-102.878 -38.414  0.00  0.00     0.021 A 
ATOM     20  C   UNL d   1     -54.790-102.580 -38.668  0.00  0.00     0.003 A 
ATOM     21  C   UNL d   1     -54.717-102.262 -39.425  0.00  0.00     0.021 A 
ENDBRANCH  15  16
ENDBRANCH  14  15
ENDBRANCH   1  14
TORSDOF 6
ENDMDL
