MODEL 1
REMARK VINA RESULT:      15.9      0.000      0.000
REMARK  6 active torsions:
REMARK  status: ('A' for Active; 'I' for Inactive)
REMARK    1  A    between atoms: C_5  and  N_1 
REMARK    2  A    between atoms: N_2  and  C_5 
REMARK    3  A    between atoms: C_12  and  C_9 
REMARK    4  A    between atoms: C_14  and  C_10 
REMARK    5  A    between atoms: O_29  and  C_20 
REMARK    6  A    between atoms: O_28  and  C_21 
ROOT
ATOM      1  N   UNL d   1     -41.815-121.387 -52.327  0.00  0.00    -0.211 N 
ATOM      2  N   UNL d   1     -41.890-122.055 -51.868  0.00  0.00    -0.164 NA
ATOM      3  C   UNL d   1     -41.758-121.831 -51.083  0.00  0.00     0.103 A 
ATOM      4  C   UNL d   1     -41.639-120.759 -51.838  0.00  0.00     0.086 A 
ATOM      5  C   UNL d   1     -41.609-121.054 -51.070  0.00  0.00     0.040 A 
ENDROOT
BRANCH   1   6
ATOM      6  C   UNL d   1     -41.884-121.264 -53.142  0.00  0.00     0.186 C 
BRANCH   6   7
ATOM      7  N   UNL d   1     -41.881-121.911 -53.649  0.00  0.00    -0.254 N 
ATOM      8  C   UNL d   1     -41.360-122.556 -53.676  0.00  0.00     0.305 A 
ATOM      9  C   UNL d   1     -41.555-123.078 -54.265  0.00  0.00     0.253 A 
ATOM     10  O   UNL d   1     -41.123-122.065 -53.071  0.00  0.00    -0.263 OA
ATOM     11  O   UNL d   1     -41.168-123.778 -54.460  0.00  0.00    -0.281 OA
ATOM     12  C   UNL d   1     -42.230-122.761 -54.638  0.00  0.00     0.060 A 
ATOM     13  C   UNL d   1     -42.429-122.049 -54.261  0.00  0.00     0.072 A 
ATOM     14  C   UNL d   1     -42.689-123.039 -55.280  0.00  0.00     0.005 A 
ATOM     15  C   UNL d   1     -43.090-121.606 -54.521  0.00  0.00     0.018 A 
ATOM     16  C   UNL d   1     -43.535-121.887 -55.153  0.00  0.00     0.002 A 
ATOM     17  C   UNL d   1     -43.336-122.598 -55.529  0.00  0.00     0.000 A 
ENDBRANCH   6   7
ENDBRANCH   1   6
BRANCH   4  18
ATOM     18  C   UNL d   1     -41.511-119.975 -52.030  0.00  0.00     0.018 A 
ATOM     19  C   UNL d   1     -41.394-119.400 -51.451  0.00  0.00     0.004 A 
ATOM     20  C   UNL d   1     -41.263-118.599 -51.655  0.00  0.00     0.024 A 
ATOM     21  C   UNL d   1     -41.251-118.378 -52.443  0.00  0.00     0.094 A 
ATOM     22  C   UNL d   1     -41.369-118.952 -53.032  0.00  0.00     0.024 A 
ATOM     23  C   UNL d   1     -41.497-119.742 -52.832  0.00  0.00     0.004 A 
BRANCH  21  24
ATOM     24  O   UNL d   1     -41.123-117.587 -52.652  0.00  0.00    -0.328 OA
ATOM     25  C   UNL d   1     -41.186-117.354 -53.446  0.00  0.00     0.181 C 
ENDBRANCH  21  24
ENDBRANCH   4  18
BRANCH   3  26
ATOM     26  C   UNL d   1     -41.783-122.346 -50.435  0.00  0.00     0.019 A 
ATOM     27  C   UNL d   1     -41.635-122.043 -49.675  0.00  0.00     0.004 A 
ATOM     28  C   UNL d   1     -41.655-122.536 -49.027  0.00  0.00     0.024 A 
ATOM     29  C   UNL d   1     -41.823-123.317 -49.150  0.00  0.00     0.094 A 
ATOM     30  C   UNL d   1     -41.968-123.617 -49.886  0.00  0.00     0.024 A 
ATOM     31  C   UNL d   1     -41.948-123.123 -50.534  0.00  0.00     0.004 A 
BRANCH  29  32
ATOM     32  O   UNL d   1     -41.843-123.808 -48.503  0.00  0.00    -0.328 OA
ATOM     33  C   UNL d   1     -42.212-123.559 -47.799  0.00  0.00     0.181 C 
ENDBRANCH  29  32
ENDBRANCH   3  26
TORSDOF 6
ENDMDL
