MODEL 1
REMARK VINA RESULT:      -6.6      0.000      0.000
REMARK  3 active torsions:
REMARK  status: ('A' for Active; 'I' for Inactive)
REMARK    1  A    between atoms: C_4  and  C_1 
REMARK    2  A    between atoms: C_9  and  N_2 
REMARK    3  A    between atoms: C_8  and  C_13 
ROOT
ATOM      1  N   UNL d   1      56.657  -0.189  32.625  0.00  0.00    -0.273 N 
ATOM      2  C   UNL d   1      57.299  -0.323  31.447  0.00  0.00     0.056 A 
ATOM      3  C   UNL d   1      56.612  -0.989  32.393  0.00  0.00     0.265 A 
ATOM      4  C   UNL d   1      57.077   0.214  32.044  0.00  0.00     0.086 A 
ATOM      5  C   UNL d   1      57.006  -1.070  31.673  0.00  0.00     0.066 A 
ATOM      6  O   UNL d   1      56.236  -1.591  32.822  0.00  0.00    -0.267 OA
ENDROOT
BRANCH   1   7
ATOM      7  C   UNL d   1      56.329   0.096  33.309  0.00  0.00     0.067 A 
ATOM      8  C   UNL d   1      55.519   0.197  33.362  0.00  0.00     0.021 A 
ATOM      9  C   UNL d   1      55.168   0.489  34.058  0.00  0.00     0.073 A 
ATOM     10  C   UNL d   1      55.656   0.681  34.712  0.00  0.00     0.004 A 
ATOM     11  C   UNL d   1      56.467   0.581  34.658  0.00  0.00     0.001 A 
ATOM     12  C   UNL d   1      56.807   0.288  33.956  0.00  0.00     0.018 A 
BRANCH   9  13
ATOM     13  C   UNL d   1      54.363   0.583  34.096  0.00  0.00     0.419 C 
ATOM     14  F   UNL d   1      53.532   0.680  34.127  0.00  0.00    -0.166 F 
ATOM     15  F   UNL d   1      54.382   0.486  34.910  0.00  0.00    -0.166 F 
ATOM     16  F   UNL d   1      54.327   0.682  33.274  0.00  0.00    -0.166 F 
ENDBRANCH   9  13
ENDBRANCH   1   7
BRANCH   2  17
ATOM     17  C   UNL d   1      57.725  -0.103  30.784  0.00  0.00     0.142 A 
ATOM     18  N   UNL d   1      57.469   0.190  30.088  0.00  0.00    -0.227 NA
ATOM     19  C   UNL d   1      58.125   0.323  29.596  0.00  0.00     0.099 A 
ATOM     20  C   UNL d   1      58.183   0.614  28.834  0.00  0.00     0.021 A 
ATOM     21  C   UNL d   1      58.793   0.102  30.014  0.00  0.00     0.076 A 
ATOM     22  C   UNL d   1      58.938   0.682  28.488  0.00  0.00     0.002 A 
ATOM     23  C   UNL d   1      59.605   0.461  28.906  0.00  0.00     0.002 A 
ATOM     24  C   UNL d   1      59.537   0.165  29.682  0.00  0.00     0.019 A 
ATOM     25  N   UNL d   1      58.541  -0.165  30.758  0.00  0.00    -0.338 N 
ATOM     26  H   UNL d   1      59.032  -0.449  31.377  0.00  0.00     0.167 HD
ENDBRANCH   2  17
TORSDOF 3
ENDMDL
MODEL 2
REMARK VINA RESULT:      -6.0      2.958      5.349
REMARK  3 active torsions:
REMARK  status: ('A' for Active; 'I' for Inactive)
REMARK    1  A    between atoms: C_4  and  C_1 
REMARK    2  A    between atoms: C_9  and  N_2 
REMARK    3  A    between atoms: C_8  and  C_13 
ROOT
ATOM      1  N   UNL d   1      58.227  -0.328  30.072  0.00  0.00    -0.273 N 
ATOM      2  C   UNL d   1      57.435   0.160  31.047  0.00  0.00     0.056 A 
ATOM      3  C   UNL d   1      57.853   0.359  29.784  0.00  0.00     0.265 A 
ATOM      4  C   UNL d   1      57.969  -0.446  30.844  0.00  0.00     0.086 A 
ATOM      5  C   UNL d   1      57.368   0.657  30.382  0.00  0.00     0.066 A 
ATOM      6  O   UNL d   1      57.956   0.679  29.026  0.00  0.00    -0.267 OA
ENDROOT
BRANCH   1   7
ATOM      7  C   UNL d   1      58.746  -0.770  29.634  0.00  0.00     0.067 A 
ATOM      8  C   UNL d   1      58.590  -1.561  29.493  0.00  0.00     0.021 A 
ATOM      9  C   UNL d   1      59.113  -2.028  29.045  0.00  0.00     0.073 A 
ATOM     10  C   UNL d   1      59.810  -1.679  28.736  0.00  0.00     0.004 A 
ATOM     11  C   UNL d   1      59.966  -0.888  28.878  0.00  0.00     0.001 A 
ATOM     12  C   UNL d   1      59.435  -0.430  29.328  0.00  0.00     0.018 A 
BRANCH   9  13
ATOM     13  C   UNL d   1      58.944  -2.811  28.913  0.00  0.00     0.419 C 
ATOM     14  F   UNL d   1      58.764  -3.616  28.773  0.00  0.00    -0.166 F 
ATOM     15  F   UNL d   1      59.592  -3.034  29.364  0.00  0.00    -0.166 F 
ATOM     16  F   UNL d   1      58.286  -2.601  28.455  0.00  0.00    -0.166 F 
ENDBRANCH   9  13
ENDBRANCH   1   7
BRANCH   2  17
ATOM     17  C   UNL d   1      57.073   0.210  31.779  0.00  0.00     0.142 A 
ATOM     18  N   UNL d   1      57.335   0.541  32.456  0.00  0.00    -0.227 NA
ATOM     19  C   UNL d   1      56.756   0.443  33.044  0.00  0.00     0.099 A 
ATOM     20  C   UNL d   1      56.735   0.672  33.829  0.00  0.00     0.021 A 
ATOM     21  C   UNL d   1      56.130   0.040  32.706  0.00  0.00     0.076 A 
ATOM     22  C   UNL d   1      56.060   0.486  34.281  0.00  0.00     0.002 A 
ATOM     23  C   UNL d   1      55.434   0.083  33.942  0.00  0.00     0.002 A 
ATOM     24  C   UNL d   1      55.464  -0.147  33.142  0.00  0.00     0.019 A 
ATOM     25  N   UNL d   1      56.330  -0.106  31.913  0.00  0.00    -0.338 N 
ATOM     26  H   UNL d   1      55.857  -0.505  31.347  0.00  0.00     0.167 HD
ENDBRANCH   2  17
TORSDOF 3
ENDMDL
MODEL 3
REMARK VINA RESULT:      -5.7      2.685      5.226
REMARK  3 active torsions:
REMARK  status: ('A' for Active; 'I' for Inactive)
REMARK    1  A    between atoms: C_4  and  C_1 
REMARK    2  A    between atoms: C_9  and  N_2 
REMARK    3  A    between atoms: C_8  and  C_13 
ROOT
ATOM      1  N   UNL d   1      58.042   0.194  30.866  0.00  0.00    -0.273 N 
ATOM      2  C   UNL d   1      57.416   0.450  32.031  0.00  0.00     0.056 A 
ATOM      3  C   UNL d   1      58.597   0.525  31.394  0.00  0.00     0.265 A 
ATOM      4  C   UNL d   1      57.322   0.150  31.260  0.00  0.00     0.086 A 
ATOM      5  C   UNL d   1      58.212   0.681  32.106  0.00  0.00     0.066 A 
ATOM      6  O   UNL d   1      59.396   0.668  31.221  0.00  0.00    -0.267 OA
ENDROOT
BRANCH   1   7
ATOM      7  C   UNL d   1      58.225  -0.030  30.109  0.00  0.00     0.067 A 
ATOM      8  C   UNL d   1      58.484  -0.792  29.961  0.00  0.00     0.021 A 
ATOM      9  C   UNL d   1      58.676  -1.037  29.189  0.00  0.00     0.073 A 
ATOM     10  C   UNL d   1      58.600  -0.492  28.557  0.00  0.00     0.004 A 
ATOM     11  C   UNL d   1      58.341   0.270  28.706  0.00  0.00     0.001 A 
ATOM     12  C   UNL d   1      58.152   0.505  29.483  0.00  0.00     0.018 A 
BRANCH   9  13
ATOM     13  C   UNL d   1      58.931  -1.796  29.058  0.00  0.00     0.419 C 
ATOM     14  F   UNL d   1      59.202  -2.577  28.923  0.00  0.00    -0.166 F 
ATOM     15  F   UNL d   1      58.159  -2.070  29.093  0.00  0.00    -0.166 F 
ATOM     16  F   UNL d   1      59.716  -1.535  29.020  0.00  0.00    -0.166 F 
ENDBRANCH   9  13
ENDBRANCH   1   7
BRANCH   2  17
ATOM     17  C   UNL d   1      56.803   0.487  32.574  0.00  0.00     0.142 A 
ATOM     18  N   UNL d   1      56.016   0.442  32.456  0.00  0.00    -0.227 NA
ATOM     19  C   UNL d   1      55.631   0.510  33.190  0.00  0.00     0.099 A 
ATOM     20  C   UNL d   1      54.839   0.501  33.391  0.00  0.00     0.021 A 
ATOM     21  C   UNL d   1      56.210   0.599  33.761  0.00  0.00     0.076 A 
ATOM     22  C   UNL d   1      54.629   0.584  34.193  0.00  0.00     0.002 A 
ATOM     23  C   UNL d   1      55.207   0.672  34.764  0.00  0.00     0.002 A 
ATOM     24  C   UNL d   1      56.012   0.680  34.551  0.00  0.00     0.019 A 
ATOM     25  N   UNL d   1      56.944   0.584  33.374  0.00  0.00    -0.338 N 
ATOM     26  H   UNL d   1      57.697   0.656  33.735  0.00  0.00     0.167 HD
ENDBRANCH   2  17
TORSDOF 3
ENDMDL
MODEL 4
REMARK VINA RESULT:      -5.3      9.300      9.936
REMARK  3 active torsions:
REMARK  status: ('A' for Active; 'I' for Inactive)
REMARK    1  A    between atoms: C_4  and  C_1 
REMARK    2  A    between atoms: C_9  and  N_2 
REMARK    3  A    between atoms: C_8  and  C_13 
ROOT
ATOM      1  N   UNL d   1      59.584  -9.315  33.949  0.00  0.00    -0.273 N 
ATOM      2  C   UNL d   1      59.129  -9.569  32.707  0.00  0.00     0.056 A 
ATOM      3  C   UNL d   1      60.223  -9.588  33.488  0.00  0.00     0.265 A 
ATOM      4  C   UNL d   1      58.918  -9.305  33.468  0.00  0.00     0.086 A 
ATOM      5  C   UNL d   1      59.943  -9.743  32.728  0.00  0.00     0.066 A 
ATOM      6  O   UNL d   1      61.002  -9.683  33.758  0.00  0.00    -0.267 OA
ENDROOT
BRANCH   1   7
ATOM      7  C   UNL d   1      59.654  -9.107  34.730  0.00  0.00     0.067 A 
ATOM      8  C   UNL d   1      59.622  -8.318  34.946  0.00  0.00     0.021 A 
ATOM      9  C   UNL d   1      59.692  -8.090  35.743  0.00  0.00     0.073 A 
ATOM     10  C   UNL d   1      59.796  -8.679  36.329  0.00  0.00     0.004 A 
ATOM     11  C   UNL d   1      59.828  -9.468  36.112  0.00  0.00     0.001 A 
ATOM     12  C   UNL d   1      59.757  -9.685  35.311  0.00  0.00     0.018 A 
BRANCH   9  13
ATOM     13  C   UNL d   1      59.658  -7.303  35.942  0.00  0.00     0.419 C 
ATOM     14  F   UNL d   1      59.630  -6.491  36.144  0.00  0.00    -0.166 F 
ATOM     15  F   UNL d   1      58.892  -7.398  36.218  0.00  0.00    -0.166 F 
ATOM     16  F   UNL d   1      60.432  -7.191  35.667  0.00  0.00    -0.166 F 
ENDBRANCH   9  13
ENDBRANCH   1   7
BRANCH   2  17
ATOM     17  C   UNL d   1      58.594  -9.627  32.090  0.00  0.00     0.142 A 
ATOM     18  N   UNL d   1      57.797  -9.661  32.108  0.00  0.00    -0.227 NA
ATOM     19  C   UNL d   1      57.513  -9.717  31.329  0.00  0.00     0.099 A 
ATOM     20  C   UNL d   1      56.754  -9.767  31.029  0.00  0.00     0.021 A 
ATOM     21  C   UNL d   1      58.163  -9.717  30.832  0.00  0.00     0.076 A 
ATOM     22  C   UNL d   1      56.653  -9.818  30.204  0.00  0.00     0.002 A 
ATOM     23  C   UNL d   1      57.302  -9.817  29.707  0.00  0.00     0.002 A 
ATOM     24  C   UNL d   1      58.073  -9.766  30.021  0.00  0.00     0.019 A 
ATOM     25  N   UNL d   1      58.840  -9.660  31.310  0.00  0.00    -0.338 N 
ATOM     26  H   UNL d   1      59.635  -9.641  31.045  0.00  0.00     0.167 HD
ENDBRANCH   2  17
TORSDOF 3
ENDMDL
