MODEL 1
REMARK VINA RESULT:      -2.0      0.000      0.000
REMARK  10 active torsions:
REMARK  status: ('A' for Active; 'I' for Inactive)
REMARK    1  A    between atoms: C_2  and  C_1 
REMARK       I    between atoms: N_3  and  C_1 
REMARK    2  A    between atoms: C_5  and  C_2 
REMARK    3  A    between atoms: C_6  and  N_3 
REMARK    4  A    between atoms: C_4  and  C_5 
REMARK    5  A    between atoms: O_11  and  C_4 
REMARK    6  A    between atoms: N_10  and  C_5 
REMARK    7  A    between atoms: O_13  and  C_9 
REMARK    8  A    between atoms: C_14  and  N_10 
REMARK    9  A    between atoms: N_12  and  C_16 
REMARK   10  A    between atoms: C_16  and  C_14 
ROOT
ATOM      1  C   UNK d   1      32.854  18.045 -22.966  0.00  0.00     0.084 C 
ENDROOT
BRANCH   1   2
ATOM      2  C   UNK d   1      32.948  18.852 -23.057  0.00  0.00     0.259 C 
ATOM      3  N   UNK d   1      32.926  19.347 -22.399  0.00  0.00    -0.320 N 
ATOM      4  H   UNK d   1      32.808  19.019 -21.644  0.00  0.00     0.169 HD
ATOM      5  O   UNK d   1      33.065  19.173 -23.816  0.00  0.00    -0.267 OA
BRANCH   3   6
ATOM      6  C   UNK d   1      33.019  20.153 -22.485  0.00  0.00     0.082 A 
ATOM      7  C   UNK d   1      32.983  20.643 -21.809  0.00  0.00     0.110 A 
ATOM      8  C   UNK d   1      33.078  21.466 -21.891  0.00  0.00     0.026 A 
ATOM      9  C   UNK d   1      33.206  21.776 -22.649  0.00  0.00     0.002 A 
ATOM     10  C   UNK d   1      33.241  21.284 -23.318  0.00  0.00     0.002 A 
ATOM     11  C   UNK d   1      33.148  20.476 -23.237  0.00  0.00     0.019 A 
BRANCH   7  12
ATOM     12  O   UNK d   1      32.855  20.313 -21.067  0.00  0.00    -0.327 OA
ATOM     13  C   UNK d   1      32.945  20.777 -20.392  0.00  0.00     0.181 C 
ENDBRANCH   7  12
ENDBRANCH   3   6
ENDBRANCH   1   2
BRANCH   1  14
ATOM     14  C   UNK d   1      32.513  17.603 -23.568  0.00  0.00     0.124 C 
BRANCH  14  15
ATOM     15  C   UNK d   1      32.973  17.058 -23.995  0.00  0.00     0.194 C 
ATOM     16  O   UNK d   1      33.170  17.201 -24.780  0.00  0.00    -0.645 OA
BRANCH  15  17
ATOM     17  O   UNK d   1      33.240  16.362 -23.634  0.00  0.00    -0.772 OA
ATOM     18  H   UNK d   1      32.838  16.068 -22.982  0.00  0.00     0.167 HD
ENDBRANCH  15  17
ENDBRANCH  14  15
BRANCH  14  19
ATOM     19  N   UNK d   1      31.727  17.701 -23.740  0.00  0.00    -0.346 N 
ATOM     20  H   UNK d   1      31.438  18.451 -23.926  0.00  0.00     0.166 HD
BRANCH  19  21
ATOM     21  C   UNK d   0      31.210  17.059 -23.733  0.00  0.00     0.092 C 
BRANCH  21  22
ATOM     22  C   UNK d   0      30.418  17.153 -23.930  0.00  0.00     0.099 C 
BRANCH  22  23
ATOM     23  N   UNK d   0      29.921  16.496 -23.944  0.00  0.00    -0.299 N 
ATOM     24  C   UNK d   0      29.438  16.359 -24.596  0.00  0.00     0.100 C 
ATOM     25  C   UNK d   0      29.905  15.971 -23.307  0.00  0.00     0.100 C 
ENDBRANCH  22  23
ENDBRANCH  21  22
ENDBRANCH  19  21
ENDBRANCH  14  19
ENDBRANCH   1  14
TORSDOF 10
ENDMDL
MODEL 2
REMARK VINA RESULT:      -0.9      1.312      2.043
REMARK  10 active torsions:
REMARK  status: ('A' for Active; 'I' for Inactive)
REMARK    1  A    between atoms: C_2  and  C_1 
REMARK       I    between atoms: N_3  and  C_1 
REMARK    2  A    between atoms: C_5  and  C_2 
REMARK    3  A    between atoms: C_6  and  N_3 
REMARK    4  A    between atoms: C_4  and  C_5 
REMARK    5  A    between atoms: O_11  and  C_4 
REMARK    6  A    between atoms: N_10  and  C_5 
REMARK    7  A    between atoms: O_13  and  C_9 
REMARK    8  A    between atoms: C_14  and  N_10 
REMARK    9  A    between atoms: N_12  and  C_16 
REMARK   10  A    between atoms: C_16  and  C_14 
ROOT
ATOM      1  C   UNK d   1      33.192  19.174 -22.866  0.00  0.00     0.084 C 
ENDROOT
BRANCH   1   2
ATOM      2  C   UNK d   1      32.816  19.712 -22.379  0.00  0.00     0.259 C 
ATOM      3  N   UNK d   1      33.203  20.402 -22.149  0.00  0.00    -0.320 N 
ATOM      4  H   UNK d   1      33.978  20.546 -22.416  0.00  0.00     0.169 HD
ATOM      5  O   UNK d   1      32.041  19.562 -22.115  0.00  0.00    -0.267 OA
BRANCH   3   6
ATOM      6  C   UNK d   1      32.832  20.942 -21.662  0.00  0.00     0.082 A 
ATOM      7  C   UNK d   1      32.851  21.753 -21.863  0.00  0.00     0.110 A 
ATOM      8  C   UNK d   1      32.474  22.308 -21.370  0.00  0.00     0.026 A 
ATOM      9  C   UNK d   1      32.087  22.035 -20.690  0.00  0.00     0.002 A 
ATOM     10  C   UNK d   1      32.071  21.227 -20.495  0.00  0.00     0.002 A 
ATOM     11  C   UNK d   1      32.442  20.683 -20.980  0.00  0.00     0.019 A 
BRANCH   7  12
ATOM     12  O   UNK d   1      33.241  22.001 -22.543  0.00  0.00    -0.327 OA
ATOM     13  C   UNK d   1      33.108  22.759 -22.838  0.00  0.00     0.181 C 
ENDBRANCH   7  12
ENDBRANCH   3   6
ENDBRANCH   1   2
BRANCH   1  14
ATOM     14  C   UNK d   1      32.821  18.914 -23.550  0.00  0.00     0.124 C 
BRANCH  14  15
ATOM     15  C   UNK d   1      33.076  19.189 -24.292  0.00  0.00     0.194 C 
ATOM     16  O   UNK d   1      33.190  18.667 -24.916  0.00  0.00    -0.645 OA
BRANCH  15  17
ATOM     17  O   UNK d   1      33.220  19.996 -24.411  0.00  0.00    -0.772 OA
ATOM     18  H   UNK d   1      33.966  20.240 -24.651  0.00  0.00     0.167 HD
ENDBRANCH  15  17
ENDBRANCH  14  15
BRANCH  14  19
ATOM     19  N   UNK d   1      32.206  18.388 -23.497  0.00  0.00    -0.346 N 
ATOM     20  H   UNK d   1      31.436  18.666 -23.405  0.00  0.00     0.166 HD
BRANCH  19  21
ATOM     21  C   UNK d   0      32.341  17.576 -23.534  0.00  0.00     0.092 C 
BRANCH  21  22
ATOM     22  C   UNK d   0      31.722  17.049 -23.648  0.00  0.00     0.099 C 
BRANCH  22  23
ATOM     23  N   UNK d   0      31.866  16.239 -23.626  0.00  0.00    -0.299 N 
ATOM     24  C   UNK d   0      31.634  15.796 -22.972  0.00  0.00     0.100 C 
ATOM     25  C   UNK d   0      32.244  15.865 -24.258  0.00  0.00     0.100 C 
ENDBRANCH  22  23
ENDBRANCH  21  22
ENDBRANCH  19  21
ENDBRANCH  14  19
ENDBRANCH   1  14
TORSDOF 10
ENDMDL
MODEL 3
REMARK VINA RESULT:      -0.8      1.340      2.098
REMARK  10 active torsions:
REMARK  status: ('A' for Active; 'I' for Inactive)
REMARK    1  A    between atoms: C_2  and  C_1 
REMARK       I    between atoms: N_3  and  C_1 
REMARK    2  A    between atoms: C_5  and  C_2 
REMARK    3  A    between atoms: C_6  and  N_3 
REMARK    4  A    between atoms: C_4  and  C_5 
REMARK    5  A    between atoms: O_11  and  C_4 
REMARK    6  A    between atoms: N_10  and  C_5 
REMARK    7  A    between atoms: O_13  and  C_9 
REMARK    8  A    between atoms: C_14  and  N_10 
REMARK    9  A    between atoms: N_12  and  C_16 
REMARK   10  A    between atoms: C_16  and  C_14 
ROOT
ATOM      1  C   UNK d   1      31.063  17.014 -23.466  0.00  0.00     0.084 C 
ENDROOT
BRANCH   1   2
ATOM      2  C   UNK d   1      31.546  17.589 -23.789  0.00  0.00     0.259 C 
ATOM      3  N   UNK d   1      31.785  18.231 -23.332  0.00  0.00    -0.320 N 
ATOM      4  H   UNK d   1      31.531  18.289 -22.542  0.00  0.00     0.169 HD
ATOM      5  O   UNK d   1      31.796  17.525 -24.580  0.00  0.00    -0.267 OA
BRANCH   3   6
ATOM      6  C   UNK d   1      32.267  18.808 -23.650  0.00  0.00     0.082 A 
ATOM      7  C   UNK d   1      32.747  19.266 -23.141  0.00  0.00     0.110 A 
ATOM      8  C   UNK d   1      33.240  19.856 -23.459  0.00  0.00     0.026 A 
ATOM      9  C   UNK d   1      33.240  19.970 -24.280  0.00  0.00     0.002 A 
ATOM     10  C   UNK d   1      32.762  19.512 -24.782  0.00  0.00     0.002 A 
ATOM     11  C   UNK d   1      32.277  18.933 -24.468  0.00  0.00     0.019 A 
BRANCH   7  12
ATOM     12  O   UNK d   1      32.730  19.134 -22.329  0.00  0.00    -0.327 OA
ATOM     13  C   UNK d   1      32.869  19.759 -21.810  0.00  0.00     0.181 C 
ENDBRANCH   7  12
ENDBRANCH   3   6
ENDBRANCH   1   2
BRANCH   1  14
ATOM     14  C   UNK d   1      30.846  16.363 -23.917  0.00  0.00     0.124 C 
BRANCH  14  15
ATOM     15  C   UNK d   1      31.402  15.769 -24.085  0.00  0.00     0.194 C 
ATOM     16  O   UNK d   1      31.490  15.482 -24.850  0.00  0.00    -0.645 OA
BRANCH  15  17
ATOM     17  O   UNK d   1      31.878  15.459 -23.481  0.00  0.00    -0.772 OA
ATOM     18  H   UNK d   1      32.208  14.713 -23.574  0.00  0.00     0.167 HD
ENDBRANCH  15  17
ENDBRANCH  14  15
BRANCH  14  19
ATOM     19  N   UNK d   1      30.086  16.305 -24.195  0.00  0.00    -0.346 N 
ATOM     20  H   UNK d   1      29.917  16.522 -24.973  0.00  0.00     0.166 HD
BRANCH  19  21
ATOM     21  C   UNK d   0      29.479  16.030 -23.710  0.00  0.00     0.092 C 
BRANCH  21  22
ATOM     22  C   UNK d   0      28.758  16.422 -23.674  0.00  0.00     0.099 C 
BRANCH  22  23
ATOM     23  N   UNK d   0      28.066  15.990 -23.561  0.00  0.00    -0.299 N 
ATOM     24  C   UNK d   0      27.731  15.938 -22.811  0.00  0.00     0.100 C 
ATOM     25  C   UNK d   0      27.703  15.608 -24.196  0.00  0.00     0.100 C 
ENDBRANCH  22  23
ENDBRANCH  21  22
ENDBRANCH  19  21
ENDBRANCH  14  19
ENDBRANCH   1  14
TORSDOF 10
ENDMDL
MODEL 4
REMARK VINA RESULT:      -0.7      2.574      5.683
REMARK  10 active torsions:
REMARK  status: ('A' for Active; 'I' for Inactive)
REMARK    1  A    between atoms: C_2  and  C_1 
REMARK       I    between atoms: N_3  and  C_1 
REMARK    2  A    between atoms: C_5  and  C_2 
REMARK    3  A    between atoms: C_6  and  N_3 
REMARK    4  A    between atoms: C_4  and  C_5 
REMARK    5  A    between atoms: O_11  and  C_4 
REMARK    6  A    between atoms: N_10  and  C_5 
REMARK    7  A    between atoms: O_13  and  C_9 
REMARK    8  A    between atoms: C_14  and  N_10 
REMARK    9  A    between atoms: N_12  and  C_16 
REMARK   10  A    between atoms: C_16  and  C_14 
ROOT
ATOM      1  C   UNK d   1      32.157  21.637 -20.823  0.00  0.00     0.084 C 
ENDROOT
BRANCH   1   2
ATOM      2  C   UNK d   1      32.510  20.948 -21.087  0.00  0.00     0.259 C 
ATOM      3  N   UNK d   1      32.192  20.539 -21.727  0.00  0.00    -0.320 N 
ATOM      4  H   UNK d   1      31.510  20.834 -22.103  0.00  0.00     0.169 HD
ATOM      5  O   UNK d   1      33.192  20.660 -20.706  0.00  0.00    -0.267 OA
BRANCH   3   6
ATOM      6  C   UNK d   1      32.541  19.851 -21.993  0.00  0.00     0.082 A 
ATOM      7  C   UNK d   1      32.557  19.692 -22.814  0.00  0.00     0.110 A 
ATOM      8  C   UNK d   1      32.912  18.992 -23.091  0.00  0.00     0.026 A 
ATOM      9  C   UNK d   1      33.241  18.470 -22.538  0.00  0.00     0.002 A 
ATOM     10  C   UNK d   1      33.222  18.633 -21.723  0.00  0.00     0.002 A 
ATOM     11  C   UNK d   1      32.873  19.321 -21.452  0.00  0.00     0.019 A 
BRANCH   7  12
ATOM     12  O   UNK d   1      32.224  20.226 -23.344  0.00  0.00    -0.327 OA
ATOM     13  C   UNK d   1      32.430  20.193 -24.141  0.00  0.00     0.181 C 
ENDBRANCH   7  12
ENDBRANCH   3   6
ENDBRANCH   1   2
BRANCH   1  14
ATOM     14  C   UNK d   1      32.600  22.325 -20.760  0.00  0.00     0.124 C 
BRANCH  14  15
ATOM     15  C   UNK d   1      32.553  22.906 -21.352  0.00  0.00     0.194 C 
ATOM     16  O   UNK d   1      31.843  23.290 -21.505  0.00  0.00    -0.645 OA
BRANCH  15  17
ATOM     17  O   UNK d   1      33.222  23.105 -21.796  0.00  0.00    -0.772 OA
ATOM     18  H   UNK d   1      33.132  23.542 -22.485  0.00  0.00     0.167 HD
ENDBRANCH  15  17
ENDBRANCH  14  15
BRANCH  14  19
ATOM     19  N   UNK d   1      33.082  22.432 -20.117  0.00  0.00    -0.346 N 
ATOM     20  H   UNK d   1      33.884  22.245 -20.170  0.00  0.00     0.166 HD
BRANCH  19  21
ATOM     21  C   UNK d   0      32.782  22.726 -19.408  0.00  0.00     0.092 C 
BRANCH  21  22
ATOM     22  C   UNK d   0      33.164  22.583 -18.695  0.00  0.00     0.099 C 
BRANCH  22  23
ATOM     23  N   UNK d   0      32.957  23.019 -18.028  0.00  0.00    -0.299 N 
ATOM     24  C   UNK d   0      33.241  22.797 -17.287  0.00  0.00     0.100 C 
ATOM     25  C   UNK d   0      32.466  23.678 -18.095  0.00  0.00     0.100 C 
ENDBRANCH  22  23
ENDBRANCH  21  22
ENDBRANCH  19  21
ENDBRANCH  14  19
ENDBRANCH   1  14
TORSDOF 10
ENDMDL
MODEL 5
REMARK VINA RESULT:       0.0      1.356      4.653
REMARK  10 active torsions:
REMARK  status: ('A' for Active; 'I' for Inactive)
REMARK    1  A    between atoms: C_2  and  C_1 
REMARK       I    between atoms: N_3  and  C_1 
REMARK    2  A    between atoms: C_5  and  C_2 
REMARK    3  A    between atoms: C_6  and  N_3 
REMARK    4  A    between atoms: C_4  and  C_5 
REMARK    5  A    between atoms: O_11  and  C_4 
REMARK    6  A    between atoms: N_10  and  C_5 
REMARK    7  A    between atoms: O_13  and  C_9 
REMARK    8  A    between atoms: C_14  and  N_10 
REMARK    9  A    between atoms: N_12  and  C_16 
REMARK   10  A    between atoms: C_16  and  C_14 
ROOT
ATOM      1  C   UNK d   1      32.260  19.944 -22.632  0.00  0.00     0.084 C 
ENDROOT
BRANCH   1   2
ATOM      2  C   UNK d   1      32.508  19.441 -23.227  0.00  0.00     0.259 C 
ATOM      3  N   UNK d   1      32.157  18.701 -23.315  0.00  0.00    -0.320 N 
ATOM      4  H   UNK d   1      31.550  18.471 -22.794  0.00  0.00     0.169 HD
ATOM      5  O   UNK d   1      33.115  19.678 -23.744  0.00  0.00    -0.267 OA
BRANCH   3   6
ATOM      6  C   UNK d   1      32.401  18.196 -23.908  0.00  0.00     0.082 A 
ATOM      7  C   UNK d   1      32.040  17.445 -23.979  0.00  0.00     0.110 A 
ATOM      8  C   UNK d   1      32.284  16.926 -24.582  0.00  0.00     0.026 A 
ATOM      9  C   UNK d   1      32.885  17.173 -25.097  0.00  0.00     0.002 A 
ATOM     10  C   UNK d   1      33.240  17.920 -25.022  0.00  0.00     0.002 A 
ATOM     11  C   UNK d   1      32.999  18.430 -24.429  0.00  0.00     0.019 A 
BRANCH   7  12
ATOM     12  O   UNK d   1      31.446  17.222 -23.456  0.00  0.00    -0.327 OA
ATOM     13  C   UNK d   1      30.972  16.571 -23.629  0.00  0.00     0.181 C 
ENDBRANCH   7  12
ENDBRANCH   3   6
ENDBRANCH   1   2
BRANCH   1  14
ATOM     14  C   UNK d   1      32.814  20.300 -22.141  0.00  0.00     0.124 C 
BRANCH  14  15
ATOM     15  C   UNK d   1      32.968  19.981 -21.389  0.00  0.00     0.194 C 
ATOM     16  O   UNK d   1      33.233  19.207 -21.309  0.00  0.00    -0.645 OA
BRANCH  15  17
ATOM     17  O   UNK d   1      32.858  20.441 -20.709  0.00  0.00    -0.772 OA
ATOM     18  H   UNK d   1      33.024  21.244 -20.736  0.00  0.00     0.167 HD
ENDBRANCH  15  17
ENDBRANCH  14  15
BRANCH  14  19
ATOM     19  N   UNK d   1      33.206  20.962 -22.395  0.00  0.00    -0.346 N 
ATOM     20  H   UNK d   1      33.872  20.885 -22.875  0.00  0.00     0.166 HD
BRANCH  19  21
ATOM     21  C   UNK d   0      32.948  21.714 -22.179  0.00  0.00     0.092 C 
BRANCH  21  22
ATOM     22  C   UNK d   0      33.197  22.380 -22.590  0.00  0.00     0.099 C 
BRANCH  22  23
ATOM     23  N   UNK d   0      32.735  23.062 -22.579  0.00  0.00    -0.299 N 
ATOM     24  C   UNK d   0      32.482  23.401 -23.285  0.00  0.00     0.100 C 
ATOM     25  C   UNK d   0      32.522  23.410 -21.861  0.00  0.00     0.100 C 
ENDBRANCH  22  23
ENDBRANCH  21  22
ENDBRANCH  19  21
ENDBRANCH  14  19
ENDBRANCH   1  14
TORSDOF 10
ENDMDL
