MODEL 1
REMARK VINA RESULT:      -0.7      0.000      0.000
REMARK  4 active torsions:
REMARK  status: ('A' for Active; 'I' for Inactive)
REMARK    1  A    between atoms: N_2  and  S_1 
REMARK    2  A    between atoms: C_3  and  S_1 
REMARK    3  A    between atoms: O_19  and  C_14 
REMARK    4  A    between atoms: O_20  and  C_17 
ROOT
ATOM      1  S   UNL d   1     -41.846-122.048 -50.703  0.00  0.00     0.275 S 
ATOM      2  O   UNL d   1     -42.561-121.513 -50.623  0.00  0.00    -0.199 OA
ATOM      3  O   UNL d   1     -41.129-122.588 -50.781  0.00  0.00    -0.199 OA
ENDROOT
BRANCH   1   4
ATOM      4  N   UNL d   1     -41.569-121.553 -51.392  0.00  0.00    -0.212 N 
ATOM      5  C   UNL d   1     -41.473-121.882 -52.124  0.00  0.00     0.094 A 
ATOM      6  C   UNL d   1     -41.220-121.430 -52.754  0.00  0.00     0.100 A 
ATOM      7  C   UNL d   1     -41.634-122.674 -52.224  0.00  0.00     0.020 A 
ATOM      8  C   UNL d   1     -41.127-121.771 -53.488  0.00  0.00     0.021 A 
ATOM      9  N   UNL d   1     -41.154-120.303 -51.917  0.00  0.00    -0.223 NA
ATOM     10  C   UNL d   1     -41.286-122.566 -53.598  0.00  0.00     0.002 A 
ATOM     11  C   UNL d   1     -41.540-123.019 -52.968  0.00  0.00     0.002 A 
ATOM     12  C   UNL d   1     -41.193-122.912 -54.335  0.00  0.00     0.000 C 
ATOM     13  C   UNL d   1     -41.702-123.814 -53.067  0.00  0.00     0.000 C 
ATOM     14  C   UNL d   1     -41.407-120.756 -51.287  0.00  0.00     0.193 A 
ENDBRANCH   1   4
BRANCH   1  15
ATOM     15  C   UNL d   1     -42.127-122.543 -50.012  0.00  0.00     0.128 A 
ATOM     16  C   UNL d   1     -41.541-122.847 -49.395  0.00  0.00     0.039 A 
ATOM     17  C   UNL d   1     -41.829-123.341 -48.706  0.00  0.00     0.095 A 
ATOM     18  C   UNL d   1     -42.696-123.535 -48.629  0.00  0.00     0.026 A 
ATOM     19  C   UNL d   1     -43.282-123.236 -49.238  0.00  0.00     0.027 A 
ATOM     20  C   UNL d   1     -42.990-122.743 -49.923  0.00  0.00     0.106 A 
BRANCH  17  21
ATOM     21  O   UNL d   1     -41.256-123.643 -48.097  0.00  0.00    -0.328 OA
ATOM     22  C   UNL d   1     -41.378-123.426 -47.226  0.00  0.00     0.181 C 
ENDBRANCH  17  21
BRANCH  20  23
ATOM     23  O   UNL d   1     -43.574-122.439 -50.539  0.00  0.00    -0.327 OA
ATOM     24  C   UNL d   1     -44.443-122.356 -50.317  0.00  0.00     0.181 C 
ENDBRANCH  20  23
ENDBRANCH   1  15
TORSDOF 4
ENDMDL
