MODEL 1
REMARK VINA RESULT:      -1.8      0.000      0.000
REMARK  5 active torsions:
REMARK  status: ('A' for Active; 'I' for Inactive)
REMARK    1  A    between atoms: N_2  and  C_1 
REMARK    2  A    between atoms: C_13  and  N_6 
REMARK    3  A    between atoms: C_12  and  C_7 
REMARK    4  A    between atoms: O_22  and  C_19 
REMARK    5  A    between atoms: C_25  and  O_22 
ROOT
ATOM      1  N   UNL d   1      31.935  16.674 -24.293  0.00  0.00    -0.288 N 
ATOM      2  C   UNL d   1      32.535  17.095 -23.905  0.00  0.00     0.196 A 
ATOM      3  S   UNL d   1      33.241  16.683 -24.045  0.00  0.00    -0.092 SA
ATOM      4  C   UNL d   1      32.272  16.021 -24.659  0.00  0.00     0.268 A 
ATOM      5  C   UNL d   1      33.099  16.046 -24.490  0.00  0.00     0.093 A 
ATOM      6  O   UNL d   1      31.878  15.469 -25.095  0.00  0.00    -0.266 OA
ENDROOT
BRANCH   1   7
ATOM      7  C   UNL d   1      31.176  16.937 -24.260  0.00  0.00     0.139 A 
ATOM      8  C   UNL d   1      30.601  16.560 -23.861  0.00  0.00     0.296 A 
ATOM      9  N   UNL d   1      29.904  16.976 -23.945  0.00  0.00    -0.209 N 
ATOM     10  O   UNL d   1      30.708  15.848 -23.427  0.00  0.00    -0.264 OA
ATOM     11  N   UNL d   1      30.061  17.620 -24.406  0.00  0.00    -0.238 N 
ATOM     12  C   UNL d   1      30.873  17.590 -24.604  0.00  0.00     0.102 A 
ATOM     13  C   UNL d   1      29.529  18.189 -24.634  0.00  0.00     0.120 C 
ATOM     14  C   UNL d   1      31.309  18.138 -25.078  0.00  0.00     0.022 C 
BRANCH   9  15
ATOM     15  C   UNL d   1      29.148  16.858 -23.666  0.00  0.00     0.085 A 
ATOM     16  C   UNL d   1      28.689  17.494 -23.427  0.00  0.00     0.019 A 
ATOM     17  C   UNL d   1      27.932  17.372 -23.148  0.00  0.00     0.002 A 
ATOM     18  C   UNL d   1      27.613  16.615 -23.100  0.00  0.00     0.000 A 
ATOM     19  C   UNL d   1      28.084  15.984 -23.343  0.00  0.00     0.002 A 
ATOM     20  C   UNL d   1      28.837  16.103 -23.621  0.00  0.00     0.019 A 
ENDBRANCH   9  15
ENDBRANCH   1   7
BRANCH   2  21
ATOM     21  C   UNL d   1      32.605  17.772 -23.448  0.00  0.00    -0.001 A 
ATOM     22  C   UNL d   1      32.402  18.593 -23.726  0.00  0.00    -0.000 A 
ATOM     23  C   UNL d   1      32.507  19.265 -23.170  0.00  0.00     0.024 A 
ATOM     24  C   UNL d   1      32.804  19.090 -22.374  0.00  0.00     0.100 A 
ATOM     25  C   UNL d   1      32.984  18.309 -22.145  0.00  0.00     0.024 A 
ATOM     26  C   UNL d   1      32.895  17.646 -22.653  0.00  0.00    -0.000 A 
BRANCH  24  27
ATOM     27  O   UNL d   1      32.891  19.727 -21.880  0.00  0.00    -0.305 OA
BRANCH  27  28
ATOM     28  C   UNL d   1      32.791  20.550 -22.218  0.00  0.00     0.123 C 
ATOM     29  C   UNL d   1      32.947  21.203 -21.711  0.00  0.00     0.029 C 
ENDBRANCH  27  28
ENDBRANCH  24  27
ENDBRANCH   2  21
TORSDOF 5
ENDMDL
MODEL 2
REMARK VINA RESULT:      -0.9      1.373      4.015
REMARK  5 active torsions:
REMARK  status: ('A' for Active; 'I' for Inactive)
REMARK    1  A    between atoms: N_2  and  C_1 
REMARK    2  A    between atoms: C_13  and  N_6 
REMARK    3  A    between atoms: C_12  and  C_7 
REMARK    4  A    between atoms: O_22  and  C_19 
REMARK    5  A    between atoms: C_25  and  O_22 
ROOT
ATOM      1  N   UNL d   1      32.035  16.572 -24.377  0.00  0.00    -0.288 N 
ATOM      2  C   UNL d   1      31.225  16.468 -24.518  0.00  0.00     0.196 A 
ATOM      3  S   UNL d   1      31.151  15.770 -24.960  0.00  0.00    -0.092 SA
ATOM      4  C   UNL d   1      32.441  15.950 -24.726  0.00  0.00     0.268 A 
ATOM      5  C   UNL d   1      31.863  15.454 -25.088  0.00  0.00     0.093 A 
ATOM      6  O   UNL d   1      33.240  15.844 -24.716  0.00  0.00    -0.266 OA
ENDROOT
BRANCH   1   7
ATOM      7  C   UNL d   1      32.289  17.210 -23.957  0.00  0.00     0.139 A 
ATOM      8  C   UNL d   1      32.388  17.931 -24.277  0.00  0.00     0.296 A 
ATOM      9  N   UNL d   1      32.650  18.443 -23.698  0.00  0.00    -0.209 N 
ATOM     10  O   UNL d   1      32.242  18.121 -25.082  0.00  0.00    -0.264 OA
ATOM     11  N   UNL d   1      32.712  18.021 -23.012  0.00  0.00    -0.238 N 
ATOM     12  C   UNL d   1      32.481  17.235 -23.183  0.00  0.00     0.102 A 
ATOM     13  C   UNL d   1      32.953  18.307 -22.292  0.00  0.00     0.120 C 
ATOM     14  C   UNL d   1      32.449  16.580 -22.650  0.00  0.00     0.022 C 
BRANCH   9  15
ATOM     15  C   UNL d   1      32.842  19.234 -23.700  0.00  0.00     0.085 A 
ATOM     16  C   UNL d   1      32.863  19.659 -22.999  0.00  0.00     0.019 A 
ATOM     17  C   UNL d   1      33.055  20.452 -23.005  0.00  0.00     0.002 A 
ATOM     18  C   UNL d   1      33.231  20.842 -23.707  0.00  0.00     0.000 A 
ATOM     19  C   UNL d   1      33.207  20.404 -24.406  0.00  0.00     0.002 A 
ATOM     20  C   UNL d   1      33.016  19.616 -24.402  0.00  0.00     0.019 A 
ENDBRANCH   9  15
ENDBRANCH   1   7
BRANCH   2  21
ATOM     21  C   UNL d   1      30.523  16.854 -24.345  0.00  0.00    -0.001 A 
ATOM     22  C   UNL d   1      30.061  17.348 -24.925  0.00  0.00    -0.000 A 
ATOM     23  C   UNL d   1      29.316  17.727 -24.656  0.00  0.00     0.024 A 
ATOM     24  C   UNL d   1      29.069  17.599 -23.835  0.00  0.00     0.100 A 
ATOM     25  C   UNL d   1      29.524  17.131 -23.317  0.00  0.00     0.024 A 
ATOM     26  C   UNL d   1      30.240  16.755 -23.544  0.00  0.00    -0.000 A 
BRANCH  24  27
ATOM     27  O   UNL d   1      28.378  17.960 -23.612  0.00  0.00    -0.305 OA
BRANCH  27  28
ATOM     28  C   UNL d   1      27.645  17.457 -23.504  0.00  0.00     0.123 C 
ATOM     29  C   UNL d   1      27.159  17.611 -22.834  0.00  0.00     0.029 C 
ENDBRANCH  27  28
ENDBRANCH  24  27
ENDBRANCH   2  21
TORSDOF 5
ENDMDL
