MODEL 1
REMARK VINA RESULT:     -10.2      0.000      0.000
REMARK  6 active torsions:
REMARK  status: ('A' for Active; 'I' for Inactive)
REMARK    1  A    between atoms: N_5  and  S_1 
REMARK    2  A    between atoms: C_8  and  S_1 
REMARK    3  A    between atoms: C_2  and  C_14 
REMARK    4  A    between atoms: C_7  and  N_5 
REMARK    5  A    between atoms: C_6  and  C_7 
REMARK       I    between atoms: N_11  and  C_6 
REMARK    6  A    between atoms: C_19  and  N_11 
ROOT
ATOM      1  C   UNL d   1      51.761  32.938  52.951  0.00  0.00     0.298 C 
ATOM      2  N   UNL d   1      51.702  33.670  52.602  0.00  0.00    -0.207 NA
ATOM      3  O   UNL d   1      51.098  32.585  53.302  0.00  0.00    -0.264 OA
ENDROOT
BRANCH   2   4
ATOM      4  C   UNL d   1      50.978  34.066  52.596  0.00  0.00     0.085 A 
ATOM      5  C   UNL d   1      50.532  34.079  51.906  0.00  0.00     0.019 A 
ATOM      6  C   UNL d   1      49.798  34.475  51.885  0.00  0.00     0.004 A 
ATOM      7  C   UNL d   1      49.518  34.855  52.558  0.00  0.00     0.024 A 
ATOM      8  C   UNL d   1      49.965  34.843  53.252  0.00  0.00     0.004 A 
ATOM      9  C   UNL d   1      50.692  34.452  53.278  0.00  0.00     0.019 A 
BRANCH   7  10
ATOM     10  C   UNL d   1      48.786  35.246  52.525  0.00  0.00     0.111 A 
ATOM     11  N   UNL d   1      48.496  35.702  53.142  0.00  0.00    -0.239 NA
ATOM     12  C   UNL d   1      47.760  36.005  52.920  0.00  0.00     0.088 A 
ATOM     13  C   UNL d   1      47.220  36.490  53.308  0.00  0.00     0.020 A 
ATOM     14  C   UNL d   1      47.597  35.733  52.158  0.00  0.00     0.049 A 
ATOM     15  C   UNL d   1      46.518  36.703  52.935  0.00  0.00     0.002 A 
ATOM     16  C   UNL d   1      46.355  36.431  52.173  0.00  0.00     0.001 A 
ATOM     17  C   UNL d   1      46.895  35.946  51.784  0.00  0.00     0.008 A 
ATOM     18  S   UNL d   1      48.234  35.263  51.914  0.00  0.00    -0.066 SA
ENDBRANCH   7  10
ENDBRANCH   2   4
BRANCH   1  19
ATOM     19  C   UNL d   1      52.482  32.535  52.961  0.00  0.00     0.151 C 
ATOM     20  C   UNL d   1      52.573  31.823  52.557  0.00  0.00     0.027 C 
BRANCH  19  21
ATOM     21  N   UNL d   1      53.233  32.651  53.298  0.00  0.00    -0.153 NA
BRANCH  21  22
ATOM     22  S   UNL d   1      53.617  32.022  53.663  0.00  0.00     0.285 S 
ATOM     23  O   UNL d   1      53.099  31.508  53.311  0.00  0.00    -0.198 OA
ATOM     24  O   UNL d   1      53.996  31.397  54.022  0.00  0.00    -0.198 OA
BRANCH  22  25
ATOM     25  C   UNL d   1      54.143  32.556  54.018  0.00  0.00     0.106 A 
ATOM     26  C   UNL d   1      54.057  32.763  54.813  0.00  0.00     0.024 A 
ATOM     27  C   UNL d   1      54.595  33.304  55.160  0.00  0.00     0.059 A 
ATOM     28 CL   UNL d   1      54.507  33.509  55.959  0.00  0.00    -0.082 Cl
ATOM     29  C   UNL d   1      55.205  33.626  54.711  0.00  0.00     0.011 A 
ATOM     30  C   UNL d   1      55.289  33.419  53.918  0.00  0.00     0.002 A 
ATOM     31  C   UNL d   1      54.751  32.878  53.571  0.00  0.00     0.013 A 
ENDBRANCH  22  25
ENDBRANCH  21  22
ENDBRANCH  19  21
ENDBRANCH   1  19
TORSDOF 6
ENDMDL
MODEL 2
REMARK VINA RESULT:      -9.3      2.659      6.794
REMARK  6 active torsions:
REMARK  status: ('A' for Active; 'I' for Inactive)
REMARK    1  A    between atoms: N_5  and  S_1 
REMARK    2  A    between atoms: C_8  and  S_1 
REMARK    3  A    between atoms: C_2  and  C_14 
REMARK    4  A    between atoms: C_7  and  N_5 
REMARK    5  A    between atoms: C_6  and  C_7 
REMARK       I    between atoms: N_11  and  C_6 
REMARK    6  A    between atoms: C_19  and  N_11 
ROOT
ATOM      1  C   UNL d   1      49.016  35.063  52.511  0.00  0.00     0.298 C 
ATOM      2  N   UNL d   1      49.433  34.431  52.214  0.00  0.00    -0.207 NA
ATOM      3  O   UNL d   1      49.333  35.525  53.123  0.00  0.00    -0.264 OA
ENDROOT
BRANCH   2   4
ATOM      4  C   UNL d   1      50.176  34.247  52.521  0.00  0.00     0.085 A 
ATOM      5  C   UNL d   1      50.230  33.750  53.174  0.00  0.00     0.019 A 
ATOM      6  C   UNL d   1      50.974  33.555  53.496  0.00  0.00     0.004 A 
ATOM      7  C   UNL d   1      51.659  33.861  53.159  0.00  0.00     0.024 A 
ATOM      8  C   UNL d   1      51.607  34.360  52.504  0.00  0.00     0.004 A 
ATOM      9  C   UNL d   1      50.872  34.557  52.182  0.00  0.00     0.019 A 
BRANCH   7  10
ATOM     10  C   UNL d   1      52.394  33.659  53.489  0.00  0.00     0.111 A 
ATOM     11  N   UNL d   1      52.697  34.023  54.159  0.00  0.00    -0.239 NA
ATOM     12  C   UNL d   1      53.433  33.687  54.329  0.00  0.00     0.088 A 
ATOM     13  C   UNL d   1      53.982  33.829  54.925  0.00  0.00     0.020 A 
ATOM     14  C   UNL d   1      53.583  33.111  53.758  0.00  0.00     0.049 A 
ATOM     15  C   UNL d   1      54.682  33.395  54.950  0.00  0.00     0.002 A 
ATOM     16  C   UNL d   1      54.832  32.819  54.379  0.00  0.00     0.001 A 
ATOM     17  C   UNL d   1      54.282  32.677  53.782  0.00  0.00     0.008 A 
ATOM     18  S   UNL d   1      52.938  33.094  53.237  0.00  0.00    -0.066 SA
ENDBRANCH   7  10
ENDBRANCH   2   4
BRANCH   1  19
ATOM     19  C   UNL d   1      48.272  35.254  52.209  0.00  0.00     0.151 C 
ATOM     20  C   UNL d   1      48.129  35.236  51.398  0.00  0.00     0.027 C 
BRANCH  19  21
ATOM     21  N   UNL d   1      47.535  35.486  52.519  0.00  0.00    -0.153 NA
BRANCH  21  22
ATOM     22  S   UNL d   1      47.120  36.100  52.164  0.00  0.00     0.285 S 
ATOM     23  O   UNL d   1      47.720  36.190  51.626  0.00  0.00    -0.198 OA
ATOM     24  O   UNL d   1      46.711  36.709  51.810  0.00  0.00    -0.198 OA
BRANCH  22  25
ATOM     25  C   UNL d   1      46.511  36.001  52.718  0.00  0.00     0.106 A 
ATOM     26  C   UNL d   1      45.868  35.512  52.550  0.00  0.00     0.024 A 
ATOM     27  C   UNL d   1      45.259  35.420  53.119  0.00  0.00     0.059 A 
ATOM     28 CL   UNL d   1      44.614  34.928  52.948  0.00  0.00    -0.082 Cl
ATOM     29  C   UNL d   1      45.303  35.816  53.840  0.00  0.00     0.011 A 
ATOM     30  C   UNL d   1      45.946  36.304  54.005  0.00  0.00     0.002 A 
ATOM     31  C   UNL d   1      46.554  36.395  53.436  0.00  0.00     0.013 A 
ENDBRANCH  22  25
ENDBRANCH  21  22
ENDBRANCH  19  21
ENDBRANCH   1  19
TORSDOF 6
ENDMDL
MODEL 3
REMARK VINA RESULT:      -8.5      1.401      1.986
REMARK  6 active torsions:
REMARK  status: ('A' for Active; 'I' for Inactive)
REMARK    1  A    between atoms: N_5  and  S_1 
REMARK    2  A    between atoms: C_8  and  S_1 
REMARK    3  A    between atoms: C_2  and  C_14 
REMARK    4  A    between atoms: C_7  and  N_5 
REMARK    5  A    between atoms: C_6  and  C_7 
REMARK       I    between atoms: N_11  and  C_6 
REMARK    6  A    between atoms: C_19  and  N_11 
ROOT
ATOM      1  C   UNL d   1      51.420  33.354  53.240  0.00  0.00     0.298 C 
ATOM      2  N   UNL d   1      51.339  33.989  52.739  0.00  0.00    -0.207 NA
ATOM      3  O   UNL d   1      50.758  33.038  53.627  0.00  0.00    -0.264 OA
ENDROOT
BRANCH   2   4
ATOM      4  C   UNL d   1      50.595  34.322  52.613  0.00  0.00     0.085 A 
ATOM      5  C   UNL d   1      50.244  34.762  53.213  0.00  0.00     0.019 A 
ATOM      6  C   UNL d   1      49.493  35.105  53.101  0.00  0.00     0.004 A 
ATOM      7  C   UNL d   1      49.098  35.003  52.386  0.00  0.00     0.024 A 
ATOM      8  C   UNL d   1      49.449  34.562  51.783  0.00  0.00     0.004 A 
ATOM      9  C   UNL d   1      50.193  34.220  51.889  0.00  0.00     0.019 A 
BRANCH   7  10
ATOM     10  C   UNL d   1      48.350  35.350  52.287  0.00  0.00     0.111 A 
ATOM     11  N   UNL d   1      47.856  35.170  51.657  0.00  0.00    -0.239 NA
ATOM     12  C   UNL d   1      47.163  35.613  51.734  0.00  0.00     0.088 A 
ATOM     13  C   UNL d   1      46.482  35.661  51.274  0.00  0.00     0.020 A 
ATOM     14  C   UNL d   1      47.232  36.070  52.417  0.00  0.00     0.049 A 
ATOM     15  C   UNL d   1      45.870  36.165  51.497  0.00  0.00     0.002 A 
ATOM     16  C   UNL d   1      45.940  36.622  52.181  0.00  0.00     0.001 A 
ATOM     17  C   UNL d   1      46.621  36.574  52.641  0.00  0.00     0.008 A 
ATOM     18  S   UNL d   1      47.969  35.906  52.759  0.00  0.00    -0.066 SA
ENDBRANCH   7  10
ENDBRANCH   2   4
BRANCH   1  19
ATOM     19  C   UNL d   1      52.161  33.015  53.371  0.00  0.00     0.151 C 
ATOM     20  C   UNL d   1      52.790  33.470  53.645  0.00  0.00     0.027 C 
BRANCH  19  21
ATOM     21  N   UNL d   1      52.501  32.258  53.298  0.00  0.00    -0.153 NA
BRANCH  21  22
ATOM     22  S   UNL d   1      53.319  32.177  53.312  0.00  0.00     0.285 S 
ATOM     23  O   UNL d   1      53.395  32.983  53.329  0.00  0.00    -0.198 OA
ATOM     24  O   UNL d   1      54.129  32.098  53.327  0.00  0.00    -0.198 OA
BRANCH  22  25
ATOM     25  C   UNL d   1      53.230  31.352  53.295  0.00  0.00     0.106 A 
ATOM     26  C   UNL d   1      53.332  30.906  53.983  0.00  0.00     0.024 A 
ATOM     27  C   UNL d   1      53.240  30.073  53.953  0.00  0.00     0.059 A 
ATOM     28 CL   UNL d   1      53.342  29.628  54.645  0.00  0.00    -0.082 Cl
ATOM     29  C   UNL d   1      53.050  29.703  53.242  0.00  0.00     0.011 A 
ATOM     30  C   UNL d   1      52.950  30.150  52.558  0.00  0.00     0.002 A 
ATOM     31  C   UNL d   1      53.042  30.983  52.588  0.00  0.00     0.013 A 
ENDBRANCH  22  25
ENDBRANCH  21  22
ENDBRANCH  19  21
ENDBRANCH   1  19
TORSDOF 6
ENDMDL
