MODEL 1
REMARK VINA RESULT:      -6.3      0.000      0.000
REMARK  5 active torsions:
REMARK  status: ('A' for Active; 'I' for Inactive)
REMARK    1  A    between atoms: C_7  and  N_1 
REMARK    2  A    between atoms: C_2  and  C_6 
REMARK    3  A    between atoms: C_5  and  C_3 
REMARK    4  A    between atoms: N_8  and  C_5 
REMARK    5  A    between atoms: C_19  and  N_9 
ROOT
ATOM      1  C   UNL d   1     -48.947  13.446  22.674  0.00  0.00     0.102 A 
ATOM      2  C   UNL d   1     -47.700  13.880  22.437  0.00  0.00     0.126 A 
ATOM      3  O   UNL d   1     -48.180  13.497  22.988  0.00  0.00    -0.305 OA
ATOM      4  C   UNL d   1     -48.933  13.802  21.921  0.00  0.00     0.027 A 
ATOM      5  C   UNL d   1     -48.168  14.065  21.782  0.00  0.00     0.029 A 
ENDROOT
BRANCH   2   6
ATOM      6  C   UNL d   1     -46.859  14.057  22.521  0.00  0.00     0.143 C 
ATOM      7  S   UNL d   1     -46.600  14.838  22.457  0.00  0.00    -0.057 SA
BRANCH   6   8
ATOM      8  N   UNL d   1     -46.323  13.421  22.669  0.00  0.00    -0.291 N 
ATOM      9  C   UNL d   1     -46.224  13.105  23.420  0.00  0.00     0.100 A 
ATOM     10  C   UNL d   1     -45.699  12.491  23.534  0.00  0.00     0.100 A 
ATOM     11  N   UNL d   1     -45.266  12.176  22.928  0.00  0.00    -0.301 N 
ATOM     12  C   UNL d   1     -45.352  12.484  22.148  0.00  0.00     0.100 A 
ATOM     13  C   UNL d   1     -45.886  13.112  22.021  0.00  0.00     0.100 A 
BRANCH  11  14
ATOM     14  C   UNL d   1     -44.738  11.551  23.068  0.00  0.00     0.064 A 
ATOM     15  C   UNL d   1     -43.978  11.557  22.760  0.00  0.00     0.018 A 
ATOM     16  C   UNL d   1     -43.464  10.931  22.906  0.00  0.00     0.002 A 
ATOM     17  C   UNL d   1     -43.721  10.291  23.368  0.00  0.00     0.000 A 
ATOM     18  C   UNL d   1     -44.481  10.284  23.675  0.00  0.00     0.002 A 
ATOM     19  C   UNL d   1     -44.985  10.917  23.521  0.00  0.00     0.018 A 
ENDBRANCH  11  14
ENDBRANCH   6   8
ENDBRANCH   2   6
BRANCH   1  20
ATOM     20  C   UNL d   1     -49.650  13.124  22.974  0.00  0.00     0.045 A 
ATOM     21  C   UNL d   1     -49.819  12.318  22.866  0.00  0.00     0.129 A 
ATOM     22  C   UNL d   1     -50.518  11.997  23.164  0.00  0.00     0.024 A 
ATOM     23  C   UNL d   1     -51.064  12.476  23.576  0.00  0.00     0.002 A 
ATOM     24  C   UNL d   1     -50.886  13.277  23.677  0.00  0.00     0.000 A 
ATOM     25  C   UNL d   1     -50.187  13.598  23.379  0.00  0.00     0.004 A 
BRANCH  21  26
ATOM     26  N   UNL d   1     -49.297  11.836  22.467  0.00  0.00    -0.114 N 
ATOM     27  O   UNL d   1     -49.203  11.828  21.635  0.00  0.00    -0.532 OA
ATOM     28  O   UNL d   1     -48.796  11.294  22.836  0.00  0.00    -0.532 OA
ENDBRANCH  21  26
ENDBRANCH   1  20
TORSDOF 5
ENDMDL
MODEL 2
REMARK VINA RESULT:      -6.0      8.311      9.850
REMARK  5 active torsions:
REMARK  status: ('A' for Active; 'I' for Inactive)
REMARK    1  A    between atoms: C_7  and  N_1 
REMARK    2  A    between atoms: C_2  and  C_6 
REMARK    3  A    between atoms: C_5  and  C_3 
REMARK    4  A    between atoms: N_8  and  C_5 
REMARK    5  A    between atoms: C_19  and  N_9 
ROOT
ATOM      1  C   UNL d   1     -39.547  14.467  17.500  0.00  0.00     0.102 A 
ATOM      2  C   UNL d   1     -40.249  14.933  18.543  0.00  0.00     0.126 A 
ATOM      3  O   UNL d   1     -39.619  15.096  18.036  0.00  0.00    -0.305 OA
ATOM      4  C   UNL d   1     -40.141  13.913  17.683  0.00  0.00     0.027 A 
ATOM      5  C   UNL d   1     -40.567  14.204  18.322  0.00  0.00     0.029 A 
ENDROOT
BRANCH   2   6
ATOM      6  C   UNL d   1     -40.531  15.429  19.191  0.00  0.00     0.143 C 
ATOM      7  S   UNL d   1     -41.182  15.922  19.073  0.00  0.00    -0.057 SA
BRANCH   6   8
ATOM      8  N   UNL d   1     -40.128  15.395  19.934  0.00  0.00    -0.291 N 
ATOM      9  C   UNL d   1     -39.415  15.780  20.056  0.00  0.00     0.100 A 
ATOM     10  C   UNL d   1     -39.048  15.730  20.783  0.00  0.00     0.100 A 
ATOM     11  N   UNL d   1     -39.363  15.310  21.397  0.00  0.00    -0.301 N 
ATOM     12  C   UNL d   1     -40.096  14.906  21.294  0.00  0.00     0.100 A 
ATOM     13  C   UNL d   1     -40.479  14.950  20.555  0.00  0.00     0.100 A 
BRANCH  11  14
ATOM     14  C   UNL d   1     -38.972  15.273  22.128  0.00  0.00     0.064 A 
ATOM     15  C   UNL d   1     -38.969  15.911  22.643  0.00  0.00     0.018 A 
ATOM     16  C   UNL d   1     -38.577  15.862  23.366  0.00  0.00     0.002 A 
ATOM     17  C   UNL d   1     -38.184  15.160  23.570  0.00  0.00     0.000 A 
ATOM     18  C   UNL d   1     -38.187  14.522  23.055  0.00  0.00     0.002 A 
ATOM     19  C   UNL d   1     -38.583  14.585  22.335  0.00  0.00     0.018 A 
ENDBRANCH  11  14
ENDBRANCH   6   8
ENDBRANCH   2   6
BRANCH   1  20
ATOM     20  C   UNL d   1     -39.021  14.328  16.873  0.00  0.00     0.045 A 
ATOM     21  C   UNL d   1     -38.494  13.687  16.905  0.00  0.00     0.129 A 
ATOM     22  C   UNL d   1     -37.971  13.549  16.282  0.00  0.00     0.024 A 
ATOM     23  C   UNL d   1     -37.964  14.049  15.613  0.00  0.00     0.002 A 
ATOM     24  C   UNL d   1     -38.494  14.683  15.592  0.00  0.00     0.000 A 
ATOM     25  C   UNL d   1     -39.017  14.822  16.215  0.00  0.00     0.004 A 
BRANCH  21  26
ATOM     26  N   UNL d   1     -38.486  13.190  17.550  0.00  0.00    -0.114 N 
ATOM     27  O   UNL d   1     -38.996  12.533  17.647  0.00  0.00    -0.532 OA
ATOM     28  O   UNL d   1     -37.972  13.273  18.190  0.00  0.00    -0.532 OA
ENDBRANCH  21  26
ENDBRANCH   1  20
TORSDOF 5
ENDMDL
MODEL 3
REMARK VINA RESULT:      -5.9      1.631      2.432
REMARK  5 active torsions:
REMARK  status: ('A' for Active; 'I' for Inactive)
REMARK    1  A    between atoms: C_7  and  N_1 
REMARK    2  A    between atoms: C_2  and  C_6 
REMARK    3  A    between atoms: C_5  and  C_3 
REMARK    4  A    between atoms: N_8  and  C_5 
REMARK    5  A    between atoms: C_19  and  N_9 
ROOT
ATOM      1  C   UNL d   1     -49.524  13.776  23.036  0.00  0.00     0.102 A 
ATOM      2  C   UNL d   1     -48.754  12.678  23.025  0.00  0.00     0.126 A 
ATOM      3  O   UNL d   1     -48.942  13.357  23.454  0.00  0.00    -0.305 OA
ATOM      4  C   UNL d   1     -49.692  13.346  22.343  0.00  0.00     0.027 A 
ATOM      5  C   UNL d   1     -49.218  12.676  22.342  0.00  0.00     0.029 A 
ENDROOT
BRANCH   2   6
ATOM      6  C   UNL d   1     -48.177  12.074  23.244  0.00  0.00     0.143 C 
ATOM      7  S   UNL d   1     -48.416  11.428  23.698  0.00  0.00    -0.057 SA
BRANCH   6   8
ATOM      8  N   UNL d   1     -47.377  12.164  22.984  0.00  0.00    -0.291 N 
ATOM      9  C   UNL d   1     -47.173  12.112  22.191  0.00  0.00     0.100 A 
ATOM     10  C   UNL d   1     -46.393  12.202  21.969  0.00  0.00     0.100 A 
ATOM     11  N   UNL d   1     -45.805  12.344  22.505  0.00  0.00    -0.301 N 
ATOM     12  C   UNL d   1     -45.992  12.401  23.326  0.00  0.00     0.100 A 
ATOM     13  C   UNL d   1     -46.786  12.310  23.563  0.00  0.00     0.100 A 
BRANCH  11  14
ATOM     14  C   UNL d   1     -45.018  12.432  22.256  0.00  0.00     0.064 A 
ATOM     15  C   UNL d   1     -44.427  11.930  22.520  0.00  0.00     0.018 A 
ATOM     16  C   UNL d   1     -43.651  12.028  22.265  0.00  0.00     0.002 A 
ATOM     17  C   UNL d   1     -43.470  12.642  21.736  0.00  0.00     0.000 A 
ATOM     18  C   UNL d   1     -44.061  13.145  21.472  0.00  0.00     0.002 A 
ATOM     19  C   UNL d   1     -44.834  13.035  21.735  0.00  0.00     0.018 A 
ENDBRANCH  11  14
ENDBRANCH   6   8
ENDBRANCH   2   6
BRANCH   1  20
ATOM     20  C   UNL d   1     -49.920  14.488  23.196  0.00  0.00     0.045 A 
ATOM     21  C   UNL d   1     -49.563  15.214  23.010  0.00  0.00     0.129 A 
ATOM     22  C   UNL d   1     -49.956  15.922  23.168  0.00  0.00     0.024 A 
ATOM     23  C   UNL d   1     -50.715  15.919  23.516  0.00  0.00     0.002 A 
ATOM     24  C   UNL d   1     -51.061  15.190  23.697  0.00  0.00     0.000 A 
ATOM     25  C   UNL d   1     -50.667  14.482  23.539  0.00  0.00     0.004 A 
BRANCH  21  26
ATOM     26  N   UNL d   1     -48.823  15.236  22.669  0.00  0.00    -0.114 N 
ATOM     27  O   UNL d   1     -48.106  15.274  23.099  0.00  0.00    -0.532 OA
ATOM     28  O   UNL d   1     -48.690  15.225  21.855  0.00  0.00    -0.532 OA
ENDBRANCH  21  26
ENDBRANCH   1  20
TORSDOF 5
ENDMDL
MODEL 4
REMARK VINA RESULT:      -3.7      6.678      9.014
REMARK  5 active torsions:
REMARK  status: ('A' for Active; 'I' for Inactive)
REMARK    1  A    between atoms: C_7  and  N_1 
REMARK    2  A    between atoms: C_2  and  C_6 
REMARK    3  A    between atoms: C_5  and  C_3 
REMARK    4  A    between atoms: N_8  and  C_5 
REMARK    5  A    between atoms: C_19  and  N_9 
ROOT
ATOM      1  C   UNL d   1     -38.934  15.028  18.556  0.00  0.00     0.102 A 
ATOM      2  C   UNL d   1     -39.320  15.108  19.838  0.00  0.00     0.126 A 
ATOM      3  O   UNL d   1     -39.516  15.326  19.067  0.00  0.00    -0.305 OA
ATOM      4  C   UNL d   1     -38.374  14.625  19.023  0.00  0.00     0.027 A 
ATOM      5  C   UNL d   1     -38.617  14.677  19.806  0.00  0.00     0.029 A 
ENDROOT
BRANCH   2   6
ATOM      6  C   UNL d   1     -39.764  15.294  20.555  0.00  0.00     0.143 C 
ATOM      7  S   UNL d   1     -39.522  15.922  21.032  0.00  0.00    -0.057 SA
BRANCH   6   8
ATOM      8  N   UNL d   1     -40.440  14.824  20.747  0.00  0.00    -0.291 N 
ATOM      9  C   UNL d   1     -40.366  14.080  21.085  0.00  0.00     0.100 A 
ATOM     10  C   UNL d   1     -41.035  13.647  21.260  0.00  0.00     0.100 A 
ATOM     11  N   UNL d   1     -41.779  13.926  21.112  0.00  0.00    -0.301 N 
ATOM     12  C   UNL d   1     -41.879  14.688  20.765  0.00  0.00     0.100 A 
ATOM     13  C   UNL d   1     -41.202  15.138  20.583  0.00  0.00     0.100 A 
BRANCH  11  14
ATOM     14  C   UNL d   1     -42.446  13.468  21.299  0.00  0.00     0.064 A 
ATOM     15  C   UNL d   1     -42.380  12.671  21.477  0.00  0.00     0.018 A 
ATOM     16  C   UNL d   1     -43.049  12.227  21.661  0.00  0.00     0.002 A 
ATOM     17  C   UNL d   1     -43.793  12.594  21.664  0.00  0.00     0.000 A 
ATOM     18  C   UNL d   1     -43.860  13.392  21.485  0.00  0.00     0.002 A 
ATOM     19  C   UNL d   1     -43.182  13.823  21.304  0.00  0.00     0.018 A 
ENDBRANCH  11  14
ENDBRANCH   6   8
ENDBRANCH   2   6
BRANCH   1  20
ATOM     20  C   UNL d   1     -38.840  15.073  17.733  0.00  0.00     0.045 A 
ATOM     21  C   UNL d   1     -39.246  14.544  17.238  0.00  0.00     0.129 A 
ATOM     22  C   UNL d   1     -39.154  14.588  16.419  0.00  0.00     0.024 A 
ATOM     23  C   UNL d   1     -38.653  15.162  16.078  0.00  0.00     0.002 A 
ATOM     24  C   UNL d   1     -38.253  15.684  16.581  0.00  0.00     0.000 A 
ATOM     25  C   UNL d   1     -38.346  15.639  17.399  0.00  0.00     0.004 A 
BRANCH  21  26
ATOM     26  N   UNL d   1     -39.739  13.978  17.554  0.00  0.00    -0.114 N 
ATOM     27  O   UNL d   1     -40.571  14.055  17.615  0.00  0.00    -0.532 OA
ATOM     28  O   UNL d   1     -39.478  13.255  17.854  0.00  0.00    -0.532 OA
ENDBRANCH  21  26
ENDBRANCH   1  20
TORSDOF 5
ENDMDL
