MODEL 1
REMARK VINA RESULT:      -6.9      0.000      0.000
REMARK  7 active torsions:
REMARK  status: ('A' for Active; 'I' for Inactive)
REMARK    1  A    between atoms: C_10  and  C_3 
REMARK    2  A    between atoms: N_11  and  C_4 
REMARK    3  A    between atoms: C_21  and  N_11 
REMARK    4  A    between atoms: O_20  and  C_23 
REMARK    5  A    between atoms: C_24  and  O_20 
REMARK    6  A    between atoms: C_23  and  C_21 
REMARK    7  A    between atoms: C_22  and  C_24 
ROOT
ATOM      1  C   UNL d   1     -48.131  13.017  23.106  0.00  0.00     0.167 A 
ATOM      2  N   UNL d   1     -47.394  12.600  23.182  0.00  0.00    -0.195 N 
ATOM      3  C   UNL d   1     -48.137  13.796  22.879  0.00  0.00     0.057 A 
ATOM      4  C   UNL d   1     -47.408  11.825  23.408  0.00  0.00     0.167 A 
ATOM      5  N   UNL d   1     -46.701  13.780  22.794  0.00  0.00    -0.161 NA
ATOM      6  N   UNL d   1     -48.835  12.632  23.262  0.00  0.00    -0.227 NA
ATOM      7  C   UNL d   1     -48.112  11.427  23.568  0.00  0.00     0.058 A 
ATOM      8  C   UNL d   1     -47.416  14.185  22.721  0.00  0.00     0.124 A 
ATOM      9  C   UNL d   1     -48.838  11.838  23.493  0.00  0.00     0.086 A 
ATOM     10  C   UNL d   1     -49.579  11.433  23.658  0.00  0.00     0.021 C 
ENDROOT
BRANCH   3  11
ATOM     11  C   UNL d   1     -48.852  14.201  22.805  0.00  0.00     0.005 A 
ATOM     12  C   UNL d   1     -49.150  14.616  23.441  0.00  0.00     0.001 A 
ATOM     13  C   UNL d   1     -49.853  15.014  23.368  0.00  0.00     0.011 A 
ATOM     14  C   UNL d   1     -50.270  15.004  22.660  0.00  0.00     0.058 A 
ATOM     15  C   UNL d   1     -49.971  14.589  22.025  0.00  0.00     0.011 A 
ATOM     16 CL   UNL d   1     -51.020  15.428  22.583  0.00  0.00    -0.082 Cl
ATOM     17  C   UNL d   1     -49.256  14.184  22.098  0.00  0.00     0.001 A 
ENDBRANCH   3  11
BRANCH   4  18
ATOM     18  N   UNL d   1     -46.665  11.400  23.486  0.00  0.00    -0.223 NA
BRANCH  18  19
ATOM     19  C   UNL d   1     -46.194  10.720  23.698  0.00  0.00     0.127 C 
BRANCH  19  20
ATOM     20  C   UNL d   1     -45.447  10.591  23.281  0.00  0.00     0.143 C 
BRANCH  20  21
ATOM     21  O   UNL d   1     -44.700  10.650  23.698  0.00  0.00    -0.298 OA
BRANCH  21  22
ATOM     22  C   UNL d   1     -44.028  10.158  23.470  0.00  0.00     0.168 C 
BRANCH  22  23
ATOM     23  C   UNL d   1     -43.408  10.482  22.974  0.00  0.00     0.261 C 
ATOM     24  O   UNL d   1     -43.005  11.208  23.205  0.00  0.00    -0.281 OA
ENDBRANCH  22  23
ENDBRANCH  21  22
ENDBRANCH  20  21
ENDBRANCH  19  20
ENDBRANCH  18  19
ENDBRANCH   4  18
TORSDOF 7
ENDMDL
MODEL 2
REMARK VINA RESULT:      -6.3      1.013      1.112
REMARK  7 active torsions:
REMARK  status: ('A' for Active; 'I' for Inactive)
REMARK    1  A    between atoms: C_10  and  C_3 
REMARK    2  A    between atoms: N_11  and  C_4 
REMARK    3  A    between atoms: C_21  and  N_11 
REMARK    4  A    between atoms: O_20  and  C_23 
REMARK    5  A    between atoms: C_24  and  O_20 
REMARK    6  A    between atoms: C_23  and  C_21 
REMARK    7  A    between atoms: C_22  and  C_24 
ROOT
ATOM      1  C   UNL d   1     -47.774  13.317  23.072  0.00  0.00     0.167 A 
ATOM      2  N   UNL d   1     -46.971  13.038  23.116  0.00  0.00    -0.195 N 
ATOM      3  C   UNL d   1     -47.927  14.080  22.842  0.00  0.00     0.057 A 
ATOM      4  C   UNL d   1     -46.838  12.276  23.347  0.00  0.00     0.167 A 
ATOM      5  N   UNL d   1     -46.516  14.317  22.691  0.00  0.00    -0.161 NA
ATOM      6  N   UNL d   1     -48.390  12.816  23.262  0.00  0.00    -0.227 NA
ATOM      7  C   UNL d   1     -47.453  11.762  23.541  0.00  0.00     0.058 A 
ATOM      8  C   UNL d   1     -47.295  14.588  22.649  0.00  0.00     0.124 A 
ATOM      9  C   UNL d   1     -48.243  12.037  23.498  0.00  0.00     0.086 A 
ATOM     10  C   UNL d   1     -48.892  11.509  23.698  0.00  0.00     0.021 C 
ENDROOT
BRANCH   3  11
ATOM     11  C   UNL d   1     -48.705  14.351  22.799  0.00  0.00     0.005 A 
ATOM     12  C   UNL d   1     -49.040  14.725  23.441  0.00  0.00     0.001 A 
ATOM     13  C   UNL d   1     -49.805  14.992  23.399  0.00  0.00     0.011 A 
ATOM     14  C   UNL d   1     -50.248  14.888  22.715  0.00  0.00     0.058 A 
ATOM     15  C   UNL d   1     -49.913  14.513  22.073  0.00  0.00     0.011 A 
ATOM     16 CL   UNL d   1     -51.064  15.172  22.670  0.00  0.00    -0.082 Cl
ATOM     17  C   UNL d   1     -49.135  14.242  22.116  0.00  0.00     0.001 A 
ENDBRANCH   3  11
BRANCH   4  18
ATOM     18  N   UNL d   1     -46.028  11.990  23.393  0.00  0.00    -0.223 NA
BRANCH  18  19
ATOM     19  C   UNL d   1     -45.387  11.476  23.161  0.00  0.00     0.127 C 
BRANCH  19  20
ATOM     20  C   UNL d   1     -44.599  11.821  23.064  0.00  0.00     0.143 C 
BRANCH  20  21
ATOM     21  O   UNL d   1     -44.141  11.664  22.357  0.00  0.00    -0.298 OA
BRANCH  21  22
ATOM     22  C   UNL d   1     -43.379  12.050  22.232  0.00  0.00     0.168 C 
BRANCH  22  23
ATOM     23  C   UNL d   1     -43.219  12.455  21.493  0.00  0.00     0.261 C 
ATOM     24  O   UNL d   1     -42.635  13.089  21.465  0.00  0.00    -0.281 OA
ENDBRANCH  22  23
ENDBRANCH  21  22
ENDBRANCH  20  21
ENDBRANCH  19  20
ENDBRANCH  18  19
ENDBRANCH   4  18
TORSDOF 7
ENDMDL
MODEL 3
REMARK VINA RESULT:      -5.2      1.963      2.920
REMARK  7 active torsions:
REMARK  status: ('A' for Active; 'I' for Inactive)
REMARK    1  A    between atoms: C_10  and  C_3 
REMARK    2  A    between atoms: N_11  and  C_4 
REMARK    3  A    between atoms: C_21  and  N_11 
REMARK    4  A    between atoms: O_20  and  C_23 
REMARK    5  A    between atoms: C_24  and  O_20 
REMARK    6  A    between atoms: C_23  and  C_21 
REMARK    7  A    between atoms: C_22  and  C_24 
ROOT
ATOM      1  C   UNL d   1     -47.309  12.750  22.727  0.00  0.00     0.167 A 
ATOM      2  N   UNL d   1     -46.465  12.670  22.656  0.00  0.00    -0.195 N 
ATOM      3  C   UNL d   1     -47.765  12.106  22.915  0.00  0.00     0.057 A 
ATOM      4  C   UNL d   1     -46.028  13.322  22.468  0.00  0.00     0.167 A 
ATOM      5  N   UNL d   1     -46.584  11.287  22.969  0.00  0.00    -0.161 NA
ATOM      6  N   UNL d   1     -47.660  13.478  22.606  0.00  0.00    -0.227 NA
ATOM      7  C   UNL d   1     -46.372  14.060  22.344  0.00  0.00     0.058 A 
ATOM      8  C   UNL d   1     -47.402  11.365  23.038  0.00  0.00     0.124 A 
ATOM      9  C   UNL d   1     -47.203  14.140  22.414  0.00  0.00     0.086 A 
ATOM     10  C   UNL d   1     -47.572  14.906  22.287  0.00  0.00     0.021 C 
ENDROOT
BRANCH   3  11
ATOM     11  C   UNL d   1     -48.584  12.184  22.985  0.00  0.00     0.005 A 
ATOM     12  C   UNL d   1     -49.070  11.867  22.413  0.00  0.00     0.001 A 
ATOM     13  C   UNL d   1     -49.876  11.944  22.481  0.00  0.00     0.011 A 
ATOM     14  C   UNL d   1     -50.206  12.339  23.122  0.00  0.00     0.058 A 
ATOM     15  C   UNL d   1     -49.719  12.656  23.693  0.00  0.00     0.011 A 
ATOM     16 CL   UNL d   1     -51.064  12.421  23.194  0.00  0.00    -0.082 Cl
ATOM     17  C   UNL d   1     -48.900  12.578  23.624  0.00  0.00     0.001 A 
ENDBRANCH   3  11
BRANCH   4  18
ATOM     18  N   UNL d   1     -45.174  13.245  22.395  0.00  0.00    -0.223 NA
BRANCH  18  19
ATOM     19  C   UNL d   1     -44.462  12.818  22.199  0.00  0.00     0.127 C 
BRANCH  19  20
ATOM     20  C   UNL d   1     -43.868  13.212  21.709  0.00  0.00     0.143 C 
BRANCH  20  21
ATOM     21  O   UNL d   1     -43.176  12.785  21.438  0.00  0.00    -0.298 OA
BRANCH  21  22
ATOM     22  C   UNL d   1     -42.398  13.160  21.440  0.00  0.00     0.168 C 
BRANCH  22  23
ATOM     23  C   UNL d   1     -42.072  13.478  20.714  0.00  0.00     0.261 C 
ATOM     24  O   UNL d   1     -41.255  13.753  20.691  0.00  0.00    -0.281 OA
ENDBRANCH  22  23
ENDBRANCH  21  22
ENDBRANCH  20  21
ENDBRANCH  19  20
ENDBRANCH  18  19
ENDBRANCH   4  18
TORSDOF 7
ENDMDL
MODEL 4
REMARK VINA RESULT:      -5.2      8.808     10.664
REMARK  7 active torsions:
REMARK  status: ('A' for Active; 'I' for Inactive)
REMARK    1  A    between atoms: C_10  and  C_3 
REMARK    2  A    between atoms: N_11  and  C_4 
REMARK    3  A    between atoms: C_21  and  N_11 
REMARK    4  A    between atoms: O_20  and  C_23 
REMARK    5  A    between atoms: C_24  and  O_20 
REMARK    6  A    between atoms: C_23  and  C_21 
REMARK    7  A    between atoms: C_22  and  C_24 
ROOT
ATOM      1  C   UNL d   1     -39.266  14.884  17.918  0.00  0.00     0.167 A 
ATOM      2  N   UNL d   1     -39.419  15.115  18.722  0.00  0.00    -0.195 N 
ATOM      3  C   UNL d   1     -38.538  14.593  17.710  0.00  0.00     0.057 A 
ATOM      4  C   UNL d   1     -40.149  15.403  18.911  0.00  0.00     0.167 A 
ATOM      5  N   UNL d   1     -38.089  14.745  19.068  0.00  0.00    -0.161 NA
ATOM      6  N   UNL d   1     -39.853  14.956  17.355  0.00  0.00    -0.227 NA
ATOM      7  C   UNL d   1     -40.749  15.480  18.351  0.00  0.00     0.058 A 
ATOM      8  C   UNL d   1     -37.941  14.521  18.288  0.00  0.00     0.124 A 
ATOM      9  C   UNL d   1     -40.598  15.253  17.559  0.00  0.00     0.086 A 
ATOM     10  C   UNL d   1     -41.217  15.329  16.966  0.00  0.00     0.021 C 
ENDROOT
BRANCH   3  11
ATOM     11  C   UNL d   1     -38.389  14.368  16.930  0.00  0.00     0.005 A 
ATOM     12  C   UNL d   1     -38.430  13.582  16.720  0.00  0.00     0.001 A 
ATOM     13  C   UNL d   1     -38.284  13.362  15.952  0.00  0.00     0.011 A 
ATOM     14  C   UNL d   1     -38.095  13.924  15.383  0.00  0.00     0.058 A 
ATOM     15  C   UNL d   1     -38.055  14.710  15.594  0.00  0.00     0.011 A 
ATOM     16 CL   UNL d   1     -37.940  13.689  14.565  0.00  0.00    -0.082 Cl
ATOM     17  C   UNL d   1     -38.203  14.935  16.374  0.00  0.00     0.001 A 
ENDBRANCH   3  11
BRANCH   4  18
ATOM     18  N   UNL d   1     -40.307  15.638  19.723  0.00  0.00    -0.223 NA
BRANCH  18  19
ATOM     19  C   UNL d   1     -40.676  15.541  20.487  0.00  0.00     0.127 C 
BRANCH  19  20
ATOM     20  C   UNL d   1     -40.311  15.922  21.171  0.00  0.00     0.143 C 
BRANCH  20  21
ATOM     21  O   UNL d   1     -39.845  15.463  21.726  0.00  0.00    -0.298 OA
BRANCH  21  22
ATOM     22  C   UNL d   1     -39.462  15.843  22.400  0.00  0.00     0.168 C 
BRANCH  22  23
ATOM     23  C   UNL d   1     -38.794  15.466  22.783  0.00  0.00     0.261 C 
ATOM     24  O   UNL d   1     -38.575  15.687  23.587  0.00  0.00    -0.281 OA
ENDBRANCH  22  23
ENDBRANCH  21  22
ENDBRANCH  20  21
ENDBRANCH  19  20
ENDBRANCH  18  19
ENDBRANCH   4  18
TORSDOF 7
ENDMDL
MODEL 5
REMARK VINA RESULT:      -4.4      7.926     10.196
REMARK  7 active torsions:
REMARK  status: ('A' for Active; 'I' for Inactive)
REMARK    1  A    between atoms: C_10  and  C_3 
REMARK    2  A    between atoms: N_11  and  C_4 
REMARK    3  A    between atoms: C_21  and  N_11 
REMARK    4  A    between atoms: O_20  and  C_23 
REMARK    5  A    between atoms: C_24  and  O_20 
REMARK    6  A    between atoms: C_23  and  C_21 
REMARK    7  A    between atoms: C_22  and  C_24 
ROOT
ATOM      1  C   UNL d   1     -39.363  14.394  17.975  0.00  0.00     0.167 A 
ATOM      2  N   UNL d   1     -39.544  14.425  18.806  0.00  0.00    -0.195 N 
ATOM      3  C   UNL d   1     -38.646  14.108  17.725  0.00  0.00     0.057 A 
ATOM      4  C   UNL d   1     -40.262  14.712  19.036  0.00  0.00     0.167 A 
ATOM      5  N   UNL d   1     -38.263  13.875  19.092  0.00  0.00    -0.161 NA
ATOM      6  N   UNL d   1     -39.912  14.652  17.429  0.00  0.00    -0.227 NA
ATOM      7  C   UNL d   1     -40.824  14.976  18.494  0.00  0.00     0.058 A 
ATOM      8  C   UNL d   1     -38.087  13.845  18.286  0.00  0.00     0.124 A 
ATOM      9  C   UNL d   1     -40.646  14.945  17.676  0.00  0.00     0.086 A 
ATOM     10  C   UNL d   1     -41.225  15.218  17.101  0.00  0.00     0.021 C 
ENDROOT
BRANCH   3  11
ATOM     11  C   UNL d   1     -38.471  14.078  16.919  0.00  0.00     0.005 A 
ATOM     12  C   UNL d   1     -38.201  14.746  16.538  0.00  0.00     0.001 A 
ATOM     13  C   UNL d   1     -38.028  14.716  15.745  0.00  0.00     0.011 A 
ATOM     14  C   UNL d   1     -38.123  14.019  15.321  0.00  0.00     0.058 A 
ATOM     15  C   UNL d   1     -38.394  13.351  15.703  0.00  0.00     0.011 A 
ATOM     16 CL   UNL d   1     -37.940  13.987  14.477  0.00  0.00    -0.082 Cl
ATOM     17  C   UNL d   1     -38.569  13.381  16.509  0.00  0.00     0.001 A 
ENDBRANCH   3  11
BRANCH   4  18
ATOM     18  N   UNL d   1     -40.448  14.745  19.875  0.00  0.00    -0.223 NA
BRANCH  18  19
ATOM     19  C   UNL d   1     -40.982  14.704  20.540  0.00  0.00     0.127 C 
BRANCH  19  20
ATOM     20  C   UNL d   1     -41.262  13.926  20.795  0.00  0.00     0.143 C 
BRANCH  20  21
ATOM     21  O   UNL d   1     -42.066  13.824  21.075  0.00  0.00    -0.298 OA
BRANCH  21  22
ATOM     22  C   UNL d   1     -42.308  13.091  21.463  0.00  0.00     0.168 C 
BRANCH  22  23
ATOM     23  C   UNL d   1     -43.131  12.853  21.455  0.00  0.00     0.261 C 
ATOM     24  O   UNL d   1     -43.366  12.100  21.803  0.00  0.00    -0.281 OA
ENDBRANCH  22  23
ENDBRANCH  21  22
ENDBRANCH  20  21
ENDBRANCH  19  20
ENDBRANCH  18  19
ENDBRANCH   4  18
TORSDOF 7
ENDMDL
