MODEL 1
REMARK VINA RESULT:      -0.7      0.000      0.000
REMARK  8 active torsions:
REMARK  status: ('A' for Active; 'I' for Inactive)
REMARK    1  A    between atoms: N_2  and  C_1 
REMARK    2  A    between atoms: N_3  and  C_1 
REMARK    3  A    between atoms: C_6  and  C_1 
REMARK       I    between atoms: C_4  and  N_2 
REMARK       I    between atoms: C_5  and  N_3 
REMARK    4  A    between atoms: O_11  and  C_4 
REMARK    5  A    between atoms: O_12  and  C_5 
REMARK    6  A    between atoms: C_10  and  C_6 
REMARK    7  A    between atoms: C_15  and  O_11 
REMARK    8  A    between atoms: C_16  and  O_12 
ROOT
ATOM      1  C   UNL d   1      30.992  16.733 -24.318  0.00  0.00     0.211 C 
ENDROOT
BRANCH   1   2
ATOM      2  N   UNL d   1      31.366  17.278 -24.795  0.00  0.00    -0.163 NA
ATOM      3  C   UNL d   1      31.647  17.981 -24.476  0.00  0.00     0.394 C 
ATOM      4  O   UNL d   1      31.561  18.156 -23.672  0.00  0.00    -0.236 OA
BRANCH   3   5
ATOM      5  O   UNL d   1      32.026  18.532 -24.959  0.00  0.00    -0.256 OA
BRANCH   5   6
ATOM      6  C   UNL d   1      32.423  19.184 -24.619  0.00  0.00     0.128 C 
ATOM      7  C   UNL d   1      32.956  19.627 -25.065  0.00  0.00     0.029 C 
ENDBRANCH   5   6
ENDBRANCH   3   5
ENDBRANCH   1   2
BRANCH   1   8
ATOM      8  N   UNL d   1      31.379  16.416 -23.639  0.00  0.00    -0.163 NA
ATOM      9  C   UNL d   1      31.892  15.776 -23.701  0.00  0.00     0.394 C 
ATOM     10  O   UNL d   1      32.020  15.454 -24.441  0.00  0.00    -0.236 OA
BRANCH   9  11
ATOM     11  O   UNL d   1      32.275  15.462 -23.025  0.00  0.00    -0.256 OA
BRANCH  11  12
ATOM     12  C   UNL d   1      32.764  15.843 -22.769  0.00  0.00     0.128 C 
ATOM     13  C   UNL d   1      33.081  15.603 -22.018  0.00  0.00     0.029 C 
ENDBRANCH  11  12
ENDBRANCH   9  11
ENDBRANCH   1   8
BRANCH   1  14
ATOM     14  C   UNL d   1      30.217  16.481 -24.497  0.00  0.00     0.231 C 
ATOM     15  O   UNL d   1      30.091  15.922 -25.092  0.00  0.00    -0.283 OA
BRANCH  14  16
ATOM     16  C   UNL d   1      29.553  16.793 -24.076  0.00  0.00     0.042 A 
ATOM     17  C   UNL d   1      29.190  16.339 -23.496  0.00  0.00     0.003 A 
ATOM     18  C   UNL d   1      28.544  16.627 -23.079  0.00  0.00     0.000 A 
ATOM     19  C   UNL d   1      28.251  17.400 -23.247  0.00  0.00     0.000 A 
ATOM     20  C   UNL d   1      28.619  17.841 -23.824  0.00  0.00     0.000 A 
ATOM     21  C   UNL d   1      29.267  17.545 -24.240  0.00  0.00     0.003 A 
ENDBRANCH  14  16
ENDBRANCH   1  14
TORSDOF 8
ENDMDL
MODEL 2
REMARK VINA RESULT:       0.3      1.402      3.989
REMARK  8 active torsions:
REMARK  status: ('A' for Active; 'I' for Inactive)
REMARK    1  A    between atoms: N_2  and  C_1 
REMARK    2  A    between atoms: N_3  and  C_1 
REMARK    3  A    between atoms: C_6  and  C_1 
REMARK       I    between atoms: C_4  and  N_2 
REMARK       I    between atoms: C_5  and  N_3 
REMARK    4  A    between atoms: O_11  and  C_4 
REMARK    5  A    between atoms: O_12  and  C_5 
REMARK    6  A    between atoms: C_10  and  C_6 
REMARK    7  A    between atoms: C_15  and  O_11 
REMARK    8  A    between atoms: C_16  and  O_12 
ROOT
ATOM      1  C   UNL d   1      30.958  16.872 -24.123  0.00  0.00     0.211 C 
ENDROOT
BRANCH   1   2
ATOM      2  N   UNL d   1      30.617  16.521 -23.472  0.00  0.00    -0.163 NA
ATOM      3  C   UNL d   1      30.198  15.820 -23.554  0.00  0.00     0.394 C 
ATOM      4  O   UNL d   1      30.110  15.453 -24.289  0.00  0.00    -0.236 OA
BRANCH   3   5
ATOM      5  O   UNL d   1      29.852  15.465 -22.894  0.00  0.00    -0.256 OA
BRANCH   5   6
ATOM      6  C   UNL d   1      29.023  15.476 -22.798  0.00  0.00     0.128 C 
ATOM      7  C   UNL d   1      28.688  15.456 -22.046  0.00  0.00     0.029 C 
ENDBRANCH   5   6
ENDBRANCH   3   5
ENDBRANCH   1   2
BRANCH   1   8
ATOM      8  N   UNL d   1      30.484  17.243 -24.713  0.00  0.00    -0.163 NA
ATOM      9  C   UNL d   1      29.852  17.729 -24.508  0.00  0.00     0.394 C 
ATOM     10  O   UNL d   1      29.694  17.845 -23.715  0.00  0.00    -0.236 OA
BRANCH   9  11
ATOM     11  O   UNL d   1      29.381  18.096 -25.097  0.00  0.00    -0.256 OA
BRANCH  11  12
ATOM     12  C   UNL d   1      29.183  18.721 -24.957  0.00  0.00     0.128 C 
ATOM     13  C   UNL d   1      28.345  18.850 -24.897  0.00  0.00     0.029 C 
ENDBRANCH  11  12
ENDBRANCH   9  11
ENDBRANCH   1   8
BRANCH   1  14
ATOM     14  C   UNL d   1      31.788  16.869 -24.214  0.00  0.00     0.231 C 
ATOM     15  O   UNL d   1      32.148  16.314 -24.710  0.00  0.00    -0.283 OA
BRANCH  14  16
ATOM     16  C   UNL d   1      32.270  17.429 -23.804  0.00  0.00     0.042 A 
ATOM     17  C   UNL d   1      32.603  18.058 -24.214  0.00  0.00     0.003 A 
ATOM     18  C   UNL d   1      33.073  18.610 -23.829  0.00  0.00     0.000 A 
ATOM     19  C   UNL d   1      33.216  18.531 -23.001  0.00  0.00     0.000 A 
ATOM     20  C   UNL d   1      32.881  17.903 -22.605  0.00  0.00     0.000 A 
ATOM     21  C   UNL d   1      32.410  17.352 -22.998  0.00  0.00     0.003 A 
ENDBRANCH  14  16
ENDBRANCH   1  14
TORSDOF 8
ENDMDL
MODEL 3
REMARK VINA RESULT:       0.5      1.017      3.660
REMARK  8 active torsions:
REMARK  status: ('A' for Active; 'I' for Inactive)
REMARK    1  A    between atoms: N_2  and  C_1 
REMARK    2  A    between atoms: N_3  and  C_1 
REMARK    3  A    between atoms: C_6  and  C_1 
REMARK       I    between atoms: C_4  and  N_2 
REMARK       I    between atoms: C_5  and  N_3 
REMARK    4  A    between atoms: O_11  and  C_4 
REMARK    5  A    between atoms: O_12  and  C_5 
REMARK    6  A    between atoms: C_10  and  C_6 
REMARK    7  A    between atoms: C_15  and  O_11 
REMARK    8  A    between atoms: C_16  and  O_12 
ROOT
ATOM      1  C   UNL d   1      30.725  16.794 -24.566  0.00  0.00     0.211 C 
ENDROOT
BRANCH   1   2
ATOM      2  N   UNL d   1      30.082  16.923 -24.083  0.00  0.00    -0.163 NA
ATOM      3  C   UNL d   1      29.336  16.670 -24.314  0.00  0.00     0.394 C 
ATOM      4  O   UNL d   1      29.215  16.281 -25.034  0.00  0.00    -0.236 OA
BRANCH   3   5
ATOM      5  O   UNL d   1      28.684  16.801 -23.825  0.00  0.00    -0.256 OA
BRANCH   5   6
ATOM      6  C   UNL d   1      27.964  16.405 -23.972  0.00  0.00     0.128 C 
ATOM      7  C   UNL d   1      27.875  15.610 -23.772  0.00  0.00     0.029 C 
ENDBRANCH   5   6
ENDBRANCH   3   5
ENDBRANCH   1   2
BRANCH   1   8
ATOM      8  N   UNL d   1      31.065  17.424 -25.011  0.00  0.00    -0.163 NA
ATOM      9  C   UNL d   1      31.275  18.134 -24.651  0.00  0.00     0.394 C 
ATOM     10  O   UNL d   1      31.146  18.215 -23.848  0.00  0.00    -0.236 OA
BRANCH   9  11
ATOM     11  O   UNL d   1      31.613  18.760 -25.096  0.00  0.00    -0.256 OA
BRANCH  11  12
ATOM     12  C   UNL d   1      32.230  18.945 -24.908  0.00  0.00     0.128 C 
ATOM     13  C   UNL d   1      32.434  19.761 -25.023  0.00  0.00     0.029 C 
ENDBRANCH  11  12
ENDBRANCH   9  11
ENDBRANCH   1   8
BRANCH   1  14
ATOM     14  C   UNL d   1      31.058  16.030 -24.626  0.00  0.00     0.231 C 
ATOM     15  O   UNL d   1      30.692  15.455 -25.092  0.00  0.00    -0.283 OA
BRANCH  14  16
ATOM     16  C   UNL d   1      31.769  15.835 -24.213  0.00  0.00     0.042 A 
ATOM     17  C   UNL d   1      31.757  15.756 -23.396  0.00  0.00     0.003 A 
ATOM     18  C   UNL d   1      32.440  15.567 -22.981  0.00  0.00     0.000 A 
ATOM     19  C   UNL d   1      33.163  15.453 -23.399  0.00  0.00     0.000 A 
ATOM     20  C   UNL d   1      33.164  15.533 -24.209  0.00  0.00     0.000 A 
ATOM     21  C   UNL d   1      32.474  15.724 -24.620  0.00  0.00     0.003 A 
ENDBRANCH  14  16
ENDBRANCH   1  14
TORSDOF 8
ENDMDL
MODEL 4
REMARK VINA RESULT:       0.6      1.080      3.174
REMARK  8 active torsions:
REMARK  status: ('A' for Active; 'I' for Inactive)
REMARK    1  A    between atoms: N_2  and  C_1 
REMARK    2  A    between atoms: N_3  and  C_1 
REMARK    3  A    between atoms: C_6  and  C_1 
REMARK       I    between atoms: C_4  and  N_2 
REMARK       I    between atoms: C_5  and  N_3 
REMARK    4  A    between atoms: O_11  and  C_4 
REMARK    5  A    between atoms: O_12  and  C_5 
REMARK    6  A    between atoms: C_10  and  C_6 
REMARK    7  A    between atoms: C_15  and  O_11 
REMARK    8  A    between atoms: C_16  and  O_12 
ROOT
ATOM      1  C   UNL d   1      31.591  17.408 -24.436  0.00  0.00     0.211 C 
ENDROOT
BRANCH   1   2
ATOM      2  N   UNL d   1      31.028  16.961 -24.820  0.00  0.00    -0.163 NA
ATOM      3  C   UNL d   1      30.241  17.001 -24.589  0.00  0.00     0.394 C 
ATOM      4  O   UNL d   1      29.998  17.490 -23.968  0.00  0.00    -0.236 OA
BRANCH   3   5
ATOM      5  O   UNL d   1      29.672  16.548 -24.978  0.00  0.00    -0.256 OA
BRANCH   5   6
ATOM      6  C   UNL d   1      29.124  16.096 -24.539  0.00  0.00     0.128 C 
ATOM      7  C   UNL d   1      28.414  15.853 -24.880  0.00  0.00     0.029 C 
ENDBRANCH   5   6
ENDBRANCH   3   5
ENDBRANCH   1   2
BRANCH   1   8
ATOM      8  N   UNL d   1      32.161  17.046 -23.932  0.00  0.00    -0.163 NA
ATOM      9  C   UNL d   1      32.542  16.350 -24.151  0.00  0.00     0.394 C 
ATOM     10  O   UNL d   1      32.353  16.017 -24.873  0.00  0.00    -0.236 OA
BRANCH   9  11
ATOM     11  O   UNL d   1      33.109  15.991 -23.648  0.00  0.00    -0.256 OA
BRANCH  11  12
ATOM     12  C   UNL d   1      32.869  15.523 -23.233  0.00  0.00     0.128 C 
ATOM     13  C   UNL d   1      33.241  15.461 -22.472  0.00  0.00     0.029 C 
ENDBRANCH  11  12
ENDBRANCH   9  11
ENDBRANCH   1   8
BRANCH   1  14
ATOM     14  C   UNL d   1      31.609  18.237 -24.538  0.00  0.00     0.231 C 
ATOM     15  O   UNL d   1      31.107  18.597 -25.087  0.00  0.00    -0.283 OA
BRANCH  14  16
ATOM     16  C   UNL d   1      32.137  18.717 -24.085  0.00  0.00     0.042 A 
ATOM     17  C   UNL d   1      32.720  19.152 -24.465  0.00  0.00     0.003 A 
ATOM     18  C   UNL d   1      33.240  19.622 -24.039  0.00  0.00     0.000 A 
ATOM     19  C   UNL d   1      33.175  19.659 -23.198  0.00  0.00     0.000 A 
ATOM     20  C   UNL d   1      32.593  19.223 -22.832  0.00  0.00     0.000 A 
ATOM     21  C   UNL d   1      32.074  18.753 -23.267  0.00  0.00     0.003 A 
ENDBRANCH  14  16
ENDBRANCH   1  14
TORSDOF 8
ENDMDL
MODEL 5
REMARK VINA RESULT:       2.0      1.863      3.628
REMARK  8 active torsions:
REMARK  status: ('A' for Active; 'I' for Inactive)
REMARK    1  A    between atoms: N_2  and  C_1 
REMARK    2  A    between atoms: N_3  and  C_1 
REMARK    3  A    between atoms: C_6  and  C_1 
REMARK       I    between atoms: C_4  and  N_2 
REMARK       I    between atoms: C_5  and  N_3 
REMARK    4  A    between atoms: O_11  and  C_4 
REMARK    5  A    between atoms: O_12  and  C_5 
REMARK    6  A    between atoms: C_10  and  C_6 
REMARK    7  A    between atoms: C_15  and  O_11 
REMARK    8  A    between atoms: C_16  and  O_12 
ROOT
ATOM      1  C   UNL d   1      32.306  18.396 -23.993  0.00  0.00     0.211 C 
ENDROOT
BRANCH   1   2
ATOM      2  N   UNL d   1      31.531  18.182 -23.861  0.00  0.00    -0.163 NA
ATOM      3  C   UNL d   1      30.950  18.384 -24.405  0.00  0.00     0.394 C 
ATOM      4  O   UNL d   1      31.130  18.807 -25.092  0.00  0.00    -0.236 OA
BRANCH   3   5
ATOM      5  O   UNL d   1      30.165  18.167 -24.272  0.00  0.00    -0.256 OA
BRANCH   5   6
ATOM      6  C   UNL d   1      29.546  18.695 -24.459  0.00  0.00     0.128 C 
ATOM      7  C   UNL d   1      28.778  18.418 -24.568  0.00  0.00     0.029 C 
ENDBRANCH   5   6
ENDBRANCH   3   5
ENDBRANCH   1   2
BRANCH   1   8
ATOM      8  N   UNL d   1      32.644  19.059 -23.597  0.00  0.00    -0.163 NA
ATOM      9  C   UNL d   1      32.426  19.252 -22.827  0.00  0.00     0.394 C 
ATOM     10  O   UNL d   1      31.871  18.783 -22.453  0.00  0.00    -0.236 OA
BRANCH   9  11
ATOM     11  O   UNL d   1      32.764  19.912 -22.435  0.00  0.00    -0.256 OA
BRANCH  11  12
ATOM     12  C   UNL d   1      32.458  20.096 -21.868  0.00  0.00     0.128 C 
ATOM     13  C   UNL d   1      32.954  20.398 -21.248  0.00  0.00     0.029 C 
ENDBRANCH  11  12
ENDBRANCH   9  11
ENDBRANCH   1   8
BRANCH   1  14
ATOM     14  C   UNL d   1      32.778  17.959 -24.525  0.00  0.00     0.231 C 
ATOM     15  O   UNL d   1      33.228  18.349 -25.097  0.00  0.00    -0.283 OA
BRANCH  14  16
ATOM     16  C   UNL d   1      32.802  17.114 -24.487  0.00  0.00     0.042 A 
ATOM     17  C   UNL d   1      32.404  16.670 -25.052  0.00  0.00     0.003 A 
ATOM     18  C   UNL d   1      32.418  15.850 -25.029  0.00  0.00     0.000 A 
ATOM     19  C   UNL d   1      32.846  15.457 -24.416  0.00  0.00     0.000 A 
ATOM     20  C   UNL d   1      33.236  15.908 -23.862  0.00  0.00     0.000 A 
ATOM     21  C   UNL d   1      33.218  16.732 -23.891  0.00  0.00     0.003 A 
ENDBRANCH  14  16
ENDBRANCH   1  14
TORSDOF 8
ENDMDL
