MODEL 1
REMARK VINA RESULT:      -3.6      0.000      0.000
REMARK  5 active torsions:
REMARK  status: ('A' for Active; 'I' for Inactive)
REMARK    1  A    between atoms: S_2  and  C_1 
REMARK    2  A    between atoms: C_8  and  S_2 
REMARK    3  A    between atoms: C_18  and  N_6 
REMARK    4  A    between atoms: O_22  and  C_16 
REMARK    5  A    between atoms: C_23  and  O_22 
ROOT
ATOM      1  C   UNL d   1      32.832  21.425 -21.712  0.00  0.00     0.144 A 
ATOM      2  C   UNL d   1      33.003  21.503 -20.912  0.00  0.00     0.209 A 
ATOM      3  C   UNL d   1      32.947  22.225 -20.532  0.00  0.00     0.058 A 
ATOM      4  C   UNL d   1      32.595  22.100 -22.147  0.00  0.00     0.095 A 
ATOM      5  N   UNL d   1      32.536  22.835 -21.770  0.00  0.00    -0.303 N 
ATOM      6  C   UNL d   1      32.710  22.900 -20.967  0.00  0.00     0.067 A 
ATOM      7  C   UNL d   1      32.651  23.632 -20.593  0.00  0.00     0.020 A 
ATOM      8  C   UNL d   1      33.118  22.301 -19.736  0.00  0.00     0.029 A 
ATOM      9  O   UNL d   1      33.237  20.838 -20.484  0.00  0.00    -0.286 OA
ATOM     10  C   UNL d   1      33.063  23.027 -19.349  0.00  0.00     0.100 A 
ATOM     11  C   UNL d   1      32.825  23.702 -19.784  0.00  0.00     0.026 A 
ENDROOT
BRANCH   1  12
ATOM     12  S   UNL d   1      32.888  20.699 -22.099  0.00  0.00     0.214 S 
ATOM     13  O   UNL d   1      32.539  20.314 -21.459  0.00  0.00    -0.217 OA
ATOM     14  O   UNL d   1      33.241  21.083 -22.750  0.00  0.00    -0.217 OA
BRANCH  12  15
ATOM     15  C   UNL d   1      32.948  19.976 -22.497  0.00  0.00     0.088 A 
ATOM     16  C   UNL d   1      32.781  19.928 -23.304  0.00  0.00     0.011 A 
ATOM     17  C   UNL d   1      32.841  19.210 -23.702  0.00  0.00     0.001 A 
ATOM     18  C   UNL d   1      33.070  18.528 -23.295  0.00  0.00     0.000 A 
ATOM     19  C   UNL d   1      33.238  18.572 -22.487  0.00  0.00     0.001 A 
ATOM     20  C   UNL d   1      33.132  17.802 -23.693  0.00  0.00     0.000 C 
ATOM     21  C   UNL d   1      33.179  19.290 -22.089  0.00  0.00     0.011 A 
ENDBRANCH  12  15
ENDBRANCH   1  12
BRANCH   5  22
ATOM     22  C   UNL d   1      32.303  23.505 -22.191  0.00  0.00     0.080 C 
ATOM     23  C   UNL d   1      32.405  23.526 -23.008  0.00  0.00     0.021 C 
ENDBRANCH   5  22
BRANCH  10  24
ATOM     24  O   UNL d   1      33.233  23.103 -18.553  0.00  0.00    -0.305 OA
BRANCH  24  25
ATOM     25  C   UNL d   1      32.744  23.526 -18.047  0.00  0.00     0.123 C 
ATOM     26  C   UNL d   1      32.739  23.372 -17.238  0.00  0.00     0.029 C 
ENDBRANCH  24  25
ENDBRANCH  10  24
TORSDOF 5
ENDMDL
MODEL 2
REMARK VINA RESULT:      -2.8      1.238      4.706
REMARK  5 active torsions:
REMARK  status: ('A' for Active; 'I' for Inactive)
REMARK    1  A    between atoms: S_2  and  C_1 
REMARK    2  A    between atoms: C_8  and  S_2 
REMARK    3  A    between atoms: C_18  and  N_6 
REMARK    4  A    between atoms: O_22  and  C_16 
REMARK    5  A    between atoms: C_23  and  O_22 
ROOT
ATOM      1  C   UNL d   1      32.954  21.010 -22.173  0.00  0.00     0.144 A 
ATOM      2  C   UNL d   1      32.938  20.195 -22.077  0.00  0.00     0.209 A 
ATOM      3  C   UNL d   1      33.019  19.687 -22.713  0.00  0.00     0.058 A 
ATOM      4  C   UNL d   1      33.056  21.329 -22.941  0.00  0.00     0.095 A 
ATOM      5  N   UNL d   1      33.139  20.822 -23.591  0.00  0.00    -0.303 N 
ATOM      6  C   UNL d   1      33.121  20.006 -23.482  0.00  0.00     0.067 A 
ATOM      7  C   UNL d   1      33.204  19.504 -24.129  0.00  0.00     0.020 A 
ATOM      8  C   UNL d   1      33.002  18.876 -22.616  0.00  0.00     0.029 A 
ATOM      9  O   UNL d   1      32.837  19.881 -21.321  0.00  0.00    -0.286 OA
ATOM     10  C   UNL d   1      33.084  18.361 -23.255  0.00  0.00     0.100 A 
ATOM     11  C   UNL d   1      33.186  18.680 -24.023  0.00  0.00     0.026 A 
ENDROOT
BRANCH   1  12
ATOM     12  S   UNL d   1      32.873  21.524 -21.534  0.00  0.00     0.214 S 
ATOM     13  O   UNL d   1      33.240  20.984 -21.032  0.00  0.00    -0.217 OA
ATOM     14  O   UNL d   1      32.500  22.075 -22.038  0.00  0.00    -0.217 OA
BRANCH  12  15
ATOM     15  C   UNL d   1      32.786  22.049 -20.901  0.00  0.00     0.088 A 
ATOM     16  C   UNL d   1      32.245  22.672 -20.945  0.00  0.00     0.011 A 
ATOM     17  C   UNL d   1      32.156  23.195 -20.315  0.00  0.00     0.001 A 
ATOM     18  C   UNL d   1      32.611  23.100 -19.630  0.00  0.00     0.000 A 
ATOM     19  C   UNL d   1      33.153  22.479 -19.583  0.00  0.00     0.001 A 
ATOM     20  C   UNL d   1      32.525  23.626 -18.993  0.00  0.00     0.000 C 
ATOM     21  C   UNL d   1      33.241  21.956 -20.213  0.00  0.00     0.011 A 
ENDBRANCH  12  15
ENDBRANCH   1  12
BRANCH   5  22
ATOM     22  C   UNL d   1      33.240  21.128 -24.351  0.00  0.00     0.080 C 
ATOM     23  C   UNL d   1      33.183  21.941 -24.471  0.00  0.00     0.021 C 
ENDBRANCH   5  22
BRANCH  10  24
ATOM     24  O   UNL d   1      33.067  17.550 -23.158  0.00  0.00    -0.305 OA
BRANCH  24  25
ATOM     25  C   UNL d   1      32.461  17.092 -23.469  0.00  0.00     0.123 C 
ATOM     26  C   UNL d   1      32.465  16.273 -23.385  0.00  0.00     0.029 C 
ENDBRANCH  24  25
ENDBRANCH  10  24
TORSDOF 5
ENDMDL
MODEL 3
REMARK VINA RESULT:      -1.8      1.023      4.601
REMARK  5 active torsions:
REMARK  status: ('A' for Active; 'I' for Inactive)
REMARK    1  A    between atoms: S_2  and  C_1 
REMARK    2  A    between atoms: C_8  and  S_2 
REMARK    3  A    between atoms: C_18  and  N_6 
REMARK    4  A    between atoms: O_22  and  C_16 
REMARK    5  A    between atoms: C_23  and  O_22 
ROOT
ATOM      1  C   UNL d   1      33.080  21.929 -21.042  0.00  0.00     0.144 A 
ATOM      2  C   UNL d   1      33.100  21.114 -21.145  0.00  0.00     0.209 A 
ATOM      3  C   UNL d   1      33.147  20.778 -21.888  0.00  0.00     0.058 A 
ATOM      4  C   UNL d   1      33.107  22.426 -21.717  0.00  0.00     0.095 A 
ATOM      5  N   UNL d   1      33.154  22.093 -22.473  0.00  0.00    -0.303 N 
ATOM      6  C   UNL d   1      33.174  21.275 -22.562  0.00  0.00     0.067 A 
ATOM      7  C   UNL d   1      33.220  20.946 -23.316  0.00  0.00     0.020 A 
ATOM      8  C   UNL d   1      33.167  19.966 -21.988  0.00  0.00     0.029 A 
ATOM      9  O   UNL d   1      33.074  20.625 -20.481  0.00  0.00    -0.286 OA
ATOM     10  C   UNL d   1      33.214  19.623 -22.736  0.00  0.00     0.100 A 
ATOM     11  C   UNL d   1      33.241  20.120 -23.411  0.00  0.00     0.026 A 
ENDROOT
BRANCH   1  12
ATOM     12  S   UNL d   1      33.033  22.272 -20.294  0.00  0.00     0.214 S 
ATOM     13  O   UNL d   1      32.906  23.015 -20.626  0.00  0.00    -0.217 OA
ATOM     14  O   UNL d   1      33.162  21.522 -19.952  0.00  0.00    -0.217 OA
BRANCH  12  15
ATOM     15  C   UNL d   1      32.988  22.605 -19.539  0.00  0.00     0.088 A 
ATOM     16  C   UNL d   1      33.241  22.178 -18.878  0.00  0.00     0.011 A 
ATOM     17  C   UNL d   1      33.197  22.508 -18.124  0.00  0.00     0.001 A 
ATOM     18  C   UNL d   1      32.898  23.273 -18.023  0.00  0.00     0.000 A 
ATOM     19  C   UNL d   1      32.645  23.702 -18.682  0.00  0.00     0.001 A 
ATOM     20  C   UNL d   1      32.852  23.609 -17.265  0.00  0.00     0.000 C 
ATOM     21  C   UNL d   1      32.689  23.372 -19.435  0.00  0.00     0.011 A 
ENDBRANCH  12  15
ENDBRANCH   1  12
BRANCH   5  22
ATOM     22  C   UNL d   1      33.181  22.575 -23.142  0.00  0.00     0.080 C 
ATOM     23  C   UNL d   1      32.755  23.281 -23.150  0.00  0.00     0.021 C 
ENDBRANCH   5  22
BRANCH  10  24
ATOM     24  O   UNL d   1      33.234  18.812 -22.836  0.00  0.00    -0.305 OA
BRANCH  24  25
ATOM     25  C   UNL d   1      32.739  18.432 -23.370  0.00  0.00     0.123 C 
ATOM     26  C   UNL d   1      33.009  17.796 -23.817  0.00  0.00     0.029 C 
ENDBRANCH  24  25
ENDBRANCH  10  24
TORSDOF 5
ENDMDL
MODEL 4
REMARK VINA RESULT:      -1.1      2.262      3.439
REMARK  5 active torsions:
REMARK  status: ('A' for Active; 'I' for Inactive)
REMARK    1  A    between atoms: S_2  and  C_1 
REMARK    2  A    between atoms: C_8  and  S_2 
REMARK    3  A    between atoms: C_18  and  N_6 
REMARK    4  A    between atoms: O_22  and  C_16 
REMARK    5  A    between atoms: C_23  and  O_22 
ROOT
ATOM      1  C   UNL d   1      32.662  19.632 -22.860  0.00  0.00     0.144 A 
ATOM      2  C   UNL d   1      32.758  20.246 -23.397  0.00  0.00     0.209 A 
ATOM      3  C   UNL d   1      32.901  21.012 -23.150  0.00  0.00     0.058 A 
ATOM      4  C   UNL d   1      32.711  19.796 -22.040  0.00  0.00     0.095 A 
ATOM      5  N   UNL d   1      32.856  20.569 -21.781  0.00  0.00    -0.303 N 
ATOM      6  C   UNL d   1      32.951  21.176 -22.330  0.00  0.00     0.067 A 
ATOM      7  C   UNL d   1      33.095  21.944 -22.071  0.00  0.00     0.020 A 
ATOM      8  C   UNL d   1      32.997  21.621 -23.687  0.00  0.00     0.029 A 
ATOM      9  O   UNL d   1      32.709  20.084 -24.205  0.00  0.00    -0.286 OA
ATOM     10  C   UNL d   1      33.142  22.395 -23.442  0.00  0.00     0.100 A 
ATOM     11  C   UNL d   1      33.192  22.559 -22.621  0.00  0.00     0.026 A 
ENDROOT
BRANCH   1  12
ATOM     12  S   UNL d   1      32.517  18.858 -23.105  0.00  0.00     0.214 S 
ATOM     13  O   UNL d   1      33.048  18.566 -22.547  0.00  0.00    -0.217 OA
ATOM     14  O   UNL d   1      31.979  19.149 -23.672  0.00  0.00    -0.217 OA
BRANCH  12  15
ATOM     15  C   UNL d   1      32.364  18.087 -23.360  0.00  0.00     0.088 A 
ATOM     16  C   UNL d   1      31.620  17.883 -23.656  0.00  0.00     0.011 A 
ATOM     17  C   UNL d   1      31.466  17.115 -23.910  0.00  0.00     0.001 A 
ATOM     18  C   UNL d   1      32.057  16.539 -23.870  0.00  0.00     0.000 A 
ATOM     19  C   UNL d   1      32.802  16.738 -23.574  0.00  0.00     0.001 A 
ATOM     20  C   UNL d   1      31.905  15.763 -24.125  0.00  0.00     0.000 C 
ATOM     21  C   UNL d   1      32.957  17.506 -23.320  0.00  0.00     0.011 A 
ENDBRANCH  12  15
ENDBRANCH   1  12
BRANCH   5  22
ATOM     22  C   UNL d   1      32.907  20.739 -20.975  0.00  0.00     0.080 C 
ATOM     23  C   UNL d   1      33.239  20.185 -20.464  0.00  0.00     0.021 C 
ENDBRANCH   5  22
BRANCH  10  24
ATOM     24  O   UNL d   1      33.238  23.005 -23.978  0.00  0.00    -0.305 OA
BRANCH  24  25
ATOM     25  C   UNL d   1      32.601  23.454 -24.236  0.00  0.00     0.123 C 
ATOM     26  C   UNL d   1      32.550  23.702 -25.020  0.00  0.00     0.029 C 
ENDBRANCH  24  25
ENDBRANCH  10  24
TORSDOF 5
ENDMDL
