MODEL 1
REMARK VINA RESULT:      -4.2      0.000      0.000
REMARK  6 active torsions:
REMARK  status: ('A' for Active; 'I' for Inactive)
REMARK    1  A    between atoms: C_12  and  N_1 
REMARK    2  A    between atoms: N_8  and  C_2 
REMARK    3  A    between atoms: C_6  and  C_5 
REMARK    4  A    between atoms: C_7  and  C_6 
REMARK       I    between atoms: N_9  and  C_7 
REMARK    5  A    between atoms: C_19  and  N_8 
REMARK    6  A    between atoms: C_13  and  N_9 
ROOT
ATOM      1  N   UNL d   1     -42.667-122.899 -49.678  0.00  0.00    -0.252 N 
ATOM      2  C   UNL d   1     -41.942-123.275 -49.526  0.00  0.00     0.182 A 
ATOM      3  C   UNL d   1     -42.633-122.587 -50.448  0.00  0.00     0.272 A 
ATOM      4  S   UNL d   1     -41.461-123.196 -50.195  0.00  0.00    -0.045 SA
ATOM      5  C   UNL d   1     -41.891-122.770 -50.763  0.00  0.00     0.093 A 
ATOM      6  O   UNL d   1     -43.242-122.163 -50.831  0.00  0.00    -0.266 OA
ENDROOT
BRANCH   5   7
ATOM      7  C   UNL d   1     -41.414-122.692 -51.425  0.00  0.00     0.074 C 
BRANCH   7   8
ATOM      8  C   UNL d   1     -41.536-122.734 -52.238  0.00  0.00     0.280 C 
ATOM      9  N   UNL d   1     -41.475-122.055 -52.698  0.00  0.00    -0.208 NA
ATOM     10  O   UNL d   1     -41.719-123.457 -52.591  0.00  0.00    -0.265 OA
BRANCH   9  11
ATOM     11  C   UNL d   1     -41.600-122.108 -53.517  0.00  0.00     0.085 A 
ATOM     12  C   UNL d   1     -42.207-121.670 -53.858  0.00  0.00     0.019 A 
ATOM     13  C   UNL d   1     -42.344-121.712 -54.666  0.00  0.00     0.002 A 
ATOM     14  C   UNL d   1     -41.871-122.193 -55.132  0.00  0.00     0.000 A 
ATOM     15  C   UNL d   1     -41.261-122.632 -54.787  0.00  0.00     0.002 A 
ATOM     16  C   UNL d   1     -42.000-122.242 -55.946  0.00  0.00     0.000 C 
ATOM     17  C   UNL d   1     -41.132-122.585 -53.978  0.00  0.00     0.019 A 
ENDBRANCH   9  11
ENDBRANCH   7   8
ENDBRANCH   5   7
BRANCH   1  18
ATOM     18  C   UNL d   1     -43.294-122.863 -49.133  0.00  0.00     0.085 C 
ATOM     19  C   UNL d   1     -44.059-123.079 -49.352  0.00  0.00     0.021 C 
ENDBRANCH   1  18
BRANCH   2  20
ATOM     20  N   UNL d   1     -41.661-123.680 -48.856  0.00  0.00    -0.221 NA
BRANCH  20  21
ATOM     21  C   UNL d   1     -41.123-123.505 -48.256  0.00  0.00     0.101 C 
ATOM     22  C   UNL d   1     -41.287-123.727 -47.478  0.00  0.00     0.022 C 
ENDBRANCH  20  21
ENDBRANCH   2  20
TORSDOF 6
ENDMDL
