MODEL 1
REMARK VINA RESULT:      46.9      0.000      0.000
REMARK  4 active torsions:
REMARK  status: ('A' for Active; 'I' for Inactive)
REMARK    1  A    between atoms: C_2  and  S_1 
REMARK    2  A    between atoms: N_5  and  S_1 
REMARK    3  A    between atoms: C_10  and  N_5 
REMARK    4  A    between atoms: C_11  and  C_10 
ROOT
ATOM      1  S   UNL d   1     -49.863  26.915  33.953  0.00  0.00     0.291 S 
ATOM      2  O   UNL d   1     -50.318  27.199  34.580  0.00  0.00    -0.198 OA
ATOM      3  O   UNL d   1     -49.411  26.628  33.325  0.00  0.00    -0.198 OA
ENDROOT
BRANCH   1   4
ATOM      4  C   UNL d   1     -50.483  26.421  33.722  0.00  0.00     0.135 A 
ATOM      5  S   UNL d   1     -50.466  25.604  33.685  0.00  0.00    -0.074 SA
ATOM      6  C   UNL d   1     -51.202  25.341  33.428  0.00  0.00     0.030 A 
ATOM      7  C   UNL d   1     -51.433  24.555  33.310  0.00  0.00     0.007 C 
ATOM      8  C   UNL d   1     -51.678  26.003  33.306  0.00  0.00     0.008 A 
ATOM      9  C   UNL d   1     -51.235  26.672  33.487  0.00  0.00     0.020 A 
ENDBRANCH   1   4
BRANCH   1  10
ATOM     10  N   UNL d   1     -49.243  27.399  34.172  0.00  0.00    -0.156 NA
BRANCH  10  11
ATOM     11  C   UNL d   1     -49.148  27.615  34.961  0.00  0.00     0.112 C 
BRANCH  11  12
ATOM     12  C   UNL d   1     -48.654  28.246  35.160  0.00  0.00     0.020 A 
ATOM     13  C   UNL d   1     -48.210  28.625  34.569  0.00  0.00     0.002 A 
ATOM     14  C   UNL d   1     -47.717  29.255  34.768  0.00  0.00     0.000 A 
ATOM     15  C   UNL d   1     -47.667  29.506  35.558  0.00  0.00     0.000 A 
ATOM     16  C   UNL d   1     -48.110  29.125  36.141  0.00  0.00     0.000 A 
ATOM     17  C   UNL d   1     -47.173  30.137  35.757  0.00  0.00     0.000 C 
ATOM     18  C   UNL d   1     -48.604  28.495  35.942  0.00  0.00     0.002 A 
ENDBRANCH  11  12
ENDBRANCH  10  11
ENDBRANCH   1  10
TORSDOF 4
ENDMDL
MODEL 2
REMARK VINA RESULT:      49.6      1.434      4.530
REMARK  4 active torsions:
REMARK  status: ('A' for Active; 'I' for Inactive)
REMARK    1  A    between atoms: C_2  and  S_1 
REMARK    2  A    between atoms: N_5  and  S_1 
REMARK    3  A    between atoms: C_10  and  N_5 
REMARK    4  A    between atoms: C_11  and  C_10 
ROOT
ATOM      1  S   UNL d   1     -48.696  28.522  35.056  0.00  0.00     0.291 S 
ATOM      2  O   UNL d   1     -48.639  28.727  34.259  0.00  0.00    -0.198 OA
ATOM      3  O   UNL d   1     -48.750  28.319  35.854  0.00  0.00    -0.198 OA
ENDROOT
BRANCH   1   4
ATOM      4  C   UNL d   1     -48.191  29.142  35.256  0.00  0.00     0.135 A 
ATOM      5  S   UNL d   1     -48.084  29.837  34.838  0.00  0.00    -0.074 SA
ATOM      6  C   UNL d   1     -47.530  30.298  35.236  0.00  0.00     0.030 A 
ATOM      7  C   UNL d   1     -47.254  31.045  35.011  0.00  0.00     0.007 C 
ATOM      8  C   UNL d   1     -47.293  29.882  35.908  0.00  0.00     0.008 A 
ATOM      9  C   UNL d   1     -47.700  29.168  35.922  0.00  0.00     0.020 A 
ENDBRANCH   1   4
BRANCH   1  10
ATOM     10  N   UNL d   1     -49.197  27.904  34.869  0.00  0.00    -0.156 NA
BRANCH  10  11
ATOM     11  C   UNL d   1     -49.288  27.670  34.085  0.00  0.00     0.112 C 
BRANCH  11  12
ATOM     12  C   UNL d   1     -49.834  27.083  33.890  0.00  0.00     0.020 A 
ATOM     13  C   UNL d   1     -49.567  26.349  33.604  0.00  0.00     0.002 A 
ATOM     14  C   UNL d   1     -50.113  25.762  33.409  0.00  0.00     0.000 A 
ATOM     15  C   UNL d   1     -50.925  25.908  33.501  0.00  0.00     0.000 A 
ATOM     16  C   UNL d   1     -51.184  26.638  33.785  0.00  0.00     0.000 A 
ATOM     17  C   UNL d   1     -51.471  25.321  33.306  0.00  0.00     0.000 C 
ATOM     18  C   UNL d   1     -50.638  27.226  33.980  0.00  0.00     0.002 A 
ENDBRANCH  11  12
ENDBRANCH  10  11
ENDBRANCH   1  10
TORSDOF 4
ENDMDL
