MODEL 1
REMARK VINA RESULT:      -6.4      0.000      0.000
REMARK  7 active torsions:
REMARK  status: ('A' for Active; 'I' for Inactive)
REMARK    1  A    between atoms: C_3  and  C_1 
REMARK    2  A    between atoms: N_2  and  C_9 
REMARK    3  A    between atoms: C_14  and  N_2 
REMARK    4  A    between atoms: O_6  and  C_8 
REMARK    5  A    between atoms: C_10  and  O_6 
REMARK    6  A    between atoms: C_7  and  C_10 
REMARK    7  A    between atoms: C_9  and  C_7 
ROOT
ATOM      1  C   UNL d   1     -48.633  14.347  22.881  0.00  0.00     0.000 A 
ATOM      2  C   UNL d   1     -48.017  14.815  22.595  0.00  0.00     0.002 A 
ATOM      3  C   UNL d   1     -48.469  13.596  23.194  0.00  0.00     0.002 A 
ATOM      4  C   UNL d   1     -47.080  13.795  22.930  0.00  0.00     0.100 A 
ATOM      5  C   UNL d   1     -47.695  13.318  23.220  0.00  0.00     0.025 A 
ATOM      6  C   UNL d   1     -47.245  14.542  22.620  0.00  0.00     0.025 A 
ENDROOT
BRANCH   4   7
ATOM      7  O   UNL d   1     -46.306  13.519  22.956  0.00  0.00    -0.302 OA
BRANCH   7   8
ATOM      8  C   UNL d   1     -46.116  12.769  22.664  0.00  0.00     0.166 C 
BRANCH   8   9
ATOM      9  C   UNL d   1     -45.352  12.470  22.737  0.00  0.00     0.239 C 
ATOM     10  O   UNL d   1     -44.722  12.882  22.399  0.00  0.00    -0.283 OA
BRANCH   9  11
ATOM     11  C   UNL d   1     -45.218  11.766  23.144  0.00  0.00     0.143 C 
BRANCH  11  12
ATOM     12  N   UNL d   1     -44.485  11.386  23.078  0.00  0.00    -0.241 NA
BRANCH  12  13
ATOM     13  C   UNL d   1     -44.396  10.632  23.405  0.00  0.00     0.082 C 
ATOM     14  C   UNL d   1     -43.645  10.295  23.444  0.00  0.00     0.021 C 
ATOM     15  C   UNL d   1     -45.050  10.218  23.691  0.00  0.00     0.021 C 
ENDBRANCH  12  13
ENDBRANCH  11  12
ENDBRANCH   9  11
ENDBRANCH   8   9
ENDBRANCH   7   8
ENDBRANCH   4   7
BRANCH   1  16
ATOM     16  C   UNL d   1     -49.402  14.618  22.857  0.00  0.00     0.000 A 
ATOM     17  C   UNL d   1     -49.899  14.399  22.229  0.00  0.00     0.000 A 
ATOM     18  C   UNL d   1     -50.679  14.676  22.207  0.00  0.00     0.000 A 
ATOM     19  C   UNL d   1     -50.967  15.166  22.804  0.00  0.00     0.000 A 
ATOM     20  C   UNL d   1     -50.477  15.385  23.430  0.00  0.00     0.000 A 
ATOM     21  C   UNL d   1     -49.693  15.113  23.461  0.00  0.00     0.000 A 
ENDBRANCH   1  16
TORSDOF 7
ENDMDL
MODEL 2
REMARK VINA RESULT:      -5.8      1.210      1.623
REMARK  7 active torsions:
REMARK  status: ('A' for Active; 'I' for Inactive)
REMARK    1  A    between atoms: C_3  and  C_1 
REMARK    2  A    between atoms: N_2  and  C_9 
REMARK    3  A    between atoms: C_14  and  N_2 
REMARK    4  A    between atoms: O_6  and  C_8 
REMARK    5  A    between atoms: C_10  and  O_6 
REMARK    6  A    between atoms: C_7  and  C_10 
REMARK    7  A    between atoms: C_9  and  C_7 
ROOT
ATOM      1  C   UNL d   1     -48.525  14.355  22.870  0.00  0.00     0.000 A 
ATOM      2  C   UNL d   1     -47.885  14.802  22.602  0.00  0.00     0.002 A 
ATOM      3  C   UNL d   1     -48.394  13.604  23.197  0.00  0.00     0.002 A 
ATOM      4  C   UNL d   1     -46.991  13.760  22.984  0.00  0.00     0.100 A 
ATOM      5  C   UNL d   1     -47.630  13.304  23.255  0.00  0.00     0.025 A 
ATOM      6  C   UNL d   1     -47.122  14.506  22.659  0.00  0.00     0.025 A 
ENDROOT
BRANCH   4   7
ATOM      7  O   UNL d   1     -46.227  13.460  23.041  0.00  0.00    -0.302 OA
BRANCH   7   8
ATOM      8  C   UNL d   1     -45.855  13.125  22.384  0.00  0.00     0.166 C 
BRANCH   8   9
ATOM      9  C   UNL d   1     -45.126  12.750  22.460  0.00  0.00     0.239 C 
ATOM     10  O   UNL d   1     -45.032  12.158  23.026  0.00  0.00    -0.283 OA
BRANCH   9  11
ATOM     11  C   UNL d   1     -44.495  12.963  21.973  0.00  0.00     0.143 C 
BRANCH  11  12
ATOM     12  N   UNL d   1     -43.875  12.430  21.846  0.00  0.00    -0.241 NA
BRANCH  12  13
ATOM     13  C   UNL d   1     -43.205  12.688  21.436  0.00  0.00     0.082 C 
ATOM     14  C   UNL d   1     -42.464  12.617  21.788  0.00  0.00     0.021 C 
ATOM     15  C   UNL d   1     -43.274  13.013  20.681  0.00  0.00     0.021 C 
ENDBRANCH  12  13
ENDBRANCH  11  12
ENDBRANCH   9  11
ENDBRANCH   8   9
ENDBRANCH   7   8
ENDBRANCH   4   7
BRANCH   1  16
ATOM     16  C   UNL d   1     -49.284  14.648  22.815  0.00  0.00     0.000 A 
ATOM     17  C   UNL d   1     -49.560  15.192  23.378  0.00  0.00     0.000 A 
ATOM     18  C   UNL d   1     -50.331  15.488  23.320  0.00  0.00     0.000 A 
ATOM     19  C   UNL d   1     -50.826  15.247  22.706  0.00  0.00     0.000 A 
ATOM     20  C   UNL d   1     -50.556  14.708  22.145  0.00  0.00     0.000 A 
ATOM     21  C   UNL d   1     -49.784  14.405  22.195  0.00  0.00     0.000 A 
ENDBRANCH   1  16
TORSDOF 7
ENDMDL
MODEL 3
REMARK VINA RESULT:      -5.4      1.704      2.283
REMARK  7 active torsions:
REMARK  status: ('A' for Active; 'I' for Inactive)
REMARK    1  A    between atoms: C_3  and  C_1 
REMARK    2  A    between atoms: N_2  and  C_9 
REMARK    3  A    between atoms: C_14  and  N_2 
REMARK    4  A    between atoms: O_6  and  C_8 
REMARK    5  A    between atoms: C_10  and  O_6 
REMARK    6  A    between atoms: C_7  and  C_10 
REMARK    7  A    between atoms: C_9  and  C_7 
ROOT
ATOM      1  C   UNL d   1     -48.625  12.452  23.144  0.00  0.00     0.000 A 
ATOM      2  C   UNL d   1     -48.324  11.746  23.448  0.00  0.00     0.002 A 
ATOM      3  C   UNL d   1     -48.107  13.067  22.941  0.00  0.00     0.002 A 
ATOM      4  C   UNL d   1     -47.000  12.263  23.350  0.00  0.00     0.100 A 
ATOM      5  C   UNL d   1     -47.295  12.975  23.043  0.00  0.00     0.025 A 
ATOM      6  C   UNL d   1     -47.517  11.652  23.551  0.00  0.00     0.025 A 
ENDROOT
BRANCH   4   7
ATOM      7  O   UNL d   1     -46.189  12.171  23.452  0.00  0.00    -0.302 OA
BRANCH   7   8
ATOM      8  C   UNL d   1     -45.712  11.908  22.830  0.00  0.00     0.166 C 
BRANCH   8   9
ATOM      9  C   UNL d   1     -44.896  11.852  22.920  0.00  0.00     0.239 C 
ATOM     10  O   UNL d   1     -44.582  11.283  23.427  0.00  0.00    -0.283 OA
BRANCH   9  11
ATOM     11  C   UNL d   1     -44.396  12.361  22.506  0.00  0.00     0.143 C 
BRANCH  11  12
ATOM     12  N   UNL d   1     -43.752  12.053  22.087  0.00  0.00    -0.241 NA
BRANCH  12  13
ATOM     13  C   UNL d   1     -43.277  12.570  21.649  0.00  0.00     0.082 C 
ATOM     14  C   UNL d   1     -42.458  12.493  21.683  0.00  0.00     0.021 C 
ATOM     15  C   UNL d   1     -43.617  13.160  21.183  0.00  0.00     0.021 C 
ENDBRANCH  12  13
ENDBRANCH  11  12
ENDBRANCH   9  11
ENDBRANCH   8   9
ENDBRANCH   7   8
ENDBRANCH   4   7
BRANCH   1  16
ATOM     16  C   UNL d   1     -49.429  12.547  23.041  0.00  0.00     0.000 A 
ATOM     17  C   UNL d   1     -49.937  12.513  23.697  0.00  0.00     0.000 A 
ATOM     18  C   UNL d   1     -50.752  12.610  23.590  0.00  0.00     0.000 A 
ATOM     19  C   UNL d   1     -51.063  12.740  22.838  0.00  0.00     0.000 A 
ATOM     20  C   UNL d   1     -50.563  12.774  22.184  0.00  0.00     0.000 A 
ATOM     21  C   UNL d   1     -49.743  12.678  22.281  0.00  0.00     0.000 A 
ENDBRANCH   1  16
TORSDOF 7
ENDMDL
MODEL 4
REMARK VINA RESULT:      -3.9      4.650      7.190
REMARK  7 active torsions:
REMARK  status: ('A' for Active; 'I' for Inactive)
REMARK    1  A    between atoms: C_3  and  C_1 
REMARK    2  A    between atoms: N_2  and  C_9 
REMARK    3  A    between atoms: C_14  and  N_2 
REMARK    4  A    between atoms: O_6  and  C_8 
REMARK    5  A    between atoms: C_10  and  O_6 
REMARK    6  A    between atoms: C_7  and  C_10 
REMARK    7  A    between atoms: C_9  and  C_7 
ROOT
ATOM      1  C   UNL d   1     -40.941  14.426  20.290  0.00  0.00     0.000 A 
ATOM      2  C   UNL d   1     -41.142  14.593  21.072  0.00  0.00     0.002 A 
ATOM      3  C   UNL d   1     -41.324  13.809  19.889  0.00  0.00     0.002 A 
ATOM      4  C   UNL d   1     -42.100  13.537  21.057  0.00  0.00     0.100 A 
ATOM      5  C   UNL d   1     -41.903  13.364  20.269  0.00  0.00     0.025 A 
ATOM      6  C   UNL d   1     -41.718  14.151  21.454  0.00  0.00     0.025 A 
ENDROOT
BRANCH   4   7
ATOM      7  O   UNL d   1     -42.678  13.093  21.437  0.00  0.00    -0.302 OA
BRANCH   7   8
ATOM      8  C   UNL d   1     -43.480  13.255  21.320  0.00  0.00     0.166 C 
BRANCH   8   9
ATOM      9  C   UNL d   1     -44.057  12.862  21.757  0.00  0.00     0.239 C 
ATOM     10  O   UNL d   1     -43.871  12.144  22.119  0.00  0.00    -0.283 OA
BRANCH   9  11
ATOM     11  C   UNL d   1     -44.812  13.182  21.831  0.00  0.00     0.143 C 
BRANCH  11  12
ATOM     12  N   UNL d   1     -45.300  12.944  22.456  0.00  0.00    -0.241 NA
BRANCH  12  13
ATOM     13  C   UNL d   1     -46.060  13.265  22.514  0.00  0.00     0.082 C 
ATOM     14  C   UNL d   1     -46.698  12.854  22.193  0.00  0.00     0.021 C 
ATOM     15  C   UNL d   1     -46.183  13.990  22.889  0.00  0.00     0.021 C 
ENDBRANCH  12  13
ENDBRANCH  11  12
ENDBRANCH   9  11
ENDBRANCH   8   9
ENDBRANCH   7   8
ENDBRANCH   4   7
BRANCH   1  16
ATOM     16  C   UNL d   1     -40.369  14.864  19.909  0.00  0.00     0.000 A 
ATOM     17  C   UNL d   1     -40.590  15.476  19.393  0.00  0.00     0.000 A 
ATOM     18  C   UNL d   1     -40.006  15.919  19.008  0.00  0.00     0.000 A 
ATOM     19  C   UNL d   1     -39.208  15.759  19.132  0.00  0.00     0.000 A 
ATOM     20  C   UNL d   1     -38.983  15.153  19.644  0.00  0.00     0.000 A 
ATOM     21  C   UNL d   1     -39.561  14.702  20.035  0.00  0.00     0.000 A 
ENDBRANCH   1  16
TORSDOF 7
ENDMDL
MODEL 5
REMARK VINA RESULT:      -3.6      8.591      9.176
REMARK  7 active torsions:
REMARK  status: ('A' for Active; 'I' for Inactive)
REMARK    1  A    between atoms: C_3  and  C_1 
REMARK    2  A    between atoms: N_2  and  C_9 
REMARK    3  A    between atoms: C_14  and  N_2 
REMARK    4  A    between atoms: O_6  and  C_8 
REMARK    5  A    between atoms: C_10  and  O_6 
REMARK    6  A    between atoms: C_7  and  C_10 
REMARK    7  A    between atoms: C_9  and  C_7 
ROOT
ATOM      1  C   UNL d   1     -40.036  14.858  18.112  0.00  0.00     0.000 A 
ATOM      2  C   UNL d   1     -40.348  14.961  18.869  0.00  0.00     0.002 A 
ATOM      3  C   UNL d   1     -39.355  14.396  18.007  0.00  0.00     0.002 A 
ATOM      4  C   UNL d   1     -39.311  14.148  19.412  0.00  0.00     0.100 A 
ATOM      5  C   UNL d   1     -38.991  14.041  18.654  0.00  0.00     0.025 A 
ATOM      6  C   UNL d   1     -39.988  14.608  19.515  0.00  0.00     0.025 A 
ENDROOT
BRANCH   4   7
ATOM      7  O   UNL d   1     -38.948  13.793  20.060  0.00  0.00    -0.302 OA
BRANCH   7   8
ATOM      8  C   UNL d   1     -38.814  14.220  20.754  0.00  0.00     0.166 C 
BRANCH   8   9
ATOM      9  C   UNL d   1     -38.487  13.855  21.416  0.00  0.00     0.239 C 
ATOM     10  O   UNL d   1     -38.452  13.031  21.448  0.00  0.00    -0.283 OA
BRANCH   9  11
ATOM     11  C   UNL d   1     -38.197  14.308  22.040  0.00  0.00     0.143 C 
BRANCH  11  12
ATOM     12  N   UNL d   1     -38.694  14.500  22.674  0.00  0.00    -0.241 NA
BRANCH  12  13
ATOM     13  C   UNL d   1     -38.550  15.197  23.097  0.00  0.00     0.082 C 
ATOM     14  C   UNL d   1     -38.977  15.876  22.913  0.00  0.00     0.021 C 
ATOM     15  C   UNL d   1     -37.986  15.214  23.698  0.00  0.00     0.021 C 
ENDBRANCH  12  13
ENDBRANCH  11  12
ENDBRANCH   9  11
ENDBRANCH   8   9
ENDBRANCH   7   8
ENDBRANCH   4   7
BRANCH   1  16
ATOM     16  C   UNL d   1     -40.393  15.208  17.468  0.00  0.00     0.000 A 
ATOM     17  C   UNL d   1     -39.928  15.555  16.874  0.00  0.00     0.000 A 
ATOM     18  C   UNL d   1     -40.293  15.909  16.221  0.00  0.00     0.000 A 
ATOM     19  C   UNL d   1     -41.115  15.922  16.156  0.00  0.00     0.000 A 
ATOM     20  C   UNL d   1     -41.581  15.580  16.744  0.00  0.00     0.000 A 
ATOM     21  C   UNL d   1     -41.223  15.221  17.403  0.00  0.00     0.000 A 
ENDBRANCH   1  16
TORSDOF 7
ENDMDL
