MODEL 1
REMARK VINA RESULT:      -8.4      0.000      0.000
REMARK  4 active torsions:
REMARK  status: ('A' for Active; 'I' for Inactive)
REMARK    1  A    between atoms: N_10  and  C_3 
REMARK    2  A    between atoms: C_11  and  C_5 
REMARK    3  A    between atoms: C_12  and  N_10 
REMARK    4  A    between atoms: O_21  and  C_14 
ROOT
ATOM      1  N   UNL d   1      52.185  34.143  53.514  0.00  0.00    -0.184 N 
ATOM      2  C   UNL d   1      52.888  33.878  53.888  0.00  0.00     0.168 A 
ATOM      3  C   UNL d   1      51.731  33.611  53.073  0.00  0.00     0.217 A 
ATOM      4  N   UNL d   1      52.407  35.449  54.024  0.00  0.00    -0.162 NA
ATOM      5  C   UNL d   1      53.332  34.397  54.319  0.00  0.00     0.055 A 
ATOM      6  N   UNL d   1      53.111  33.090  53.809  0.00  0.00    -0.227 NA
ATOM      7  C   UNL d   1      51.964  32.837  53.004  0.00  0.00     0.066 A 
ATOM      8  C   UNL d   1      53.098  35.188  54.392  0.00  0.00     0.104 A 
ATOM      9  C   UNL d   1      52.665  32.563  53.375  0.00  0.00     0.087 A 
ATOM     10  C   UNL d   1      51.641  32.200  52.618  0.00  0.00     0.006 A 
ATOM     11  C   UNL d   1      53.554  35.707  54.830  0.00  0.00     0.023 C 
ATOM     12  C   UNL d   1      52.756  31.766  53.209  0.00  0.00     0.019 A 
ATOM     13  C   UNL d   1      52.113  31.542  52.734  0.00  0.00     0.002 A 
ENDROOT
BRANCH   3  14
ATOM     14  N   UNL d   1      51.021  33.875  52.694  0.00  0.00    -0.383 NA
BRANCH  14  15
ATOM     15  C   UNL d   1      50.326  34.175  52.331  0.00  0.00     0.134 A 
ATOM     16  C   UNL d   1      50.223  34.154  51.507  0.00  0.00     0.034 A 
ATOM     17  C   UNL d   1      49.526  34.455  51.149  0.00  0.00     0.027 A 
ATOM     18  C   UNL d   1      48.912  34.788  51.622  0.00  0.00     0.094 A 
ATOM     19  C   UNL d   1      49.009  34.815  52.475  0.00  0.00     0.027 A 
ATOM     20  C   UNL d   1      49.707  34.513  52.829  0.00  0.00     0.034 A 
BRANCH  18  21
ATOM     21  O   UNL d   1      48.214  35.091  51.267  0.00  0.00    -0.328 OA
ATOM     22  C   UNL d   1      47.690  35.583  51.711  0.00  0.00     0.181 C 
ENDBRANCH  18  21
ENDBRANCH  14  15
ENDBRANCH   3  14
BRANCH   5  23
ATOM     23  C   UNL d   1      54.019  34.137  54.685  0.00  0.00     0.004 A 
ATOM     24  C   UNL d   1      53.991  33.833  55.447  0.00  0.00     0.000 A 
ATOM     25  C   UNL d   1      54.674  33.573  55.816  0.00  0.00     0.000 A 
ATOM     26  C   UNL d   1      55.396  33.618  55.419  0.00  0.00     0.000 A 
ATOM     27  C   UNL d   1      55.432  33.917  54.666  0.00  0.00     0.000 A 
ATOM     28  C   UNL d   1      54.736  34.180  54.295  0.00  0.00     0.000 A 
ENDBRANCH   5  23
TORSDOF 4
ENDMDL
