MODEL 1
REMARK VINA RESULT:      42.6      0.000      0.000
REMARK  6 active torsions:
REMARK  status: ('A' for Active; 'I' for Inactive)
REMARK    1  A    between atoms: N_5  and  S_1 
REMARK    2  A    between atoms: C_8  and  S_1 
REMARK    3  A    between atoms: C_2  and  C_14 
REMARK    4  A    between atoms: C_7  and  N_5 
REMARK    5  A    between atoms: C_6  and  C_7 
REMARK       I    between atoms: N_11  and  C_6 
REMARK    6  A    between atoms: C_19  and  N_11 
ROOT
ATOM      1  C   UNL d   1      45.327 -17.224  39.010  0.00  0.00     0.298 C 
ATOM      2  N   UNL d   1      45.606 -17.973  39.160  0.00  0.00    -0.207 NA
ATOM      3  O   UNL d   1      45.191 -16.694  39.633  0.00  0.00    -0.264 OA
ENDROOT
BRANCH   2   4
ATOM      4  C   UNL d   1      45.756 -18.209  39.936  0.00  0.00     0.085 A 
ATOM      5  C   UNL d   1      45.262 -17.947  40.539  0.00  0.00     0.019 A 
ATOM      6  C   UNL d   1      45.401 -18.177  41.328  0.00  0.00     0.004 A 
ATOM      7  C   UNL d   1      46.036 -18.668  41.506  0.00  0.00     0.024 A 
ATOM      8  C   UNL d   1      46.534 -18.931  40.902  0.00  0.00     0.004 A 
ATOM      9  C   UNL d   1      46.400 -18.706  40.119  0.00  0.00     0.019 A 
BRANCH   7  10
ATOM     10  C   UNL d   1      46.164 -18.890  42.296  0.00  0.00     0.111 A 
ATOM     11  N   UNL d   1      46.166 -19.671  42.545  0.00  0.00    -0.239 NA
ATOM     12  C   UNL d   1      46.310 -19.687  43.359  0.00  0.00     0.088 A 
ATOM     13  C   UNL d   1      46.372 -20.305  43.899  0.00  0.00     0.020 A 
ATOM     14  C   UNL d   1      46.396 -18.907  43.612  0.00  0.00     0.049 A 
ATOM     15  C   UNL d   1      46.522 -20.143  44.692  0.00  0.00     0.002 A 
ATOM     16  C   UNL d   1      46.608 -19.363  44.945  0.00  0.00     0.001 A 
ATOM     17  C   UNL d   1      46.546 -18.744  44.405  0.00  0.00     0.008 A 
ATOM     18  S   UNL d   1      46.306 -18.413  42.953  0.00  0.00    -0.066 SA
ENDBRANCH   7  10
ENDBRANCH   2   4
BRANCH   1  19
ATOM     19  C   UNL d   1      45.174 -16.981  38.236  0.00  0.00     0.151 C 
ATOM     20  C   UNL d   1      44.675 -17.418  37.747  0.00  0.00     0.027 C 
BRANCH  19  21
ATOM     21  N   UNL d   1      45.403 -16.350  37.745  0.00  0.00    -0.153 NA
BRANCH  21  22
ATOM     22  S   UNL d   1      44.881 -16.064  37.178  0.00  0.00     0.285 S 
ATOM     23  O   UNL d   1      44.395 -16.699  37.312  0.00  0.00    -0.198 OA
ATOM     24  O   UNL d   1      44.361 -15.783  36.618  0.00  0.00    -0.198 OA
BRANCH  22  25
ATOM     25  C   UNL d   1      45.384 -15.418  37.048  0.00  0.00     0.106 A 
ATOM     26  C   UNL d   1      45.207 -14.678  37.371  0.00  0.00     0.024 A 
ATOM     27  C   UNL d   1      45.724 -14.033  37.232  0.00  0.00     0.059 A 
ATOM     28 CL   UNL d   1      45.544 -13.291  37.557  0.00  0.00    -0.082 Cl
ATOM     29  C   UNL d   1      46.402 -14.136  36.777  0.00  0.00     0.011 A 
ATOM     30  C   UNL d   1      46.576 -14.874  36.457  0.00  0.00     0.002 A 
ATOM     31  C   UNL d   1      46.059 -15.520  36.596  0.00  0.00     0.013 A 
ENDBRANCH  22  25
ENDBRANCH  21  22
ENDBRANCH  19  21
ENDBRANCH   1  19
TORSDOF 6
ENDMDL
