MODEL 1
REMARK VINA RESULT:      74.3      0.000      0.000
REMARK  3 active torsions:
REMARK  status: ('A' for Active; 'I' for Inactive)
REMARK    1  A    between atoms: C_11  and  C_4 
REMARK       I    between atoms: C_6  and  N_8 
REMARK    2  A    between atoms: C_9  and  C_6 
REMARK    3  A    between atoms: N_8  and  C_19 
ROOT
ATOM      1  C   UNL d   1      59.554  49.215  50.865  0.00  0.00     0.021 A 
ATOM      2  C   UNL d   1      60.770  48.509  50.564  0.00  0.00     0.085 A 
ATOM      3  C   UNL d   1      59.960  48.621  50.455  0.00  0.00     0.021 A 
ATOM      4  C   UNL d   1      59.970  49.707  51.396  0.00  0.00     0.002 A 
ATOM      5  C   UNL d   1      60.780  49.599  51.508  0.00  0.00     0.002 A 
ATOM      6  C   UNL d   1      61.186  49.001  51.094  0.00  0.00     0.019 A 
ENDROOT
BRANCH   2   7
ATOM      7  N   UNL d   1      61.165  47.917  50.152  0.00  0.00    -0.208 NA
ATOM      8  C   UNL d   1      61.156  47.132  50.423  0.00  0.00     0.279 C 
ATOM      9  O   UNL d   1      60.740  46.950  51.123  0.00  0.00    -0.265 OA
BRANCH   8  10
ATOM     10  C   UNL d   1      61.550  46.538  50.012  0.00  0.00     0.060 A 
ATOM     11  C   UNL d   1      61.246  45.776  49.994  0.00  0.00     0.031 A 
ATOM     12  C   UNL d   1      61.640  45.195  49.587  0.00  0.00     0.119 A 
ATOM     13  O   UNL d   1      61.475  44.385  49.468  0.00  0.00    -0.300 OA
ATOM     14  C   UNL d   1      62.343  45.364  49.190  0.00  0.00     0.119 A 
ATOM     15  C   UNL d   1      62.079  44.068  49.000  0.00  0.00     0.304 A 
ATOM     16  O   UNL d   1      62.615  44.673  48.829  0.00  0.00    -0.300 OA
ATOM     17  C   UNL d   1      62.652  46.127  49.205  0.00  0.00     0.026 A 
ATOM     18  C   UNL d   1      62.253  46.720  49.619  0.00  0.00     0.007 A 
ENDBRANCH   8  10
ENDBRANCH   2   7
BRANCH   1  19
ATOM     19  C   UNL d   1      58.744  49.326  50.756  0.00  0.00     0.118 A 
ATOM     20  N   UNL d   1      58.173  49.371  51.348  0.00  0.00    -0.059 NA
ATOM     21  C   UNL d   1      57.437  49.486  50.983  0.00  0.00     0.735 A 
ATOM     22  N   UNL d   1      57.559  49.511  50.167  0.00  0.00    -0.136 N 
ATOM     23  N   UNL d   1      56.679  49.569  51.301  0.00  0.00    -0.059 NA
ATOM     24  C   UNL d   1      58.366  49.413  50.024  0.00  0.00     0.118 A 
ATOM     25  C   UNL d   1      56.907  49.621  49.664  0.00  0.00     0.100 A 
ATOM     26  C   UNL d   1      56.153  49.704  49.969  0.00  0.00     0.041 A 
ATOM     27  C   UNL d   1      56.038  49.678  50.794  0.00  0.00     0.119 A 
ENDBRANCH   1  19
TORSDOF 3
ENDMDL
