MODEL 1
REMARK VINA RESULT:      22.7      0.000      0.000
REMARK  6 active torsions:
REMARK  status: ('A' for Active; 'I' for Inactive)
REMARK       I    between atoms: C_2  and  N_1 
REMARK    1  A    between atoms: C_3  and  N_1 
REMARK    2  A    between atoms: C_8  and  C_2 
REMARK    3  A    between atoms: C_4  and  C_9 
REMARK    4  A    between atoms: O_10  and  C_4 
REMARK    5  A    between atoms: O_11  and  C_5 
REMARK    6  A    between atoms: C_9  and  C_8 
ROOT
ATOM      1  N   UNL d   1     -54.978 -99.794 -44.914  0.00  0.00    -0.320 N 
ATOM      2  C   UNL d   1     -55.634 -99.268 -44.951  0.00  0.00     0.258 C 
ATOM      3  O   UNL d   1     -55.731 -98.774 -45.600  0.00  0.00    -0.267 OA
ATOM      4  H   UNL d   1     -54.431 -99.816 -45.526  0.00  0.00     0.169 HD
ENDROOT
BRANCH   1   5
ATOM      5  C   UNL d   1     -54.890-100.296 -44.243  0.00  0.00     0.082 A 
ATOM      6  C   UNL d   1     -54.840-101.124 -44.355  0.00  0.00     0.110 A 
ATOM      7  C   UNL d   1     -54.753-101.624 -43.697  0.00  0.00     0.026 A 
ATOM      8  C   UNL d   1     -54.717-101.307 -42.947  0.00  0.00     0.002 A 
ATOM      9  C   UNL d   1     -54.767-100.491 -42.836  0.00  0.00     0.002 A 
ATOM     10  C   UNL d   1     -54.852 -99.992 -43.477  0.00  0.00     0.019 A 
BRANCH   6  11
ATOM     11  O   UNL d   1     -54.878-101.439 -45.124  0.00  0.00    -0.327 OA
ATOM     12  C   UNL d   1     -54.724-102.240 -45.245  0.00  0.00     0.181 C 
ENDBRANCH   6  11
ENDBRANCH   1   5
BRANCH   2  13
ATOM     13  C   UNL d   1     -56.184 -99.248 -44.334  0.00  0.00     0.067 C 
BRANCH  13  14
ATOM     14  C   UNL d   1     -56.844 -98.756 -44.385  0.00  0.00     0.072 C 
BRANCH  14  15
ATOM     15  C   UNL d   1     -57.525 -98.934 -43.962  0.00  0.00     0.178 C 
ATOM     16  O   UNL d   1     -57.558 -98.786 -43.151  0.00  0.00    -0.646 OA
BRANCH  15  17
ATOM     17  O   UNL d   1     -58.177 -99.262 -44.343  0.00  0.00    -0.773 OA
ATOM     18  H   UNL d   1     -58.350-100.062 -44.241  0.00  0.00     0.167 HD
ENDBRANCH  15  17
ENDBRANCH  14  15
ENDBRANCH  13  14
ENDBRANCH   2  13
TORSDOF 6
ENDMDL
