MODEL 1
REMARK VINA RESULT:      -4.5      0.000      0.000
REMARK  3 active torsions:
REMARK  status: ('A' for Active; 'I' for Inactive)
REMARK    1  A    between atoms: S_4  and  C_1 
REMARK    2  A    between atoms: N_3  and  C_2 
REMARK    3  A    between atoms: C_5  and  S_4 
ROOT
ATOM      1  C   UNL d   1      56.195  -0.077  32.663  0.00  0.00     0.139 A 
ATOM      2  C   UNL d   1      56.702  -0.316  32.057  0.00  0.00     0.188 A 
ATOM      3  N   UNL d   1      55.760  -0.677  33.062  0.00  0.00    -0.216 NA
ATOM      4  C   UNL d   1      56.802  -1.066  31.831  0.00  0.00     0.209 A 
ATOM      5  N   UNL d   1      56.375  -1.699  32.214  0.00  0.00    -0.202 NA
ATOM      6  C   UNL d   1      55.847  -1.472  32.843  0.00  0.00     0.201 A 
ATOM      7  N   UNL d   1      57.303  -1.368  31.222  0.00  0.00    -0.125 N 
ENDROOT
BRANCH   1   8
ATOM      8  S   UNL d   1      56.097   0.656  32.885  0.00  0.00    -0.047 SA
BRANCH   8   9
ATOM      9  C   UNL d   1      55.673   0.665  33.730  0.00  0.00     0.115 A 
ATOM     10  N   UNL d   1      54.829   0.673  33.706  0.00  0.00    -0.217 NA
ATOM     11  C   UNL d   1      54.407   0.681  34.430  0.00  0.00     0.200 A 
ATOM     12  N   UNL d   1      54.803   0.682  35.145  0.00  0.00    -0.224 NA
ATOM     13  C   UNL d   1      55.651   0.675  35.162  0.00  0.00     0.085 A 
ATOM     14  C   UNL d   1      56.074   0.666  34.462  0.00  0.00     0.045 A 
ATOM     15  C   UNL d   1      55.971   0.676  35.781  0.00  0.00     0.021 C 
ENDBRANCH   8   9
ENDBRANCH   1   8
BRANCH   2  16
ATOM     16  N   UNL d   1      57.137   0.288  31.661  0.00  0.00    -0.108 N 
ATOM     17  O   UNL d   1      57.875   0.569  31.888  0.00  0.00    -0.532 OA
ATOM     18  O   UNL d   1      56.847   0.670  30.975  0.00  0.00    -0.532 OA
ENDBRANCH   2  16
TORSDOF 3
ENDMDL
MODEL 2
REMARK VINA RESULT:      -3.9      1.468      2.338
REMARK  3 active torsions:
REMARK  status: ('A' for Active; 'I' for Inactive)
REMARK    1  A    between atoms: S_4  and  C_1 
REMARK    2  A    between atoms: N_3  and  C_2 
REMARK    3  A    between atoms: C_5  and  S_4 
ROOT
ATOM      1  C   UNL d   1      57.417   0.271  31.579  0.00  0.00     0.139 A 
ATOM      2  C   UNL d   1      58.021   0.312  31.017  0.00  0.00     0.188 A 
ATOM      3  N   UNL d   1      57.619   0.444  32.377  0.00  0.00    -0.216 NA
ATOM      4  C   UNL d   1      58.769   0.501  31.184  0.00  0.00     0.209 A 
ATOM      5  N   UNL d   1      59.009   0.682  31.984  0.00  0.00    -0.202 NA
ATOM      6  C   UNL d   1      58.398   0.645  32.577  0.00  0.00     0.201 A 
ATOM      7  N   UNL d   1      59.426   0.559  30.655  0.00  0.00    -0.125 N 
ENDROOT
BRANCH   1   8
ATOM      8  S   UNL d   1      56.684   0.087  31.417  0.00  0.00    -0.047 SA
BRANCH   8   9
ATOM      9  C   UNL d   1      56.248  -0.160  32.218  0.00  0.00     0.115 A 
ATOM     10  N   UNL d   1      56.303  -0.979  32.417  0.00  0.00    -0.217 NA
ATOM     11  C   UNL d   1      55.932  -1.247  33.119  0.00  0.00     0.200 A 
ATOM     12  N   UNL d   1      55.525  -0.728  33.602  0.00  0.00    -0.224 NA
ATOM     13  C   UNL d   1      55.473   0.093  33.396  0.00  0.00     0.085 A 
ATOM     14  C   UNL d   1      55.832   0.368  32.713  0.00  0.00     0.045 A 
ATOM     15  C   UNL d   1      55.122   0.522  33.820  0.00  0.00     0.021 C 
ENDBRANCH   8   9
ENDBRANCH   1   8
BRANCH   2  16
ATOM     16  N   UNL d   1      57.815   0.139  30.218  0.00  0.00    -0.108 N 
ATOM     17  O   UNL d   1      57.520   0.682  29.676  0.00  0.00    -0.532 OA
ATOM     18  O   UNL d   1      57.894  -0.628  29.893  0.00  0.00    -0.532 OA
ENDBRANCH   2  16
TORSDOF 3
ENDMDL
MODEL 3
REMARK VINA RESULT:      -3.7      1.734      3.400
REMARK  3 active torsions:
REMARK  status: ('A' for Active; 'I' for Inactive)
REMARK    1  A    between atoms: S_4  and  C_1 
REMARK    2  A    between atoms: N_3  and  C_2 
REMARK    3  A    between atoms: C_5  and  S_4 
ROOT
ATOM      1  C   UNL d   1      56.576  -0.057  32.272  0.00  0.00     0.139 A 
ATOM      2  C   UNL d   1      56.096  -0.284  32.905  0.00  0.00     0.188 A 
ATOM      3  N   UNL d   1      56.864  -0.666  31.768  0.00  0.00    -0.216 NA
ATOM      4  C   UNL d   1      55.894  -1.030  33.063  0.00  0.00     0.209 A 
ATOM      5  N   UNL d   1      56.170  -1.673  32.572  0.00  0.00    -0.202 NA
ATOM      6  C   UNL d   1      56.666  -1.458  31.914  0.00  0.00     0.201 A 
ATOM      7  N   UNL d   1      55.410  -1.321  33.692  0.00  0.00    -0.125 N 
ENDROOT
BRANCH   1   8
ATOM      8  S   UNL d   1      56.774   0.673  32.116  0.00  0.00    -0.047 SA
BRANCH   8   9
ATOM      9  C   UNL d   1      57.397   0.675  31.405  0.00  0.00     0.115 A 
ATOM     10  N   UNL d   1      57.058   0.680  30.633  0.00  0.00    -0.217 NA
ATOM     11  C   UNL d   1      57.570   0.682  29.970  0.00  0.00     0.200 A 
ATOM     12  N   UNL d   1      58.381   0.680  30.068  0.00  0.00    -0.224 NA
ATOM     13  C   UNL d   1      58.716   0.675  30.847  0.00  0.00     0.085 A 
ATOM     14  C   UNL d   1      58.227   0.673  31.503  0.00  0.00     0.045 A 
ATOM     15  C   UNL d   1      59.410   0.673  30.911  0.00  0.00     0.021 C 
ENDBRANCH   8   9
ENDBRANCH   1   8
BRANCH   2  16
ATOM     16  N   UNL d   1      55.809   0.329  33.407  0.00  0.00    -0.108 N 
ATOM     17  O   UNL d   1      56.217   0.652  34.043  0.00  0.00    -0.532 OA
ATOM     18  O   UNL d   1      55.055   0.677  33.302  0.00  0.00    -0.532 OA
ENDBRANCH   2  16
TORSDOF 3
ENDMDL
MODEL 4
REMARK VINA RESULT:      -3.3      1.219      1.653
REMARK  3 active torsions:
REMARK  status: ('A' for Active; 'I' for Inactive)
REMARK    1  A    between atoms: S_4  and  C_1 
REMARK    2  A    between atoms: N_3  and  C_2 
REMARK    3  A    between atoms: C_5  and  S_4 
ROOT
ATOM      1  C   UNL d   1      57.019  -0.063  31.526  0.00  0.00     0.139 A 
ATOM      2  C   UNL d   1      57.524  -0.292  30.914  0.00  0.00     0.188 A 
ATOM      3  N   UNL d   1      56.601  -0.673  31.930  0.00  0.00    -0.216 NA
ATOM      4  C   UNL d   1      57.637  -1.039  30.687  0.00  0.00     0.209 A 
ATOM      5  N   UNL d   1      57.228  -1.682  31.076  0.00  0.00    -0.202 NA
ATOM      6  C   UNL d   1      56.702  -1.466  31.710  0.00  0.00     0.201 A 
ATOM      7  N   UNL d   1      58.137  -1.331  30.073  0.00  0.00    -0.125 N 
ENDROOT
BRANCH   1   8
ATOM      8  S   UNL d   1      56.907   0.668  31.749  0.00  0.00    -0.047 SA
BRANCH   8   9
ATOM      9  C   UNL d   1      56.625   0.673  32.651  0.00  0.00     0.115 A 
ATOM     10  N   UNL d   1      57.249   0.675  33.220  0.00  0.00    -0.217 NA
ATOM     11  C   UNL d   1      57.049   0.680  34.034  0.00  0.00     0.200 A 
ATOM     12  N   UNL d   1      56.268   0.681  34.273  0.00  0.00    -0.224 NA
ATOM     13  C   UNL d   1      55.646   0.678  33.696  0.00  0.00     0.085 A 
ATOM     14  C   UNL d   1      55.828   0.674  32.898  0.00  0.00     0.045 A 
ATOM     15  C   UNL d   1      54.985   0.680  33.919  0.00  0.00     0.021 C 
ENDBRANCH   8   9
ENDBRANCH   1   8
BRANCH   2  16
ATOM     16  N   UNL d   1      57.941   0.321  30.512  0.00  0.00    -0.108 N 
ATOM     17  O   UNL d   1      58.630   0.679  30.779  0.00  0.00    -0.532 OA
ATOM     18  O   UNL d   1      57.681   0.631  29.779  0.00  0.00    -0.532 OA
ENDBRANCH   2  16
TORSDOF 3
ENDMDL
MODEL 5
REMARK VINA RESULT:      -3.1      1.915      3.914
REMARK  3 active torsions:
REMARK  status: ('A' for Active; 'I' for Inactive)
REMARK    1  A    between atoms: S_4  and  C_1 
REMARK    2  A    between atoms: N_3  and  C_2 
REMARK    3  A    between atoms: C_5  and  S_4 
ROOT
ATOM      1  C   UNL d   1      57.007  -0.161  32.295  0.00  0.00     0.139 A 
ATOM      2  C   UNL d   1      56.615  -0.122  33.021  0.00  0.00     0.188 A 
ATOM      3  N   UNL d   1      57.744   0.240  32.232  0.00  0.00    -0.216 NA
ATOM      4  C   UNL d   1      56.888   0.264  33.653  0.00  0.00     0.209 A 
ATOM      5  N   UNL d   1      57.633   0.682  33.623  0.00  0.00    -0.202 NA
ATOM      6  C   UNL d   1      58.052   0.653  32.882  0.00  0.00     0.201 A 
ATOM      7  N   UNL d   1      56.535   0.339  34.416  0.00  0.00    -0.125 N 
ENDROOT
BRANCH   1   8
ATOM      8  S   UNL d   1      56.740  -0.539  31.677  0.00  0.00    -0.047 SA
BRANCH   8   9
ATOM      9  C   UNL d   1      57.289  -0.335  30.934  0.00  0.00     0.115 A 
ATOM     10  N   UNL d   1      57.215   0.453  30.642  0.00  0.00    -0.217 NA
ATOM     11  C   UNL d   1      57.681   0.682  29.984  0.00  0.00     0.200 A 
ATOM     12  N   UNL d   1      58.197   0.154  29.633  0.00  0.00    -0.224 NA
ATOM     13  C   UNL d   1      58.267  -0.636  29.932  0.00  0.00     0.085 A 
ATOM     14  C   UNL d   1      57.817  -0.872  30.574  0.00  0.00     0.045 A 
ATOM     15  C   UNL d   1      58.713  -1.072  29.620  0.00  0.00     0.021 C 
ENDBRANCH   8   9
ENDBRANCH   1   8
BRANCH   2  16
ATOM     16  N   UNL d   1      55.877  -0.525  33.081  0.00  0.00    -0.108 N 
ATOM     17  O   UNL d   1      55.140  -0.163  33.106  0.00  0.00    -0.532 OA
ATOM     18  O   UNL d   1      55.825  -1.359  33.121  0.00  0.00    -0.532 OA
ENDBRANCH   2  16
TORSDOF 3
ENDMDL
MODEL 6
REMARK VINA RESULT:      -2.3      2.862      4.992
REMARK  3 active torsions:
REMARK  status: ('A' for Active; 'I' for Inactive)
REMARK    1  A    between atoms: S_4  and  C_1 
REMARK    2  A    between atoms: N_3  and  C_2 
REMARK    3  A    between atoms: C_5  and  S_4 
ROOT
ATOM      1  C   UNL d   1      58.288   0.327  30.631  0.00  0.00     0.139 A 
ATOM      2  C   UNL d   1      57.873   0.342  31.344  0.00  0.00     0.188 A 
ATOM      3  N   UNL d   1      59.112   0.496  30.659  0.00  0.00    -0.216 NA
ATOM      4  C   UNL d   1      58.200   0.504  32.045  0.00  0.00     0.209 A 
ATOM      5  N   UNL d   1      59.033   0.681  32.109  0.00  0.00    -0.202 NA
ATOM      6  C   UNL d   1      59.478   0.670  31.382  0.00  0.00     0.201 A 
ATOM      7  N   UNL d   1      57.829   0.534  32.803  0.00  0.00    -0.125 N 
ENDROOT
BRANCH   1   8
ATOM      8  S   UNL d   1      57.969   0.168  29.945  0.00  0.00    -0.047 SA
BRANCH   8   9
ATOM      9  C   UNL d   1      58.566  -0.369  29.448  0.00  0.00     0.115 A 
ATOM     10  N   UNL d   1      59.104   0.056  28.957  0.00  0.00    -0.217 NA
ATOM     11  C   UNL d   1      59.655  -0.376  28.495  0.00  0.00     0.200 A 
ATOM     12  N   UNL d   1      59.671  -1.193  28.520  0.00  0.00    -0.224 NA
ATOM     13  C   UNL d   1      59.127  -1.615  29.016  0.00  0.00     0.085 A 
ATOM     14  C   UNL d   1      58.585  -1.204  29.471  0.00  0.00     0.045 A 
ATOM     15  C   UNL d   1      59.156  -2.311  29.024  0.00  0.00     0.021 C 
ENDBRANCH   8   9
ENDBRANCH   1   8
BRANCH   2  16
ATOM     16  N   UNL d   1      57.048   0.171  31.312  0.00  0.00    -0.108 N 
ATOM     17  O   UNL d   1      56.469   0.682  31.032  0.00  0.00    -0.532 OA
ATOM     18  O   UNL d   1      56.732  -0.559  31.572  0.00  0.00    -0.532 OA
ENDBRANCH   2  16
TORSDOF 3
ENDMDL
MODEL 7
REMARK VINA RESULT:      -1.6      9.043      9.938
REMARK  3 active torsions:
REMARK  status: ('A' for Active; 'I' for Inactive)
REMARK    1  A    between atoms: S_4  and  C_1 
REMARK    2  A    between atoms: N_3  and  C_2 
REMARK    3  A    between atoms: C_5  and  S_4 
ROOT
ATOM      1  C   UNL d   1      59.889  -9.465  34.052  0.00  0.00     0.139 A 
ATOM      2  C   UNL d   1      59.494  -9.503  33.328  0.00  0.00     0.188 A 
ATOM      3  N   UNL d   1      60.731  -9.483  34.034  0.00  0.00    -0.216 NA
ATOM      4  C   UNL d   1      59.855  -9.554  32.628  0.00  0.00     0.209 A 
ATOM      5  N   UNL d   1      60.708  -9.575  32.574  0.00  0.00    -0.202 NA
ATOM      6  C   UNL d   1      61.133  -9.537  33.311  0.00  0.00     0.201 A 
ATOM      7  N   UNL d   1      59.506  -9.596  31.859  0.00  0.00    -0.125 N 
ENDROOT
BRANCH   1   8
ATOM      8  S   UNL d   1      59.538  -9.414  34.738  0.00  0.00    -0.047 SA
BRANCH   8   9
ATOM      9  C   UNL d   1      59.952  -8.732  35.244  0.00  0.00     0.115 A 
ATOM     10  N   UNL d   1      60.697  -8.940  35.581  0.00  0.00    -0.217 NA
ATOM     11  C   UNL d   1      61.104  -8.369  36.039  0.00  0.00     0.200 A 
ATOM     12  N   UNL d   1      60.788  -7.625  36.157  0.00  0.00    -0.224 NA
ATOM     13  C   UNL d   1      60.038  -7.421  35.816  0.00  0.00     0.085 A 
ATOM     14  C   UNL d   1      59.631  -7.971  35.367  0.00  0.00     0.045 A 
ATOM     15  C   UNL d   1      59.784  -6.782  35.927  0.00  0.00     0.021 C 
ENDBRANCH   8   9
ENDBRANCH   1   8
BRANCH   2  16
ATOM     16  N   UNL d   1      58.652  -9.484  33.349  0.00  0.00    -0.108 N 
ATOM     17  O   UNL d   1      58.185  -9.818  33.937  0.00  0.00    -0.532 OA
ATOM     18  O   UNL d   1      58.198  -9.110  32.753  0.00  0.00    -0.532 OA
ENDBRANCH   2  16
TORSDOF 3
ENDMDL
