MODEL 1
REMARK VINA RESULT:      18.7      0.000      0.000
REMARK  4 active torsions:
REMARK  status: ('A' for Active; 'I' for Inactive)
REMARK    1  A    between atoms: N_3  and  C_1 
REMARK       I    between atoms: C_5  and  N_3 
REMARK    2  A    between atoms: C_7  and  C_5 
REMARK    3  A    between atoms: C_9  and  C_12 
REMARK    4  A    between atoms: O_18  and  C_9 
ROOT
ATOM      1  C   UNL d   1      46.288 -18.190  42.808  0.00  0.00     0.197 A 
ATOM      2  N   UNL d   1      46.447 -18.248  43.626  0.00  0.00    -0.221 NA
ATOM      3  S   UNL d   1      45.958 -17.449  42.669  0.00  0.00    -0.047 SA
ATOM      4  C   UNL d   1      45.907 -17.039  43.386  0.00  0.00     0.050 A 
ATOM      5  C   UNL d   1      46.212 -17.538  43.983  0.00  0.00     0.090 A 
ATOM      6  C   UNL d   1      45.651 -16.035  44.356  0.00  0.00     0.064 A 
ATOM      7  C   UNL d   1      45.628 -16.288  43.579  0.00  0.00     0.013 A 
ATOM      8  C   UNL d   1      46.231 -17.274  44.760  0.00  0.00     0.020 A 
ATOM      9  C   UNL d   1      45.956 -16.533  44.952  0.00  0.00     0.007 A 
ENDROOT
BRANCH   1  10
ATOM     10  N   UNL d   1      46.437 -18.776  42.244  0.00  0.00    -0.183 NA
ATOM     11  C   UNL d   1      46.487 -19.567  42.472  0.00  0.00     0.281 C 
ATOM     12  O   UNL d   1      46.635 -20.149  41.910  0.00  0.00    -0.265 OA
BRANCH  11  13
ATOM     13  C   UNL d   1      46.387 -19.773  43.264  0.00  0.00     0.058 A 
ATOM     14  C   UNL d   1      45.963 -20.163  43.855  0.00  0.00     0.005 A 
ATOM     15  C   UNL d   1      46.642 -19.740  44.046  0.00  0.00     0.005 A 
ENDBRANCH  11  13
ENDBRANCH   1  10
BRANCH   6  16
ATOM     16  C   UNL d   1      45.375 -15.284  44.563  0.00  0.00     0.296 C 
ATOM     17  O   UNL d   1      44.581 -15.161  44.717  0.00  0.00    -0.259 OA
BRANCH  16  18
ATOM     18  O   UNL d   1      45.915 -14.655  44.612  0.00  0.00    -0.296 OA
ATOM     19  C   UNL d   1      45.644 -13.901  44.790  0.00  0.00     0.185 C 
ENDBRANCH  16  18
ENDBRANCH   6  16
TORSDOF 4
ENDMDL
