MODEL 1
REMARK VINA RESULT:      -2.4      0.000      0.000
REMARK  5 active torsions:
REMARK  status: ('A' for Active; 'I' for Inactive)
REMARK       I    between atoms: C_5  and  N_1 
REMARK    1  A    between atoms: S_13  and  C_2 
REMARK    2  A    between atoms: S_3  and  C_9 
REMARK    3  A    between atoms: N_7  and  S_3 
REMARK    4  A    between atoms: C_12  and  C_5 
REMARK    5  A    between atoms: C_23  and  S_13 
ROOT
ATOM      1  C   UNL d   1      56.478   0.051  32.484  0.00  0.00     0.104 A 
ATOM      2  C   UNL d   1      57.368  -0.164  31.112  0.00  0.00     0.057 A 
ATOM      3  C   UNL d   1      56.599   0.681  31.965  0.00  0.00     0.013 A 
ATOM      4  C   UNL d   1      56.806  -0.693  32.314  0.00  0.00     0.013 A 
ATOM      5  C   UNL d   1      57.253  -0.803  31.627  0.00  0.00     0.005 A 
ATOM      6  C   UNL d   1      57.043   0.571  31.281  0.00  0.00     0.005 A 
ENDROOT
BRANCH   2   7
ATOM      7  C   UNL d   1      57.810  -0.275  30.432  0.00  0.00     0.266 C 
ATOM      8  N   UNL d   1      58.605  -0.040  30.399  0.00  0.00    -0.253 N 
ATOM      9  C   UNL d   1      59.024   0.315  31.014  0.00  0.00     0.182 A 
ATOM     10  C   UNL d   1      59.109  -0.120  29.749  0.00  0.00     0.086 A 
ATOM     11  N   UNL d   1      59.794   0.456  30.744  0.00  0.00    -0.221 NA
ATOM     12  C   UNL d   1      59.847   0.190  29.967  0.00  0.00     0.100 A 
ATOM     13  C   UNL d   1      60.464   0.184  29.427  0.00  0.00     0.021 A 
ATOM     14  C   UNL d   1      60.354  -0.125  28.672  0.00  0.00     0.002 A 
ATOM     15  C   UNL d   1      59.615  -0.433  28.458  0.00  0.00     0.002 A 
ATOM     16  C   UNL d   1      58.997  -0.427  29.001  0.00  0.00     0.019 A 
ATOM     17  O   UNL d   1      57.461  -0.626  29.768  0.00  0.00    -0.267 OA
BRANCH   9  18
ATOM     18  S   UNL d   1      58.724   0.493  31.756  0.00  0.00    -0.049 SA
BRANCH  18  19
ATOM     19  C   UNL d   1      59.332   0.681  32.537  0.00  0.00     0.038 C 
ATOM     20  C   UNL d   1      60.275   0.632  32.529  0.00  0.00     0.008 C 
ENDBRANCH  18  19
ENDBRANCH   9  18
ENDBRANCH   2   7
BRANCH   1  21
ATOM     21  S   UNL d   1      56.031   0.165  33.170  0.00  0.00     0.271 S 
ATOM     22  O   UNL d   1      56.634   0.634  33.495  0.00  0.00    -0.200 OA
ATOM     23  O   UNL d   1      55.424  -0.301  32.856  0.00  0.00    -0.200 OA
BRANCH  21  24
ATOM     24  N   UNL d   1      55.581   0.277  33.857  0.00  0.00    -0.229 N 
ATOM     25  C   UNL d   1      54.785   0.510  33.802  0.00  0.00     0.092 A 
ATOM     26  C   UNL d   1      54.341   0.620  34.476  0.00  0.00     0.020 A 
ATOM     27  C   UNL d   1      54.680   0.501  35.212  0.00  0.00     0.003 A 
ATOM     28  C   UNL d   1      55.472   0.268  35.282  0.00  0.00     0.020 A 
ATOM     29  C   UNL d   1      55.916   0.158  34.594  0.00  0.00     0.092 A 
ENDBRANCH  21  24
ENDBRANCH   1  21
TORSDOF 5
ENDMDL
