MODEL 1
REMARK VINA RESULT:      33.2      0.000      0.000
REMARK  6 active torsions:
REMARK  status: ('A' for Active; 'I' for Inactive)
REMARK    1  A    between atoms: C_2  and  C_4 
REMARK    2  A    between atoms: C_5  and  C_3 
REMARK    3  A    between atoms: C_16  and  C_15 
REMARK    4  A    between atoms: C_17  and  C_16 
REMARK    5  A    between atoms: C_19  and  C_17 
REMARK    6  A    between atoms: C_18  and  C_19 
ROOT
ATOM      1  N   UNL d   1      14.032  13.848  -2.860  0.00  0.00    -0.244 NA
ATOM      2  C   UNL d   1      14.373  13.729  -2.101  0.00  0.00     0.081 A 
ATOM      3  C   UNL d   1      14.405  12.947  -1.780  0.00  0.00     0.019 A 
ATOM      4  C   UNL d   1      13.714  13.190  -3.315  0.00  0.00     0.099 A 
ATOM      5  C   UNL d   1      14.107  12.318  -2.204  0.00  0.00     0.003 A 
ATOM      6  C   UNL d   1      13.765  12.438  -2.963  0.00  0.00     0.019 A 
ENDROOT
BRANCH   2   7
ATOM      7  C   UNL d   1      14.656  14.350  -1.706  0.00  0.00     0.018 A 
ATOM      8  C   UNL d   1      14.695  15.076  -2.074  0.00  0.00     0.002 A 
ATOM      9  C   UNL d   1      15.002  15.734  -1.637  0.00  0.00     0.006 A 
ATOM     10  C   UNL d   1      15.251  15.638  -0.864  0.00  0.00     0.064 A 
ATOM     11  C   UNL d   1      15.202  14.871  -0.497  0.00  0.00     0.006 A 
ATOM     12  C   UNL d   1      14.905  14.250  -0.933  0.00  0.00     0.002 A 
BRANCH  10  13
ATOM     13  C   UNL d   1      15.557  16.295  -0.427  0.00  0.00     0.211 C 
ATOM     14  O   UNL d   1      15.073  16.862  -0.047  0.00  0.00    -0.644 OA
ATOM     15  O   UNL d   1      16.399  16.401  -0.357  0.00  0.00    -0.644 OA
ENDBRANCH  10  13
ENDBRANCH   2   7
BRANCH   6  16
ATOM     16  C   UNL d   1      13.446  11.780  -3.421  0.00  0.00     0.002 C 
BRANCH  16  17
ATOM     17  C   UNL d   1      12.771  11.913  -3.855  0.00  0.00     0.000 C 
BRANCH  17  18
ATOM     18  C   UNL d   1      12.781  11.780  -4.692  0.00  0.00     0.000 C 
BRANCH  18  19
ATOM     19  C   UNL d   1      13.438  11.871  -5.130  0.00  0.00     0.000 C 
ATOM     20  C   UNL d   1      13.417  11.831  -5.948  0.00  0.00     0.000 C 
ENDBRANCH  18  19
ENDBRANCH  17  18
ENDBRANCH  16  17
ENDBRANCH   6  16
TORSDOF 6
ENDMDL
MODEL 2
REMARK VINA RESULT:      34.6      0.803      1.389
REMARK  6 active torsions:
REMARK  status: ('A' for Active; 'I' for Inactive)
REMARK    1  A    between atoms: C_2  and  C_4 
REMARK    2  A    between atoms: C_5  and  C_3 
REMARK    3  A    between atoms: C_16  and  C_15 
REMARK    4  A    between atoms: C_17  and  C_16 
REMARK    5  A    between atoms: C_19  and  C_17 
REMARK    6  A    between atoms: C_18  and  C_19 
ROOT
ATOM      1  N   UNL d   1      14.797  13.949  -1.867  0.00  0.00    -0.244 NA
ATOM      2  C   UNL d   1      14.825  14.196  -1.063  0.00  0.00     0.081 A 
ATOM      3  C   UNL d   1      14.604  13.651  -0.455  0.00  0.00     0.019 A 
ATOM      4  C   UNL d   1      14.546  13.154  -2.080  0.00  0.00     0.099 A 
ATOM      5  C   UNL d   1      14.365  12.897  -0.649  0.00  0.00     0.003 A 
ATOM      6  C   UNL d   1      14.337  12.650  -1.453  0.00  0.00     0.019 A 
ENDROOT
BRANCH   2   7
ATOM      7  C   UNL d   1      15.059  14.931  -0.896  0.00  0.00     0.018 A 
ATOM      8  C   UNL d   1      14.841  15.543  -1.387  0.00  0.00     0.002 A 
ATOM      9  C   UNL d   1      15.099  16.326  -1.194  0.00  0.00     0.006 A 
ATOM     10  C   UNL d   1      15.557  16.460  -0.529  0.00  0.00     0.064 A 
ATOM     11  C   UNL d   1      15.775  15.806  -0.029  0.00  0.00     0.006 A 
ATOM     12  C   UNL d   1      15.517  15.060  -0.230  0.00  0.00     0.002 A 
BRANCH  10  13
ATOM     13  C   UNL d   1      15.816  17.242  -0.336  0.00  0.00     0.211 C 
ATOM     14  O   UNL d   1      15.296  17.895  -0.263  0.00  0.00    -0.644 OA
ATOM     15  O   UNL d   1      16.643  17.394  -0.204  0.00  0.00    -0.644 OA
ENDBRANCH  10  13
ENDBRANCH   2   7
BRANCH   6  16
ATOM     16  C   UNL d   1      14.086  11.854  -1.670  0.00  0.00     0.002 C 
BRANCH  16  17
ATOM     17  C   UNL d   1      13.430  11.781  -2.146  0.00  0.00     0.000 C 
BRANCH  17  18
ATOM     18  C   UNL d   1      13.429  12.144  -2.912  0.00  0.00     0.000 C 
BRANCH  18  19
ATOM     19  C   UNL d   1      13.133  11.782  -3.555  0.00  0.00     0.000 C 
ATOM     20  C   UNL d   1      13.161  12.131  -4.295  0.00  0.00     0.000 C 
ENDBRANCH  18  19
ENDBRANCH  17  18
ENDBRANCH  16  17
ENDBRANCH   6  16
TORSDOF 6
ENDMDL
