MODEL 1
REMARK VINA RESULT:      -9.5      0.000      0.000
REMARK  4 active torsions:
REMARK  status: ('A' for Active; 'I' for Inactive)
REMARK    1  A    between atoms: N_3  and  C_1 
REMARK    2  A    between atoms: C_2  and  S_10 
REMARK    3  A    between atoms: N_5  and  C_9 
REMARK    4  A    between atoms: S_10  and  C_8 
ROOT
ATOM      1  C   UNL d   1      53.673  31.933  53.872  0.00  0.00     0.134 A 
ATOM      2  C   UNL d   1      53.691  31.111  53.994  0.00  0.00     0.048 A 
ATOM      3  C   UNL d   1      53.152  32.268  53.314  0.00  0.00     0.055 A 
ATOM      4  C   UNL d   1      53.190  30.603  53.560  0.00  0.00     0.128 A 
ATOM      5  C   UNL d   1      52.661  31.778  52.887  0.00  0.00     0.010 A 
ATOM      6  C   UNL d   1      52.674  30.960  53.003  0.00  0.00     0.024 A 
ENDROOT
BRANCH   3   7
ATOM      7  S   UNL d   1      53.124  33.064  53.185  0.00  0.00    -0.041 SA
BRANCH   7   8
ATOM      8  C   UNL d   1      52.294  33.447  52.966  0.00  0.00     0.215 A 
ATOM      9  N   UNL d   1      52.051  33.608  52.224  0.00  0.00    -0.214 NA
ATOM     10  C   UNL d   1      51.288  33.941  52.284  0.00  0.00     0.107 A 
ATOM     11  C   UNL d   1      50.743  34.224  51.717  0.00  0.00     0.021 A 
ATOM     12  C   UNL d   1      51.084  33.974  53.077  0.00  0.00     0.120 A 
ATOM     13  C   UNL d   1      50.023  34.524  51.966  0.00  0.00     0.002 A 
ATOM     14  C   UNL d   1      49.825  34.554  52.752  0.00  0.00     0.002 A 
ATOM     15  C   UNL d   1      50.358  34.278  53.319  0.00  0.00     0.026 A 
ATOM     16  O   UNL d   1      51.737  33.653  53.515  0.00  0.00    -0.283 OA
ENDBRANCH   7   8
ENDBRANCH   3   7
BRANCH   1  17
ATOM     17  N   UNL d   1      54.180  32.404  54.316  0.00  0.00    -0.113 N 
ATOM     18  O   UNL d   1      54.842  32.750  54.025  0.00  0.00    -0.532 OA
ATOM     19  O   UNL d   1      54.052  32.567  55.120  0.00  0.00    -0.532 OA
ENDBRANCH   1  17
BRANCH   4  20
ATOM     20  N   UNL d   1      53.190  29.789  53.663  0.00  0.00    -0.114 N 
ATOM     21  O   UNL d   1      52.643  29.262  53.286  0.00  0.00    -0.532 OA
ATOM     22  O   UNL d   1      53.700  29.375  54.127  0.00  0.00    -0.532 OA
ENDBRANCH   4  20
TORSDOF 4
ENDMDL
MODEL 2
REMARK VINA RESULT:      -9.1      1.734      4.238
REMARK  4 active torsions:
REMARK  status: ('A' for Active; 'I' for Inactive)
REMARK    1  A    between atoms: N_3  and  C_1 
REMARK    2  A    between atoms: C_2  and  S_10 
REMARK    3  A    between atoms: N_5  and  C_9 
REMARK    4  A    between atoms: S_10  and  C_8 
ROOT
ATOM      1  C   UNL d   1      52.026  34.193  53.121  0.00  0.00     0.134 A 
ATOM      2  C   UNL d   1      52.197  34.812  53.649  0.00  0.00     0.048 A 
ATOM      3  C   UNL d   1      52.492  33.502  53.113  0.00  0.00     0.055 A 
ATOM      4  C   UNL d   1      52.837  34.756  54.181  0.00  0.00     0.128 A 
ATOM      5  C   UNL d   1      53.119  33.441  53.630  0.00  0.00     0.010 A 
ATOM      6  C   UNL d   1      53.294  34.052  54.157  0.00  0.00     0.024 A 
ENDROOT
BRANCH   3   7
ATOM      7  S   UNL d   1      52.339  32.893  52.606  0.00  0.00    -0.041 SA
BRANCH   7   8
ATOM      8  C   UNL d   1      52.573  32.024  52.875  0.00  0.00     0.215 A 
ATOM      9  N   UNL d   1      53.314  31.730  52.866  0.00  0.00    -0.214 NA
ATOM     10  C   UNL d   1      53.270  30.946  53.148  0.00  0.00     0.107 A 
ATOM     11  C   UNL d   1      53.844  30.351  53.270  0.00  0.00     0.021 A 
ATOM     12  C   UNL d   1      52.488  30.780  53.324  0.00  0.00     0.120 A 
ATOM     13  C   UNL d   1      53.611  29.622  53.560  0.00  0.00     0.002 A 
ATOM     14  C   UNL d   1      52.836  29.462  53.733  0.00  0.00     0.002 A 
ATOM     15  C   UNL d   1      52.262  30.045  53.616  0.00  0.00     0.026 A 
ATOM     16  O   UNL d   1      52.039  31.480  53.146  0.00  0.00    -0.283 OA
ENDBRANCH   7   8
ENDBRANCH   3   7
BRANCH   1  17
ATOM     17  N   UNL d   1      51.388  34.281  52.610  0.00  0.00    -0.113 N 
ATOM     18  O   UNL d   1      51.458  34.449  51.829  0.00  0.00    -0.532 OA
ATOM     19  O   UNL d   1      50.600  34.204  52.859  0.00  0.00    -0.532 OA
ENDBRANCH   1  17
BRANCH   4  20
ATOM     20  N   UNL d   1      53.025  35.353  54.711  0.00  0.00    -0.114 N 
ATOM     21  O   UNL d   1      53.329  35.219  55.492  0.00  0.00    -0.532 OA
ATOM     22  O   UNL d   1      52.950  36.143  54.574  0.00  0.00    -0.532 OA
ENDBRANCH   4  20
TORSDOF 4
ENDMDL
MODEL 3
REMARK VINA RESULT:      -9.0      1.966      4.023
REMARK  4 active torsions:
REMARK  status: ('A' for Active; 'I' for Inactive)
REMARK    1  A    between atoms: N_3  and  C_1 
REMARK    2  A    between atoms: C_2  and  S_10 
REMARK    3  A    between atoms: N_5  and  C_9 
REMARK    4  A    between atoms: S_10  and  C_8 
ROOT
ATOM      1  C   UNL d   1      54.186  33.911  54.650  0.00  0.00     0.134 A 
ATOM      2  C   UNL d   1      53.729  34.594  54.764  0.00  0.00     0.048 A 
ATOM      3  C   UNL d   1      54.009  33.381  54.031  0.00  0.00     0.055 A 
ATOM      4  C   UNL d   1      53.083  34.766  54.264  0.00  0.00     0.128 A 
ATOM      5  C   UNL d   1      53.380  33.542  53.539  0.00  0.00     0.010 A 
ATOM      6  C   UNL d   1      52.922  34.220  53.647  0.00  0.00     0.024 A 
ENDROOT
BRANCH   3   7
ATOM      7  S   UNL d   1      54.445  32.712  53.908  0.00  0.00    -0.041 SA
BRANCH   7   8
ATOM      8  C   UNL d   1      53.985  31.910  53.742  0.00  0.00     0.215 A 
ATOM      9  N   UNL d   1      53.648  31.715  53.046  0.00  0.00    -0.214 NA
ATOM     10  C   UNL d   1      53.304  30.962  53.143  0.00  0.00     0.107 A 
ATOM     11  C   UNL d   1      52.876  30.459  52.630  0.00  0.00     0.021 A 
ATOM     12  C   UNL d   1      53.444  30.712  53.911  0.00  0.00     0.120 A 
ATOM     13  C   UNL d   1      52.609  29.736  52.906  0.00  0.00     0.002 A 
ATOM     14  C   UNL d   1      52.749  29.494  53.666  0.00  0.00     0.002 A 
ATOM     15  C   UNL d   1      53.172  29.984  54.181  0.00  0.00     0.026 A 
ATOM     16  O   UNL d   1      53.885  31.329  54.296  0.00  0.00    -0.283 OA
ENDBRANCH   7   8
ENDBRANCH   3   7
BRANCH   1  17
ATOM     17  N   UNL d   1      54.815  33.772  55.161  0.00  0.00    -0.113 N 
ATOM     18  O   UNL d   1      54.749  33.379  55.857  0.00  0.00    -0.532 OA
ATOM     19  O   UNL d   1      55.587  34.030  55.003  0.00  0.00    -0.532 OA
ENDBRANCH   1  17
BRANCH   4  20
ATOM     20  N   UNL d   1      52.617  35.435  54.357  0.00  0.00    -0.114 N 
ATOM     21  O   UNL d   1      52.871  36.140  54.755  0.00  0.00    -0.532 OA
ATOM     22  O   UNL d   1      51.863  35.523  54.091  0.00  0.00    -0.532 OA
ENDBRANCH   4  20
TORSDOF 4
ENDMDL
MODEL 4
REMARK VINA RESULT:      -8.6      1.215      2.367
REMARK  4 active torsions:
REMARK  status: ('A' for Active; 'I' for Inactive)
REMARK    1  A    between atoms: N_3  and  C_1 
REMARK    2  A    between atoms: C_2  and  S_10 
REMARK    3  A    between atoms: N_5  and  C_9 
REMARK    4  A    between atoms: S_10  and  C_8 
ROOT
ATOM      1  C   UNL d   1      53.862  32.278  54.099  0.00  0.00     0.134 A 
ATOM      2  C   UNL d   1      54.419  32.588  54.632  0.00  0.00     0.048 A 
ATOM      3  C   UNL d   1      53.385  32.786  53.641  0.00  0.00     0.055 A 
ATOM      4  C   UNL d   1      54.513  33.413  54.721  0.00  0.00     0.128 A 
ATOM      5  C   UNL d   1      53.472  33.592  53.723  0.00  0.00     0.010 A 
ATOM      6  C   UNL d   1      54.023  33.907  54.251  0.00  0.00     0.024 A 
ENDROOT
BRANCH   3   7
ATOM      7  S   UNL d   1      52.840  32.500  53.119  0.00  0.00    -0.041 SA
BRANCH   7   8
ATOM      8  C   UNL d   1      52.093  33.034  52.922  0.00  0.00     0.215 A 
ATOM      9  N   UNL d   1      51.974  33.410  52.230  0.00  0.00    -0.214 NA
ATOM     10  C   UNL d   1      51.249  33.817  52.294  0.00  0.00     0.107 A 
ATOM     11  C   UNL d   1      50.820  34.305  51.767  0.00  0.00     0.021 A 
ATOM     12  C   UNL d   1      50.939  33.675  53.039  0.00  0.00     0.120 A 
ATOM     13  C   UNL d   1      50.107  34.627  52.008  0.00  0.00     0.002 A 
ATOM     14  C   UNL d   1      49.805  34.484  52.747  0.00  0.00     0.002 A 
ATOM     15  C   UNL d   1      50.222  34.003  53.273  0.00  0.00     0.026 A 
ATOM     16  O   UNL d   1      51.488  33.168  53.443  0.00  0.00    -0.283 OA
ENDBRANCH   7   8
ENDBRANCH   3   7
BRANCH   1  17
ATOM     17  N   UNL d   1      53.795  31.461  54.036  0.00  0.00    -0.113 N 
ATOM     18  O   UNL d   1      54.108  31.030  53.437  0.00  0.00    -0.532 OA
ATOM     19  O   UNL d   1      53.391  30.999  54.595  0.00  0.00    -0.532 OA
ENDBRANCH   1  17
BRANCH   4  20
ATOM     20  N   UNL d   1      55.056  33.742  55.241  0.00  0.00    -0.114 N 
ATOM     21  O   UNL d   1      55.769  34.134  55.000  0.00  0.00    -0.532 OA
ATOM     22  O   UNL d   1      54.997  33.742  56.043  0.00  0.00    -0.532 OA
ENDBRANCH   4  20
TORSDOF 4
ENDMDL
MODEL 5
REMARK VINA RESULT:      -8.6      1.433      4.063
REMARK  4 active torsions:
REMARK  status: ('A' for Active; 'I' for Inactive)
REMARK    1  A    between atoms: N_3  and  C_1 
REMARK    2  A    between atoms: C_2  and  S_10 
REMARK    3  A    between atoms: N_5  and  C_9 
REMARK    4  A    between atoms: S_10  and  C_8 
ROOT
ATOM      1  C   UNL d   1      52.195  34.361  53.302  0.00  0.00     0.134 A 
ATOM      2  C   UNL d   1      51.444  34.703  53.205  0.00  0.00     0.048 A 
ATOM      3  C   UNL d   1      52.326  33.562  53.102  0.00  0.00     0.055 A 
ATOM      4  C   UNL d   1      50.806  34.256  52.905  0.00  0.00     0.128 A 
ATOM      5  C   UNL d   1      51.707  33.121  52.808  0.00  0.00     0.010 A 
ATOM      6  C   UNL d   1      50.959  33.454  52.709  0.00  0.00     0.024 A 
ENDROOT
BRANCH   3   7
ATOM      7  S   UNL d   1      53.050  33.216  53.191  0.00  0.00    -0.041 SA
BRANCH   7   8
ATOM      8  C   UNL d   1      53.085  32.282  53.285  0.00  0.00     0.215 A 
ATOM      9  N   UNL d   1      52.934  31.761  52.701  0.00  0.00    -0.214 NA
ATOM     10  C   UNL d   1      53.028  30.998  53.024  0.00  0.00     0.107 A 
ATOM     11  C   UNL d   1      52.951  30.229  52.704  0.00  0.00     0.021 A 
ATOM     12  C   UNL d   1      53.237  31.076  53.812  0.00  0.00     0.120 A 
ATOM     13  C   UNL d   1      53.085  29.579  53.182  0.00  0.00     0.002 A 
ATOM     14  C   UNL d   1      53.292  29.661  53.962  0.00  0.00     0.002 A 
ATOM     15  C   UNL d   1      53.370  30.417  54.287  0.00  0.00     0.026 A 
ATOM     16  O   UNL d   1      53.273  31.909  53.978  0.00  0.00    -0.283 OA
ENDBRANCH   7   8
ENDBRANCH   3   7
BRANCH   1  17
ATOM     17  N   UNL d   1      52.801  34.829  53.600  0.00  0.00    -0.113 N 
ATOM     18  O   UNL d   1      53.344  35.204  53.145  0.00  0.00    -0.532 OA
ATOM     19  O   UNL d   1      52.910  34.960  54.412  0.00  0.00    -0.532 OA
ENDBRANCH   1  17
BRANCH   4  20
ATOM     20  N   UNL d   1      50.056  34.573  52.800  0.00  0.00    -0.114 N 
ATOM     21  O   UNL d   1      49.596  34.484  52.092  0.00  0.00    -0.532 OA
ATOM     22  O   UNL d   1      49.650  35.007  53.342  0.00  0.00    -0.532 OA
ENDBRANCH   4  20
TORSDOF 4
ENDMDL
