MODEL 1
REMARK VINA RESULT:      -3.7      0.000      0.000
REMARK  7 active torsions:
REMARK  status: ('A' for Active; 'I' for Inactive)
REMARK    1  A    between atoms: C_2  and  S_1 
REMARK    2  A    between atoms: N_7  and  S_1 
REMARK    3  A    between atoms: O_11  and  C_6 
REMARK    4  A    between atoms: C_12  and  N_7 
REMARK    5  A    between atoms: O_13  and  C_9 
REMARK    6  A    between atoms: C_15  and  C_12 
REMARK    7  A    between atoms: C_14  and  C_15 
ROOT
ATOM      1  S   UNL d   1      32.471  21.530 -20.851  0.00  0.00     0.287 S 
ATOM      2  O   UNL d   1      31.688  21.449 -20.579  0.00  0.00    -0.198 OA
ATOM      3  O   UNL d   1      33.238  21.599 -21.124  0.00  0.00    -0.198 OA
ENDROOT
BRANCH   1   4
ATOM      4  C   UNL d   1      32.530  22.261 -20.468  0.00  0.00     0.129 A 
ATOM      5  C   UNL d   1      32.764  22.280 -19.688  0.00  0.00     0.039 A 
ATOM      6  C   UNL d   1      32.826  23.004 -19.300  0.00  0.00     0.095 A 
ATOM      7  C   UNL d   1      32.653  23.697 -19.697  0.00  0.00     0.026 A 
ATOM      8  C   UNL d   1      32.414  23.682 -20.492  0.00  0.00     0.027 A 
ATOM      9  C   UNL d   1      32.354  22.967 -20.872  0.00  0.00     0.106 A 
BRANCH   6  10
ATOM     10  O   UNL d   1      33.064  23.034 -18.504  0.00  0.00    -0.328 OA
ATOM     11  C   UNL d   1      32.578  23.368 -17.954  0.00  0.00     0.181 C 
ENDBRANCH   6  10
BRANCH   9  12
ATOM     12  O   UNL d   1      32.117  22.957 -21.659  0.00  0.00    -0.327 OA
ATOM     13  C   UNL d   1      31.805  23.637 -21.993  0.00  0.00     0.181 C 
ENDBRANCH   9  12
ENDBRANCH   1   4
BRANCH   1  14
ATOM     14  N   UNL d   1      32.399  20.798 -21.231  0.00  0.00    -0.157 NA
BRANCH  14  15
ATOM     15  C   UNL d   1      33.033  20.479 -21.677  0.00  0.00     0.112 C 
BRANCH  15  16
ATOM     16  C   UNL d   1      33.127  19.661 -21.760  0.00  0.00     0.021 C 
BRANCH  16  17
ATOM     17  C   UNL d   1      33.103  19.313 -22.505  0.00  0.00     0.002 A 
ATOM     18  C   UNL d   1      33.167  19.777 -23.182  0.00  0.00     0.000 A 
ATOM     19  C   UNL d   1      33.144  19.429 -23.930  0.00  0.00     0.000 A 
ATOM     20  C   UNL d   1      33.055  18.606 -23.999  0.00  0.00     0.000 A 
ATOM     21  C   UNL d   1      32.991  18.143 -23.305  0.00  0.00     0.000 A 
ATOM     22  C   UNL d   1      33.014  18.489 -22.575  0.00  0.00     0.000 A 
ENDBRANCH  16  17
ENDBRANCH  15  16
ENDBRANCH  14  15
ENDBRANCH   1  14
TORSDOF 7
ENDMDL
MODEL 2
REMARK VINA RESULT:      -2.9      1.002      2.209
REMARK  7 active torsions:
REMARK  status: ('A' for Active; 'I' for Inactive)
REMARK    1  A    between atoms: C_2  and  S_1 
REMARK    2  A    between atoms: N_7  and  S_1 
REMARK    3  A    between atoms: O_11  and  C_6 
REMARK    4  A    between atoms: C_12  and  N_7 
REMARK    5  A    between atoms: O_13  and  C_9 
REMARK    6  A    between atoms: C_15  and  C_12 
REMARK    7  A    between atoms: C_14  and  C_15 
ROOT
ATOM      1  S   UNL d   1      32.709  21.059 -21.729  0.00  0.00     0.287 S 
ATOM      2  O   UNL d   1      33.239  21.187 -22.358  0.00  0.00    -0.198 OA
ATOM      3  O   UNL d   1      32.190  20.922 -21.112  0.00  0.00    -0.198 OA
ENDROOT
BRANCH   1   4
ATOM      4  C   UNL d   1      32.614  21.877 -21.640  0.00  0.00     0.129 A 
ATOM      5  C   UNL d   1      32.410  22.324 -22.288  0.00  0.00     0.039 A 
ATOM      6  C   UNL d   1      32.314  23.138 -22.207  0.00  0.00     0.095 A 
ATOM      7  C   UNL d   1      32.424  23.492 -21.479  0.00  0.00     0.026 A 
ATOM      8  C   UNL d   1      32.631  23.040 -20.815  0.00  0.00     0.027 A 
ATOM      9  C   UNL d   1      32.725  22.238 -20.898  0.00  0.00     0.106 A 
BRANCH   6  10
ATOM     10  O   UNL d   1      32.106  23.603 -22.864  0.00  0.00    -0.328 OA
ATOM     11  C   UNL d   1      32.590  23.622 -23.510  0.00  0.00     0.181 C 
ENDBRANCH   6  10
BRANCH   9  12
ATOM     12  O   UNL d   1      32.931  21.794 -20.237  0.00  0.00    -0.327 OA
ATOM     13  C   UNL d   1      33.086  22.176 -19.529  0.00  0.00     0.181 C 
ENDBRANCH   9  12
ENDBRANCH   1   4
BRANCH   1  14
ATOM     14  N   UNL d   1      32.812  20.244 -21.827  0.00  0.00    -0.157 NA
BRANCH  14  15
ATOM     15  C   UNL d   1      32.815  19.898 -22.591  0.00  0.00     0.112 C 
BRANCH  15  16
ATOM     16  C   UNL d   1      32.952  19.088 -22.691  0.00  0.00     0.021 C 
BRANCH  16  17
ATOM     17  C   UNL d   1      32.799  18.727 -23.414  0.00  0.00     0.002 A 
ATOM     18  C   UNL d   1      33.240  18.928 -24.080  0.00  0.00     0.000 A 
ATOM     19  C   UNL d   1      33.088  18.566 -24.805  0.00  0.00     0.000 A 
ATOM     20  C   UNL d   1      32.485  17.997 -24.865  0.00  0.00     0.000 A 
ATOM     21  C   UNL d   1      32.043  17.800 -24.183  0.00  0.00     0.000 A 
ATOM     22  C   UNL d   1      32.196  18.157 -23.473  0.00  0.00     0.000 A 
ENDBRANCH  16  17
ENDBRANCH  15  16
ENDBRANCH  14  15
ENDBRANCH   1  14
TORSDOF 7
ENDMDL
MODEL 3
REMARK VINA RESULT:      -2.8      3.262      4.888
REMARK  7 active torsions:
REMARK  status: ('A' for Active; 'I' for Inactive)
REMARK    1  A    between atoms: C_2  and  S_1 
REMARK    2  A    between atoms: N_7  and  S_1 
REMARK    3  A    between atoms: O_11  and  C_6 
REMARK    4  A    between atoms: C_12  and  N_7 
REMARK    5  A    between atoms: O_13  and  C_9 
REMARK    6  A    between atoms: C_15  and  C_12 
REMARK    7  A    between atoms: C_14  and  C_15 
ROOT
ATOM      1  S   UNL d   1      32.473  18.257 -23.620  0.00  0.00     0.287 S 
ATOM      2  O   UNL d   1      31.691  18.508 -23.485  0.00  0.00    -0.198 OA
ATOM      3  O   UNL d   1      33.237  17.999 -23.753  0.00  0.00    -0.198 OA
ENDROOT
BRANCH   1   4
ATOM      4  C   UNL d   1      32.727  19.045 -23.626  0.00  0.00     0.129 A 
ATOM      5  C   UNL d   1      32.832  19.421 -24.340  0.00  0.00     0.039 A 
ATOM      6  C   UNL d   1      33.085  20.205 -24.353  0.00  0.00     0.095 A 
ATOM      7  C   UNL d   1      33.229  20.599 -23.653  0.00  0.00     0.026 A 
ATOM      8  C   UNL d   1      33.124  20.220 -22.923  0.00  0.00     0.027 A 
ATOM      9  C   UNL d   1      32.874  19.447 -22.912  0.00  0.00     0.106 A 
BRANCH   6  10
ATOM     10  O   UNL d   1      33.195  20.597 -25.078  0.00  0.00    -0.328 OA
ATOM     11  C   UNL d   1      33.230  21.403 -25.094  0.00  0.00     0.181 C 
ENDBRANCH   6  10
BRANCH   9  12
ATOM     12  O   UNL d   1      32.771  19.075 -22.187  0.00  0.00    -0.327 OA
ATOM     13  C   UNL d   1      33.017  19.454 -21.502  0.00  0.00     0.181 C 
ENDBRANCH   9  12
ENDBRANCH   1   4
BRANCH   1  14
ATOM     14  N   UNL d   1      32.207  17.473 -23.613  0.00  0.00    -0.157 NA
BRANCH  14  15
ATOM     15  C   UNL d   1      31.415  17.284 -23.810  0.00  0.00     0.112 C 
BRANCH  15  16
ATOM     16  C   UNL d   1      31.159  16.497 -23.843  0.00  0.00     0.021 C 
BRANCH  16  17
ATOM     17  C   UNL d   1      30.366  16.312 -23.726  0.00  0.00     0.002 A 
ATOM     18  C   UNL d   1      30.137  15.863 -23.075  0.00  0.00     0.000 A 
ATOM     19  C   UNL d   1      29.342  15.677 -22.957  0.00  0.00     0.000 A 
ATOM     20  C   UNL d   1      28.770  15.943 -23.498  0.00  0.00     0.000 A 
ATOM     21  C   UNL d   1      29.014  16.398 -24.156  0.00  0.00     0.000 A 
ATOM     22  C   UNL d   1      29.795  16.578 -24.267  0.00  0.00     0.000 A 
ENDBRANCH  16  17
ENDBRANCH  15  16
ENDBRANCH  14  15
ENDBRANCH   1  14
TORSDOF 7
ENDMDL
MODEL 4
REMARK VINA RESULT:      -2.4      2.229      3.265
REMARK  7 active torsions:
REMARK  status: ('A' for Active; 'I' for Inactive)
REMARK    1  A    between atoms: C_2  and  S_1 
REMARK    2  A    between atoms: N_7  and  S_1 
REMARK    3  A    between atoms: O_11  and  C_6 
REMARK    4  A    between atoms: C_12  and  N_7 
REMARK    5  A    between atoms: O_13  and  C_9 
REMARK    6  A    between atoms: C_15  and  C_12 
REMARK    7  A    between atoms: C_14  and  C_15 
ROOT
ATOM      1  S   UNL d   1      32.937  19.466 -23.225  0.00  0.00     0.287 S 
ATOM      2  O   UNL d   1      33.241  19.040 -22.577  0.00  0.00    -0.198 OA
ATOM      3  O   UNL d   1      32.638  19.874 -23.867  0.00  0.00    -0.198 OA
ENDROOT
BRANCH   1   4
ATOM      4  C   UNL d   1      32.969  20.165 -22.782  0.00  0.00     0.129 A 
ATOM      5  C   UNL d   1      32.850  20.129 -21.978  0.00  0.00     0.039 A 
ATOM      6  C   UNL d   1      32.881  20.820 -21.531  0.00  0.00     0.095 A 
ATOM      7  C   UNL d   1      33.029  21.536 -21.896  0.00  0.00     0.026 A 
ATOM      8  C   UNL d   1      33.151  21.578 -22.715  0.00  0.00     0.027 A 
ATOM      9  C   UNL d   1      33.120  20.894 -23.153  0.00  0.00     0.106 A 
BRANCH   6  10
ATOM     10  O   UNL d   1      32.761  20.793 -20.709  0.00  0.00    -0.328 OA
ATOM     11  C   UNL d   1      32.300  21.352 -20.354  0.00  0.00     0.181 C 
ENDBRANCH   6  10
BRANCH   9  12
ATOM     12  O   UNL d   1      33.241  20.940 -23.965  0.00  0.00    -0.327 OA
ATOM     13  C   UNL d   1      33.241  21.674 -24.331  0.00  0.00     0.181 C 
ENDBRANCH   9  12
ENDBRANCH   1   4
BRANCH   1  14
ATOM     14  N   UNL d   1      32.909  18.761 -23.657  0.00  0.00    -0.157 NA
BRANCH  14  15
ATOM     15  C   UNL d   1      32.269  18.227 -23.573  0.00  0.00     0.112 C 
BRANCH  15  16
ATOM     16  C   UNL d   1      32.182  17.581 -24.084  0.00  0.00     0.021 C 
BRANCH  16  17
ATOM     17  C   UNL d   1      31.590  17.025 -23.954  0.00  0.00     0.002 A 
ATOM     18  C   UNL d   1      30.823  17.167 -24.218  0.00  0.00     0.000 A 
ATOM     19  C   UNL d   1      30.228  16.610 -24.088  0.00  0.00     0.000 A 
ATOM     20  C   UNL d   1      30.404  15.902 -23.690  0.00  0.00     0.000 A 
ATOM     21  C   UNL d   1      31.187  15.768 -23.427  0.00  0.00     0.000 A 
ATOM     22  C   UNL d   1      31.766  16.317 -23.556  0.00  0.00     0.000 A 
ENDBRANCH  16  17
ENDBRANCH  15  16
ENDBRANCH  14  15
ENDBRANCH   1  14
TORSDOF 7
ENDMDL
MODEL 5
REMARK VINA RESULT:      -1.4      5.016      6.800
REMARK  7 active torsions:
REMARK  status: ('A' for Active; 'I' for Inactive)
REMARK    1  A    between atoms: C_2  and  S_1 
REMARK    2  A    between atoms: N_7  and  S_1 
REMARK    3  A    between atoms: O_11  and  C_6 
REMARK    4  A    between atoms: C_12  and  N_7 
REMARK    5  A    between atoms: O_13  and  C_9 
REMARK    6  A    between atoms: C_15  and  C_12 
REMARK    7  A    between atoms: C_14  and  C_15 
ROOT
ATOM      1  S   UNL d   1      31.291  16.235 -24.191  0.00  0.00     0.287 S 
ATOM      2  O   UNL d   1      31.589  16.024 -24.940  0.00  0.00    -0.198 OA
ATOM      3  O   UNL d   1      30.990  16.434 -23.458  0.00  0.00    -0.198 OA
ENDROOT
BRANCH   1   4
ATOM      4  C   UNL d   1      31.915  16.770 -24.092  0.00  0.00     0.129 A 
ATOM      5  C   UNL d   1      31.817  17.540 -24.338  0.00  0.00     0.039 A 
ATOM      6  C   UNL d   1      32.434  18.078 -24.242  0.00  0.00     0.095 A 
ATOM      7  C   UNL d   1      33.137  17.838 -23.902  0.00  0.00     0.026 A 
ATOM      8  C   UNL d   1      33.240  17.054 -23.650  0.00  0.00     0.027 A 
ATOM      9  C   UNL d   1      32.631  16.526 -23.746  0.00  0.00     0.106 A 
BRANCH   6  10
ATOM     10  O   UNL d   1      32.344  18.866 -24.490  0.00  0.00    -0.328 OA
ATOM     11  C   UNL d   1      32.941  19.229 -24.893  0.00  0.00     0.181 C 
ENDBRANCH   6  10
BRANCH   9  12
ATOM     12  O   UNL d   1      32.738  15.750 -23.495  0.00  0.00    -0.327 OA
ATOM     13  C   UNL d   1      33.235  15.598 -22.861  0.00  0.00     0.181 C 
ENDBRANCH   9  12
ENDBRANCH   1   4
BRANCH   1  14
ATOM     14  N   UNL d   1      30.672  15.697 -24.302  0.00  0.00    -0.157 NA
BRANCH  14  15
ATOM     15  C   UNL d   1      29.919  15.827 -23.956  0.00  0.00     0.112 C 
BRANCH  15  16
ATOM     16  C   UNL d   1      29.224  15.631 -24.360  0.00  0.00     0.021 C 
BRANCH  16  17
ATOM     17  C   UNL d   1      28.494  15.700 -23.990  0.00  0.00     0.002 A 
ATOM     18  C   UNL d   1      28.442  16.013 -23.230  0.00  0.00     0.000 A 
ATOM     19  C   UNL d   1      27.709  16.083 -22.857  0.00  0.00     0.000 A 
ATOM     20  C   UNL d   1      27.020  15.836 -23.250  0.00  0.00     0.000 A 
ATOM     21  C   UNL d   1      27.084  15.519 -24.022  0.00  0.00     0.000 A 
ATOM     22  C   UNL d   1      27.805  15.453 -24.383  0.00  0.00     0.000 A 
ENDBRANCH  16  17
ENDBRANCH  15  16
ENDBRANCH  14  15
ENDBRANCH   1  14
TORSDOF 7
ENDMDL
