MODEL 1
REMARK VINA RESULT:      -4.6      0.000      0.000
REMARK  4 active torsions:
REMARK  status: ('A' for Active; 'I' for Inactive)
REMARK    1  A    between atoms: N_2  and  S_1 
REMARK    2  A    between atoms: C_3  and  S_1 
REMARK    3  A    between atoms: C_11  and  N_2 
REMARK    4  A    between atoms: C_6  and  C_7 
ROOT
ATOM      1  S   UNL d   1      57.599   0.378  30.861  0.00  0.00     0.285 S 
ATOM      2  O   UNL d   1      57.031   0.163  30.306  0.00  0.00    -0.198 OA
ATOM      3  O   UNL d   1      58.169   0.592  31.436  0.00  0.00    -0.198 OA
ENDROOT
BRANCH   1   4
ATOM      4  N   UNL d   1      58.075   0.682  30.270  0.00  0.00    -0.158 NA
BRANCH   4   5
ATOM      5  C   UNL d   1      58.673   0.224  29.941  0.00  0.00     0.094 A 
ATOM      6  C   UNL d   1      59.445   0.350  30.213  0.00  0.00     0.020 A 
ATOM      7  C   UNL d   1      60.064  -0.110  29.886  0.00  0.00     0.005 A 
ATOM      8  C   UNL d   1      59.895  -0.674  29.307  0.00  0.00     0.039 A 
ATOM      9  C   UNL d   1      59.128  -0.797  29.039  0.00  0.00     0.005 A 
ATOM     10  C   UNL d   1      58.518  -0.346  29.359  0.00  0.00     0.020 A 
BRANCH   8  11
ATOM     11  C   UNL d   1      60.523  -1.132  28.983  0.00  0.00     0.196 C 
ATOM     12  O   UNL d   1      60.592  -1.923  29.207  0.00  0.00    -0.287 OA
ATOM     13  C   UNL d   1      61.046  -0.776  28.455  0.00  0.00     0.045 C 
ENDBRANCH   8  11
ENDBRANCH   4   5
ENDBRANCH   1   4
BRANCH   1  14
ATOM     14  C   UNL d   1      57.099   0.058  31.491  0.00  0.00     0.105 A 
ATOM     15  C   UNL d   1      56.708   0.576  31.982  0.00  0.00     0.015 A 
ATOM     16  C   UNL d   1      56.225   0.292  32.590  0.00  0.00     0.022 A 
ATOM     17  C   UNL d   1      56.144  -0.514  32.695  0.00  0.00     0.103 A 
ATOM     18  C   UNL d   1      56.549  -1.053  32.188  0.00  0.00     0.022 A 
ATOM     19  N   UNL d   1      55.648  -0.807  33.320  0.00  0.00    -0.148 N 
ATOM     20  C   UNL d   1      57.027  -0.735  31.586  0.00  0.00     0.015 A 
ENDBRANCH   1  14
TORSDOF 4
ENDMDL
MODEL 2
REMARK VINA RESULT:      -4.4      1.306      4.209
REMARK  4 active torsions:
REMARK  status: ('A' for Active; 'I' for Inactive)
REMARK    1  A    between atoms: N_2  and  S_1 
REMARK    2  A    between atoms: C_3  and  S_1 
REMARK    3  A    between atoms: C_11  and  N_2 
REMARK    4  A    between atoms: C_6  and  C_7 
ROOT
ATOM      1  S   UNL d   1      58.273   0.204  30.119  0.00  0.00     0.285 S 
ATOM      2  O   UNL d   1      57.835  -0.272  29.610  0.00  0.00    -0.198 OA
ATOM      3  O   UNL d   1      58.731   0.682  30.632  0.00  0.00    -0.198 OA
ENDROOT
BRANCH   1   4
ATOM      4  N   UNL d   1      57.586   0.523  30.426  0.00  0.00    -0.158 NA
BRANCH   4   5
ATOM      5  C   UNL d   1      57.227   0.183  31.083  0.00  0.00     0.094 A 
ATOM      6  C   UNL d   1      57.058   0.676  31.726  0.00  0.00     0.020 A 
ATOM      7  C   UNL d   1      56.692   0.341  32.401  0.00  0.00     0.005 A 
ATOM      8  C   UNL d   1      56.509  -0.464  32.412  0.00  0.00     0.039 A 
ATOM      9  C   UNL d   1      56.678  -0.951  31.772  0.00  0.00     0.005 A 
ATOM     10  C   UNL d   1      57.038  -0.624  31.108  0.00  0.00     0.020 A 
BRANCH   8  11
ATOM     11  C   UNL d   1      56.141  -0.793  33.094  0.00  0.00     0.196 C 
ATOM     12  O   UNL d   1      55.967  -1.598  33.101  0.00  0.00    -0.287 OA
ATOM     13  C   UNL d   1      55.968  -0.298  33.731  0.00  0.00     0.045 C 
ENDBRANCH   8  11
ENDBRANCH   4   5
ENDBRANCH   1   4
BRANCH   1  14
ATOM     14  C   UNL d   1      59.004  -0.132  29.797  0.00  0.00     0.105 A 
ATOM     15  C   UNL d   1      59.681   0.319  29.813  0.00  0.00     0.015 A 
ATOM     16  C   UNL d   1      60.390   0.019  29.511  0.00  0.00     0.022 A 
ATOM     17  C   UNL d   1      60.405  -0.735  29.196  0.00  0.00     0.103 A 
ATOM     18  C   UNL d   1      59.704  -1.204  29.179  0.00  0.00     0.022 A 
ATOM     19  N   UNL d   1      61.133  -1.044  28.886  0.00  0.00    -0.148 N 
ATOM     20  C   UNL d   1      59.008  -0.872  29.491  0.00  0.00     0.015 A 
ENDBRANCH   1  14
TORSDOF 4
ENDMDL
MODEL 3
REMARK VINA RESULT:      -3.5      1.612      2.212
REMARK  4 active torsions:
REMARK  status: ('A' for Active; 'I' for Inactive)
REMARK    1  A    between atoms: N_2  and  S_1 
REMARK    2  A    between atoms: C_3  and  S_1 
REMARK    3  A    between atoms: C_11  and  N_2 
REMARK    4  A    between atoms: C_6  and  C_7 
ROOT
ATOM      1  S   UNL d   1      56.407  -0.503  32.212  0.00  0.00     0.285 S 
ATOM      2  O   UNL d   1      56.736  -1.157  32.587  0.00  0.00    -0.198 OA
ATOM      3  O   UNL d   1      56.068   0.169  31.844  0.00  0.00    -0.198 OA
ENDROOT
BRANCH   1   4
ATOM      4  N   UNL d   1      56.634  -0.794  31.483  0.00  0.00    -0.158 NA
BRANCH   4   5
ATOM      5  C   UNL d   1      57.269  -0.460  31.082  0.00  0.00     0.094 A 
ATOM      6  C   UNL d   1      57.796  -0.974  30.704  0.00  0.00     0.020 A 
ATOM      7  C   UNL d   1      58.447  -0.645  30.291  0.00  0.00     0.005 A 
ATOM      8  C   UNL d   1      58.549   0.173  30.270  0.00  0.00     0.039 A 
ATOM      9  C   UNL d   1      58.024   0.681  30.646  0.00  0.00     0.005 A 
ATOM     10  C   UNL d   1      57.384   0.361  31.052  0.00  0.00     0.020 A 
BRANCH   8  11
ATOM     11  C   UNL d   1      59.207   0.495  29.853  0.00  0.00     0.196 C 
ATOM     12  O   UNL d   1      59.914   0.612  30.259  0.00  0.00    -0.287 OA
ATOM     13  C   UNL d   1      59.119   0.682  29.055  0.00  0.00     0.045 C 
ENDBRANCH   8  11
ENDBRANCH   4   5
ENDBRANCH   1   4
BRANCH   1  14
ATOM     14  C   UNL d   1      56.164  -0.190  32.982  0.00  0.00     0.105 A 
ATOM     15  C   UNL d   1      55.423  -0.376  33.264  0.00  0.00     0.015 A 
ATOM     16  C   UNL d   1      55.171  -0.087  33.997  0.00  0.00     0.022 A 
ATOM     17  C   UNL d   1      55.671   0.386  34.437  0.00  0.00     0.103 A 
ATOM     18  C   UNL d   1      56.439   0.580  34.146  0.00  0.00     0.022 A 
ATOM     19  N   UNL d   1      55.412   0.682  35.190  0.00  0.00    -0.148 N 
ATOM     20  C   UNL d   1      56.662   0.274  33.406  0.00  0.00     0.015 A 
ENDBRANCH   1  14
TORSDOF 4
ENDMDL
