MODEL 1
REMARK VINA RESULT:      -7.5      0.000      0.000
REMARK  5 active torsions:
REMARK  status: ('A' for Active; 'I' for Inactive)
REMARK    1  A    between atoms: C_7  and  C_1 
REMARK    2  A    between atoms: C_8  and  C_2 
REMARK    3  A    between atoms: O_16  and  C_8 
REMARK    4  A    between atoms: O_17  and  C_12 
REMARK    5  A    between atoms: C_21  and  O_16 
ROOT
ATOM      1  C   UNL d   1     -48.634  12.504  23.165  0.00  0.00     0.069 A 
ATOM      2  C   UNL d   1     -48.131  13.158  23.187  0.00  0.00     0.166 A 
ATOM      3  C   UNL d   1     -48.324  11.743  23.252  0.00  0.00     0.200 A 
ATOM      4  O   UNL d   1     -47.315  13.063  23.296  0.00  0.00    -0.301 OA
ATOM      5  C   UNL d   1     -47.513  11.641  23.362  0.00  0.00     0.062 A 
ATOM      6  C   UNL d   1     -47.013  12.296  23.383  0.00  0.00     0.106 A 
ATOM      7  C   UNL d   1     -46.189  12.190  23.495  0.00  0.00     0.067 A 
ATOM      8  C   UNL d   1     -47.200  10.876  23.450  0.00  0.00     0.009 A 
ATOM      9  O   UNL d   1     -48.821  11.084  23.231  0.00  0.00    -0.286 OA
ATOM     10  C   UNL d   1     -45.883  11.432  23.582  0.00  0.00     0.198 A 
ATOM     11  C   UNL d   1     -46.391  10.772  23.560  0.00  0.00     0.042 A 
ATOM     12  O   UNL d   1     -45.075  11.326  23.692  0.00  0.00    -0.286 OA
ENDROOT
BRANCH   1  13
ATOM     13  C   UNL d   1     -49.443  12.610  23.055  0.00  0.00     0.028 A 
ATOM     14  C   UNL d   1     -49.767  12.487  22.306  0.00  0.00     0.094 A 
ATOM     15  C   UNL d   1     -50.576  12.593  22.196  0.00  0.00     0.024 A 
ATOM     16  C   UNL d   1     -51.064  12.821  22.827  0.00  0.00     0.002 A 
ATOM     17  C   UNL d   1     -50.729  12.941  23.571  0.00  0.00     0.000 A 
ATOM     18  C   UNL d   1     -49.917  12.836  23.689  0.00  0.00     0.002 A 
BRANCH  14  19
ATOM     19  O   UNL d   1     -49.288  12.263  21.683  0.00  0.00    -0.328 OA
ATOM     20  C   UNL d   1     -49.615  12.163  20.932  0.00  0.00     0.181 C 
ENDBRANCH  14  19
ENDBRANCH   1  13
BRANCH   2  21
ATOM     21  C   UNL d   1     -48.444  13.923  23.098  0.00  0.00     0.323 C 
ATOM     22  O   UNL d   1     -48.915  14.243  23.698  0.00  0.00    -0.257 OA
BRANCH  21  23
ATOM     23  O   UNL d   1     -48.285  14.358  22.416  0.00  0.00    -0.270 OA
BRANCH  23  24
ATOM     24  C   UNL d   1     -48.316  15.174  22.441  0.00  0.00     0.126 C 
ATOM     25  C   UNL d   1     -48.065  15.619  21.795  0.00  0.00     0.029 C 
ENDBRANCH  23  24
ENDBRANCH  21  23
ENDBRANCH   2  21
TORSDOF 5
ENDMDL
MODEL 2
REMARK VINA RESULT:      -5.5      1.179      1.507
REMARK  5 active torsions:
REMARK  status: ('A' for Active; 'I' for Inactive)
REMARK    1  A    between atoms: C_7  and  C_1 
REMARK    2  A    between atoms: C_8  and  C_2 
REMARK    3  A    between atoms: O_16  and  C_8 
REMARK    4  A    between atoms: O_17  and  C_12 
REMARK    5  A    between atoms: C_21  and  O_16 
ROOT
ATOM      1  C   UNL d   1     -48.637  13.121  22.795  0.00  0.00     0.069 A 
ATOM      2  C   UNL d   1     -48.535  13.931  22.677  0.00  0.00     0.166 A 
ATOM      3  C   UNL d   1     -47.978  12.623  22.828  0.00  0.00     0.200 A 
ATOM      4  O   UNL d   1     -47.776  14.255  22.590  0.00  0.00    -0.301 OA
ATOM      5  C   UNL d   1     -47.221  12.939  22.742  0.00  0.00     0.062 A 
ATOM      6  C   UNL d   1     -47.122  13.749  22.625  0.00  0.00     0.106 A 
ATOM      7  C   UNL d   1     -46.352  14.068  22.538  0.00  0.00     0.067 A 
ATOM      8  C   UNL d   1     -46.558  12.440  22.775  0.00  0.00     0.009 A 
ATOM      9  O   UNL d   1     -48.073  11.812  22.945  0.00  0.00    -0.286 OA
ATOM     10  C   UNL d   1     -45.698  13.570  22.571  0.00  0.00     0.198 A 
ATOM     11  C   UNL d   1     -45.801  12.752  22.690  0.00  0.00     0.042 A 
ATOM     12  O   UNL d   1     -44.941  13.881  22.486  0.00  0.00    -0.286 OA
ENDROOT
BRANCH   1  13
ATOM     13  C   UNL d   1     -49.395  12.810  22.880  0.00  0.00     0.028 A 
ATOM     14  C   UNL d   1     -49.780  12.504  22.217  0.00  0.00     0.094 A 
ATOM     15  C   UNL d   1     -50.538  12.193  22.301  0.00  0.00     0.024 A 
ATOM     16  C   UNL d   1     -50.913  12.184  23.041  0.00  0.00     0.002 A 
ATOM     17  C   UNL d   1     -50.517  12.492  23.696  0.00  0.00     0.000 A 
ATOM     18  C   UNL d   1     -49.757  12.806  23.618  0.00  0.00     0.002 A 
BRANCH  14  19
ATOM     19  O   UNL d   1     -49.412  12.512  21.488  0.00  0.00    -0.328 OA
ATOM     20  C   UNL d   1     -49.794  12.183  20.834  0.00  0.00     0.181 C 
ENDBRANCH  14  19
ENDBRANCH   1  13
BRANCH   2  21
ATOM     21  C   UNL d   1     -49.198  14.431  22.644  0.00  0.00     0.323 C 
ATOM     22  O   UNL d   1     -49.626  14.496  21.939  0.00  0.00    -0.257 OA
BRANCH  21  23
ATOM     23  O   UNL d   1     -49.427  14.859  23.311  0.00  0.00    -0.270 OA
BRANCH  23  24
ATOM     24  C   UNL d   1     -49.677  15.632  23.229  0.00  0.00     0.126 C 
ATOM     25  C   UNL d   1     -50.289  15.922  23.698  0.00  0.00     0.029 C 
ENDBRANCH  23  24
ENDBRANCH  21  23
ENDBRANCH   2  21
TORSDOF 5
ENDMDL
MODEL 3
REMARK VINA RESULT:      -5.4      7.843      9.828
REMARK  5 active torsions:
REMARK  status: ('A' for Active; 'I' for Inactive)
REMARK    1  A    between atoms: C_7  and  C_1 
REMARK    2  A    between atoms: C_8  and  C_2 
REMARK    3  A    between atoms: O_16  and  C_8 
REMARK    4  A    between atoms: O_17  and  C_12 
REMARK    5  A    between atoms: C_21  and  O_16 
ROOT
ATOM      1  C   UNL d   1     -39.770  15.177  20.161  0.00  0.00     0.069 A 
ATOM      2  C   UNL d   1     -40.553  14.962  20.017  0.00  0.00     0.166 A 
ATOM      3  C   UNL d   1     -39.265  15.343  19.527  0.00  0.00     0.200 A 
ATOM      4  O   UNL d   1     -40.844  14.909  19.242  0.00  0.00    -0.301 OA
ATOM      5  C   UNL d   1     -39.548  15.292  18.754  0.00  0.00     0.062 A 
ATOM      6  C   UNL d   1     -40.331  15.077  18.614  0.00  0.00     0.106 A 
ATOM      7  C   UNL d   1     -40.616  15.026  17.827  0.00  0.00     0.067 A 
ATOM      8  C   UNL d   1     -39.042  15.458  18.116  0.00  0.00     0.009 A 
ATOM      9  O   UNL d   1     -38.480  15.559  19.663  0.00  0.00    -0.286 OA
ATOM     10  C   UNL d   1     -40.112  15.191  17.198  0.00  0.00     0.198 A 
ATOM     11  C   UNL d   1     -39.321  15.408  17.344  0.00  0.00     0.042 A 
ATOM     12  O   UNL d   1     -40.391  15.141  16.426  0.00  0.00    -0.286 OA
ENDROOT
BRANCH   1  13
ATOM     13  C   UNL d   1     -39.491  15.227  20.934  0.00  0.00     0.028 A 
ATOM     14  C   UNL d   1     -39.021  14.618  21.232  0.00  0.00     0.094 A 
ATOM     15  C   UNL d   1     -38.742  14.666  22.005  0.00  0.00     0.024 A 
ATOM     16  C   UNL d   1     -38.930  15.318  22.483  0.00  0.00     0.002 A 
ATOM     17  C   UNL d   1     -39.401  15.921  22.174  0.00  0.00     0.000 A 
ATOM     18  C   UNL d   1     -39.684  15.878  21.399  0.00  0.00     0.002 A 
BRANCH  14  19
ATOM     19  O   UNL d   1     -38.835  13.975  20.763  0.00  0.00    -0.328 OA
ATOM     20  C   UNL d   1     -38.333  13.389  21.053  0.00  0.00     0.181 C 
ENDBRANCH  14  19
ENDBRANCH   1  13
BRANCH   2  21
ATOM     21  C   UNL d   1     -41.059  14.795  20.655  0.00  0.00     0.323 C 
ATOM     22  O   UNL d   1     -41.333  15.414  21.131  0.00  0.00    -0.257 OA
BRANCH  21  23
ATOM     23  O   UNL d   1     -41.287  14.018  20.810  0.00  0.00    -0.270 OA
BRANCH  23  24
ATOM     24  C   UNL d   1     -42.045  13.864  21.071  0.00  0.00     0.126 C 
ATOM     25  C   UNL d   1     -42.282  13.089  21.223  0.00  0.00     0.029 C 
ENDBRANCH  23  24
ENDBRANCH  21  23
ENDBRANCH   2  21
TORSDOF 5
ENDMDL
MODEL 4
REMARK VINA RESULT:      -5.3      1.308      3.299
REMARK  5 active torsions:
REMARK  status: ('A' for Active; 'I' for Inactive)
REMARK    1  A    between atoms: C_7  and  C_1 
REMARK    2  A    between atoms: C_8  and  C_2 
REMARK    3  A    between atoms: O_16  and  C_8 
REMARK    4  A    between atoms: O_17  and  C_12 
REMARK    5  A    between atoms: C_21  and  O_16 
ROOT
ATOM      1  C   UNL d   1     -48.646  12.982  23.136  0.00  0.00     0.069 A 
ATOM      2  C   UNL d   1     -48.208  13.680  23.176  0.00  0.00     0.166 A 
ATOM      3  C   UNL d   1     -49.471  13.010  23.185  0.00  0.00     0.200 A 
ATOM      4  O   UNL d   1     -48.585  14.414  23.264  0.00  0.00    -0.301 OA
ATOM      5  C   UNL d   1     -49.852  13.737  23.273  0.00  0.00     0.062 A 
ATOM      6  C   UNL d   1     -49.411  14.432  23.312  0.00  0.00     0.106 A 
ATOM      7  C   UNL d   1     -49.801  15.169  23.402  0.00  0.00     0.067 A 
ATOM      8  C   UNL d   1     -50.681  13.766  23.322  0.00  0.00     0.009 A 
ATOM      9  O   UNL d   1     -49.916  12.316  23.146  0.00  0.00    -0.286 OA
ATOM     10  C   UNL d   1     -50.622  15.194  23.450  0.00  0.00     0.198 A 
ATOM     11  C   UNL d   1     -51.064  14.489  23.410  0.00  0.00     0.042 A 
ATOM     12  O   UNL d   1     -51.005  15.916  23.538  0.00  0.00    -0.286 OA
ENDROOT
BRANCH   1  13
ATOM     13  C   UNL d   1     -48.262  12.259  23.048  0.00  0.00     0.028 A 
ATOM     14  C   UNL d   1     -48.273  11.886  22.312  0.00  0.00     0.094 A 
ATOM     15  C   UNL d   1     -47.888  11.162  22.223  0.00  0.00     0.024 A 
ATOM     16  C   UNL d   1     -47.494  10.811  22.863  0.00  0.00     0.002 A 
ATOM     17  C   UNL d   1     -47.490  11.194  23.594  0.00  0.00     0.000 A 
ATOM     18  C   UNL d   1     -47.874  11.920  23.689  0.00  0.00     0.002 A 
BRANCH  14  19
ATOM     19  O   UNL d   1     -48.660  12.231  21.682  0.00  0.00    -0.328 OA
ATOM     20  C   UNL d   1     -48.612  11.885  20.934  0.00  0.00     0.181 C 
ENDBRANCH  14  19
ENDBRANCH   1  13
BRANCH   2  21
ATOM     21  C   UNL d   1     -47.379  13.651  23.127  0.00  0.00     0.323 C 
ATOM     22  O   UNL d   1     -46.951  13.231  23.696  0.00  0.00    -0.257 OA
BRANCH  21  23
ATOM     23  O   UNL d   1     -46.987  14.039  22.513  0.00  0.00    -0.270 OA
BRANCH  23  24
ATOM     24  C   UNL d   1     -46.286  14.429  22.665  0.00  0.00     0.126 C 
ATOM     25  C   UNL d   1     -45.589  14.186  22.300  0.00  0.00     0.029 C 
ENDBRANCH  23  24
ENDBRANCH  21  23
ENDBRANCH   2  21
TORSDOF 5
ENDMDL
MODEL 5
REMARK VINA RESULT:      -5.3      1.134      2.557
REMARK  5 active torsions:
REMARK  status: ('A' for Active; 'I' for Inactive)
REMARK    1  A    between atoms: C_7  and  C_1 
REMARK    2  A    between atoms: C_8  and  C_2 
REMARK    3  A    between atoms: O_16  and  C_8 
REMARK    4  A    between atoms: O_17  and  C_12 
REMARK    5  A    between atoms: C_21  and  O_16 
ROOT
ATOM      1  C   UNL d   1     -48.403  13.163  22.364  0.00  0.00     0.069 A 
ATOM      2  C   UNL d   1     -48.632  12.399  22.572  0.00  0.00     0.166 A 
ATOM      3  C   UNL d   1     -47.617  13.400  22.463  0.00  0.00     0.200 A 
ATOM      4  O   UNL d   1     -48.082  11.861  22.883  0.00  0.00    -0.301 OA
ATOM      5  C   UNL d   1     -47.065  12.870  22.772  0.00  0.00     0.062 A 
ATOM      6  C   UNL d   1     -47.297  12.107  22.979  0.00  0.00     0.106 A 
ATOM      7  C   UNL d   1     -46.734  11.570  23.292  0.00  0.00     0.067 A 
ATOM      8  C   UNL d   1     -46.275  13.107  22.872  0.00  0.00     0.009 A 
ATOM      9  O   UNL d   1     -47.381  14.163  22.257  0.00  0.00    -0.286 OA
ATOM     10  C   UNL d   1     -45.953  11.808  23.390  0.00  0.00     0.198 A 
ATOM     11  C   UNL d   1     -45.723  12.580  23.179  0.00  0.00     0.042 A 
ATOM     12  O   UNL d   1     -45.400  11.282  23.697  0.00  0.00    -0.286 OA
ENDROOT
BRANCH   1  13
ATOM     13  C   UNL d   1     -48.957  13.689  22.056  0.00  0.00     0.028 A 
ATOM     14  C   UNL d   1     -49.214  14.319  22.523  0.00  0.00     0.094 A 
ATOM     15  C   UNL d   1     -49.769  14.846  22.216  0.00  0.00     0.024 A 
ATOM     16  C   UNL d   1     -50.067  14.748  21.448  0.00  0.00     0.002 A 
ATOM     17  C   UNL d   1     -49.802  14.114  20.992  0.00  0.00     0.000 A 
ATOM     18  C   UNL d   1     -49.246  13.582  21.294  0.00  0.00     0.002 A 
BRANCH  14  19
ATOM     19  O   UNL d   1     -48.921  14.418  23.279  0.00  0.00    -0.328 OA
ATOM     20  C   UNL d   1     -49.096  15.107  23.698  0.00  0.00     0.181 C 
ENDBRANCH  14  19
ENDBRANCH   1  13
BRANCH   2  21
ATOM     21  C   UNL d   1     -49.422  12.162  22.472  0.00  0.00     0.323 C 
ATOM     22  O   UNL d   1     -49.722  12.055  21.709  0.00  0.00    -0.257 OA
BRANCH  21  23
ATOM     23  O   UNL d   1     -49.902  12.034  23.130  0.00  0.00    -0.270 OA
BRANCH  23  24
ATOM     24  C   UNL d   1     -50.517  11.498  23.083  0.00  0.00     0.126 C 
ATOM     25  C   UNL d   1     -51.064  11.439  23.697  0.00  0.00     0.029 C 
ENDBRANCH  23  24
ENDBRANCH  21  23
ENDBRANCH   2  21
TORSDOF 5
ENDMDL
MODEL 6
REMARK VINA RESULT:      -5.0      8.214     10.228
REMARK  5 active torsions:
REMARK  status: ('A' for Active; 'I' for Inactive)
REMARK    1  A    between atoms: C_7  and  C_1 
REMARK    2  A    between atoms: C_8  and  C_2 
REMARK    3  A    between atoms: O_16  and  C_8 
REMARK    4  A    between atoms: O_17  and  C_12 
REMARK    5  A    between atoms: C_21  and  O_16 
ROOT
ATOM      1  C   UNL d   1     -39.891  15.049  19.224  0.00  0.00     0.069 A 
ATOM      2  C   UNL d   1     -39.477  14.614  18.659  0.00  0.00     0.166 A 
ATOM      3  C   UNL d   1     -40.557  15.485  19.002  0.00  0.00     0.200 A 
ATOM      4  O   UNL d   1     -39.720  14.607  17.866  0.00  0.00    -0.301 OA
ATOM      5  C   UNL d   1     -40.805  15.482  18.215  0.00  0.00     0.062 A 
ATOM      6  C   UNL d   1     -40.388  15.046  17.652  0.00  0.00     0.106 A 
ATOM      7  C   UNL d   1     -40.642  15.046  16.853  0.00  0.00     0.067 A 
ATOM      8  C   UNL d   1     -41.474  15.920  17.990  0.00  0.00     0.009 A 
ATOM      9  O   UNL d   1     -40.977  15.922  19.562  0.00  0.00    -0.286 OA
ATOM     10  C   UNL d   1     -41.305  15.480  16.634  0.00  0.00     0.198 A 
ATOM     11  C   UNL d   1     -41.723  15.919  17.205  0.00  0.00     0.042 A 
ATOM     12  O   UNL d   1     -41.555  15.480  15.851  0.00  0.00    -0.286 OA
ENDROOT
BRANCH   1  13
ATOM     13  C   UNL d   1     -39.641  15.048  20.009  0.00  0.00     0.028 A 
ATOM     14  C   UNL d   1     -40.044  14.584  20.559  0.00  0.00     0.094 A 
ATOM     15  C   UNL d   1     -39.794  14.583  21.344  0.00  0.00     0.024 A 
ATOM     16  C   UNL d   1     -39.146  15.042  21.583  0.00  0.00     0.002 A 
ATOM     17  C   UNL d   1     -38.750  15.502  21.023  0.00  0.00     0.000 A 
ATOM     18  C   UNL d   1     -38.996  15.507  20.234  0.00  0.00     0.002 A 
BRANCH  14  19
ATOM     19  O   UNL d   1     -40.683  14.132  20.325  0.00  0.00    -0.328 OA
ATOM     20  C   UNL d   1     -41.107  13.703  20.888  0.00  0.00     0.181 C 
ENDBRANCH  14  19
ENDBRANCH   1  13
BRANCH   2  21
ATOM     21  C   UNL d   1     -38.807  14.176  18.883  0.00  0.00     0.323 C 
ATOM     22  O   UNL d   1     -38.168  14.561  19.239  0.00  0.00    -0.257 OA
BRANCH  21  23
ATOM     23  O   UNL d   1     -38.782  13.362  18.751  0.00  0.00    -0.270 OA
BRANCH  23  24
ATOM     24  C   UNL d   1     -38.065  13.000  18.601  0.00  0.00     0.126 C 
ATOM     25  C   UNL d   1     -38.041  12.271  18.216  0.00  0.00     0.029 C 
ENDBRANCH  23  24
ENDBRANCH  21  23
ENDBRANCH   2  21
TORSDOF 5
ENDMDL
MODEL 7
REMARK VINA RESULT:      -4.9      8.386     10.114
REMARK  5 active torsions:
REMARK  status: ('A' for Active; 'I' for Inactive)
REMARK    1  A    between atoms: C_7  and  C_1 
REMARK    2  A    between atoms: C_8  and  C_2 
REMARK    3  A    between atoms: O_16  and  C_8 
REMARK    4  A    between atoms: O_17  and  C_12 
REMARK    5  A    between atoms: C_21  and  O_16 
ROOT
ATOM      1  C   UNL d   1     -39.214  14.443  19.901  0.00  0.00     0.069 A 
ATOM      2  C   UNL d   1     -38.600  13.919  19.732  0.00  0.00     0.166 A 
ATOM      3  C   UNL d   1     -39.464  14.548  20.682  0.00  0.00     0.200 A 
ATOM      4  O   UNL d   1     -38.227  13.493  20.338  0.00  0.00    -0.301 OA
ATOM      5  C   UNL d   1     -39.097  14.127  21.289  0.00  0.00     0.062 A 
ATOM      6  C   UNL d   1     -38.483  13.604  21.117  0.00  0.00     0.106 A 
ATOM      7  C   UNL d   1     -38.112  13.177  21.736  0.00  0.00     0.067 A 
ATOM      8  C   UNL d   1     -39.347  14.231  22.075  0.00  0.00     0.009 A 
ATOM      9  O   UNL d   1     -40.077  15.070  20.859  0.00  0.00    -0.286 OA
ATOM     10  C   UNL d   1     -38.362  13.283  22.512  0.00  0.00     0.198 A 
ATOM     11  C   UNL d   1     -38.982  13.812  22.683  0.00  0.00     0.042 A 
ATOM     12  O   UNL d   1     -37.999  12.865  23.120  0.00  0.00    -0.286 OA
ENDROOT
BRANCH   1  13
ATOM     13  C   UNL d   1     -39.578  14.862  19.292  0.00  0.00     0.028 A 
ATOM     14  C   UNL d   1     -40.324  14.625  19.032  0.00  0.00     0.094 A 
ATOM     15  C   UNL d   1     -40.688  15.043  18.422  0.00  0.00     0.024 A 
ATOM     16  C   UNL d   1     -40.313  15.695  18.072  0.00  0.00     0.002 A 
ATOM     17  C   UNL d   1     -39.567  15.922  18.341  0.00  0.00     0.000 A 
ATOM     18  C   UNL d   1     -39.196  15.506  18.952  0.00  0.00     0.002 A 
BRANCH  14  19
ATOM     19  O   UNL d   1     -40.695  13.983  19.375  0.00  0.00    -0.328 OA
ATOM     20  C   UNL d   1     -41.446  13.759  19.117  0.00  0.00     0.181 C 
ENDBRANCH  14  19
ENDBRANCH   1  13
BRANCH   2  21
ATOM     21  C   UNL d   1     -38.350  13.815  18.947  0.00  0.00     0.323 C 
ATOM     22  O   UNL d   1     -37.940  14.423  18.564  0.00  0.00    -0.257 OA
BRANCH  21  23
ATOM     23  O   UNL d   1     -38.511  13.109  18.552  0.00  0.00    -0.270 OA
BRANCH  23  24
ATOM     24  C   UNL d   1     -37.951  12.791  18.049  0.00  0.00     0.126 C 
ATOM     25  C   UNL d   1     -38.134  12.134  17.586  0.00  0.00     0.029 C 
ENDBRANCH  23  24
ENDBRANCH  21  23
ENDBRANCH   2  21
TORSDOF 5
ENDMDL
MODEL 8
REMARK VINA RESULT:      -4.8      9.075     10.714
REMARK  5 active torsions:
REMARK  status: ('A' for Active; 'I' for Inactive)
REMARK    1  A    between atoms: C_7  and  C_1 
REMARK    2  A    between atoms: C_8  and  C_2 
REMARK    3  A    between atoms: O_16  and  C_8 
REMARK    4  A    between atoms: O_17  and  C_12 
REMARK    5  A    between atoms: C_21  and  O_16 
ROOT
ATOM      1  C   UNL d   1     -39.309  15.068  17.942  0.00  0.00     0.069 A 
ATOM      2  C   UNL d   1     -40.047  15.426  17.856  0.00  0.00     0.166 A 
ATOM      3  C   UNL d   1     -38.992  14.952  18.697  0.00  0.00     0.200 A 
ATOM      4  O   UNL d   1     -40.479  15.672  18.519  0.00  0.00    -0.301 OA
ATOM      5  C   UNL d   1     -39.417  15.195  19.361  0.00  0.00     0.062 A 
ATOM      6  C   UNL d   1     -40.155  15.552  19.271  0.00  0.00     0.106 A 
ATOM      7  C   UNL d   1     -40.584  15.798  19.948  0.00  0.00     0.067 A 
ATOM      8  C   UNL d   1     -39.100  15.078  20.120  0.00  0.00     0.009 A 
ATOM      9  O   UNL d   1     -38.255  14.594  18.790  0.00  0.00    -0.286 OA
ATOM     10  C   UNL d   1     -40.267  15.681  20.698  0.00  0.00     0.198 A 
ATOM     11  C   UNL d   1     -39.522  15.320  20.785  0.00  0.00     0.042 A 
ATOM     12  O   UNL d   1     -40.688  15.922  21.363  0.00  0.00    -0.286 OA
ENDROOT
BRANCH   1  13
ATOM     13  C   UNL d   1     -38.888  14.827  17.276  0.00  0.00     0.028 A 
ATOM     14  C   UNL d   1     -38.889  14.029  17.068  0.00  0.00     0.094 A 
ATOM     15  C   UNL d   1     -38.468  13.787  16.402  0.00  0.00     0.024 A 
ATOM     16  C   UNL d   1     -38.048  14.336  15.944  0.00  0.00     0.002 A 
ATOM     17  C   UNL d   1     -38.055  15.132  16.162  0.00  0.00     0.000 A 
ATOM     18  C   UNL d   1     -38.475  15.380  16.829  0.00  0.00     0.002 A 
BRANCH  14  19
ATOM     19  O   UNL d   1     -39.302  13.487  17.518  0.00  0.00    -0.328 OA
ATOM     20  C   UNL d   1     -39.229  12.681  17.356  0.00  0.00     0.181 C 
ENDBRANCH  14  19
ENDBRANCH   1  13
BRANCH   2  21
ATOM     21  C   UNL d   1     -40.364  15.542  17.097  0.00  0.00     0.323 C 
ATOM     22  O   UNL d   1     -39.910  15.921  16.518  0.00  0.00    -0.257 OA
BRANCH  21  23
ATOM     23  O   UNL d   1     -41.127  15.282  16.923  0.00  0.00    -0.270 OA
BRANCH  23  24
ATOM     24  C   UNL d   1     -41.648  15.783  16.544  0.00  0.00     0.126 C 
ATOM     25  C   UNL d   1     -42.179  15.487  15.987  0.00  0.00     0.029 C 
ENDBRANCH  23  24
ENDBRANCH  21  23
ENDBRANCH   2  21
TORSDOF 5
ENDMDL
MODEL 9
REMARK VINA RESULT:      -4.7      8.146     10.050
REMARK  5 active torsions:
REMARK  status: ('A' for Active; 'I' for Inactive)
REMARK    1  A    between atoms: C_7  and  C_1 
REMARK    2  A    between atoms: C_8  and  C_2 
REMARK    3  A    between atoms: O_16  and  C_8 
REMARK    4  A    between atoms: O_17  and  C_12 
REMARK    5  A    between atoms: C_21  and  O_16 
ROOT
ATOM      1  C   UNL d   1     -39.591  14.518  19.618  0.00  0.00     0.069 A 
ATOM      2  C   UNL d   1     -38.880  14.133  19.779  0.00  0.00     0.166 A 
ATOM      3  C   UNL d   1     -39.881  14.541  18.844  0.00  0.00     0.200 A 
ATOM      4  O   UNL d   1     -38.448  13.766  19.174  0.00  0.00    -0.301 OA
ATOM      5  C   UNL d   1     -39.457  14.178  18.237  0.00  0.00     0.062 A 
ATOM      6  C   UNL d   1     -38.746  13.794  18.402  0.00  0.00     0.106 A 
ATOM      7  C   UNL d   1     -38.317  13.426  17.783  0.00  0.00     0.067 A 
ATOM      8  C   UNL d   1     -39.747  14.200  17.458  0.00  0.00     0.009 A 
ATOM      9  O   UNL d   1     -40.592  14.924  18.675  0.00  0.00    -0.286 OA
ATOM     10  C   UNL d   1     -38.607  13.450  17.013  0.00  0.00     0.198 A 
ATOM     11  C   UNL d   1     -39.326  13.839  16.851  0.00  0.00     0.042 A 
ATOM     12  O   UNL d   1     -38.187  13.089  16.405  0.00  0.00    -0.286 OA
ENDROOT
BRANCH   1  13
ATOM     13  C   UNL d   1     -40.012  14.879  20.227  0.00  0.00     0.028 A 
ATOM     14  C   UNL d   1     -40.723  14.544  20.478  0.00  0.00     0.094 A 
ATOM     15  C   UNL d   1     -41.144  14.905  21.087  0.00  0.00     0.024 A 
ATOM     16  C   UNL d   1     -40.860  15.596  21.447  0.00  0.00     0.002 A 
ATOM     17  C   UNL d   1     -40.148  15.922  21.187  0.00  0.00     0.000 A 
ATOM     18  C   UNL d   1     -39.720  15.565  20.576  0.00  0.00     0.002 A 
BRANCH  14  19
ATOM     19  O   UNL d   1     -41.004  13.864  20.125  0.00  0.00    -0.328 OA
ATOM     20  C   UNL d   1     -41.662  13.481  20.441  0.00  0.00     0.181 C 
ENDBRANCH  14  19
ENDBRANCH   1  13
BRANCH   2  21
ATOM     21  C   UNL d   1     -38.589  14.111  20.558  0.00  0.00     0.323 C 
ATOM     22  O   UNL d   1     -38.327  14.809  20.916  0.00  0.00    -0.257 OA
BRANCH  21  23
ATOM     23  O   UNL d   1     -38.563  13.396  20.969  0.00  0.00    -0.270 OA
BRANCH  23  24
ATOM     24  C   UNL d   1     -37.940  13.244  21.474  0.00  0.00     0.126 C 
ATOM     25  C   UNL d   1     -38.003  12.653  22.045  0.00  0.00     0.029 C 
ENDBRANCH  23  24
ENDBRANCH  21  23
ENDBRANCH   2  21
TORSDOF 5
ENDMDL
