MODEL 1
REMARK VINA RESULT:      16.8      0.000      0.000
REMARK  6 active torsions:
REMARK  status: ('A' for Active; 'I' for Inactive)
REMARK    1  A    between atoms: C_12  and  N_1 
REMARK    2  A    between atoms: C_9  and  C_23 
REMARK       I    between atoms: N_10  and  C_9 
REMARK    3  A    between atoms: C_13  and  N_10 
REMARK    4  A    between atoms: C_22  and  C_12 
REMARK    5  A    between atoms: O_21  and  C_15 
REMARK    6  A    between atoms: C_23  and  C_22 
ROOT
ATOM      1  C   UNL d   1      45.386 -15.099  44.825  0.00  0.00     0.085 C 
ENDROOT
BRANCH   1   2
ATOM      2  N   UNL d   1      45.295 -14.393  44.399  0.00  0.00    -0.249 N 
ATOM      3  C   UNL d   1      45.935 -13.874  44.353  0.00  0.00     0.208 A 
ATOM      4  N   UNL d   1      45.857 -13.164  43.929  0.00  0.00    -0.218 NA
ATOM      5  S   UNL d   1      46.647 -14.077  44.733  0.00  0.00    -0.038 SA
ATOM      6  C   UNL d   1      45.152 -12.972  43.556  0.00  0.00     0.088 A 
ATOM      7  C   UNL d   1      44.508 -13.494  43.603  0.00  0.00     0.074 A 
ATOM      8  C   UNL d   1      45.074 -12.270  43.138  0.00  0.00     0.019 A 
ATOM      9  C   UNL d   1      44.580 -14.199  44.021  0.00  0.00     0.268 A 
ATOM     10  C   UNL d   1      43.798 -13.305  43.230  0.00  0.00     0.006 A 
ATOM     11  O   UNL d   1      43.941 -14.718  44.068  0.00  0.00    -0.267 OA
ATOM     12  C   UNL d   1      43.725 -12.599  42.811  0.00  0.00     0.000 A 
ATOM     13  C   UNL d   1      44.364 -12.080  42.764  0.00  0.00     0.002 A 
ENDBRANCH   1   2
BRANCH   1  14
ATOM     14  C   UNL d   1      46.080 -15.546  44.735  0.00  0.00     0.024 C 
BRANCH  14  15
ATOM     15  C   UNL d   1      46.087 -16.347  44.954  0.00  0.00     0.064 C 
BRANCH  15  16
ATOM     16  C   UNL d   1      46.178 -16.936  44.370  0.00  0.00     0.279 C 
ATOM     17  N   UNL d   1      46.026 -17.718  44.549  0.00  0.00    -0.208 NA
ATOM     18  O   UNL d   1      46.428 -16.722  43.599  0.00  0.00    -0.265 OA
BRANCH  17  19
ATOM     19  C   UNL d   1      46.118 -18.311  43.962  0.00  0.00     0.085 A 
ATOM     20  C   UNL d   1      46.138 -18.115  43.159  0.00  0.00     0.021 A 
ATOM     21  C   UNL d   1      46.229 -18.707  42.591  0.00  0.00     0.026 A 
ATOM     22  C   UNL d   1      46.300 -19.498  42.827  0.00  0.00     0.094 A 
ATOM     23  C   UNL d   1      46.280 -19.695  43.628  0.00  0.00     0.026 A 
ATOM     24  C   UNL d   1      46.187 -19.091  44.198  0.00  0.00     0.021 A 
BRANCH  22  25
ATOM     25  O   UNL d   1      46.391 -20.095  42.265  0.00  0.00    -0.328 OA
ATOM     26  C   UNL d   1      46.646 -19.904  41.508  0.00  0.00     0.181 C 
ENDBRANCH  22  25
ENDBRANCH  17  19
ENDBRANCH  15  16
ENDBRANCH  14  15
ENDBRANCH   1  14
TORSDOF 6
ENDMDL
