MODEL 1
REMARK VINA RESULT:      97.7      0.000      0.000
REMARK  7 active torsions:
REMARK  status: ('A' for Active; 'I' for Inactive)
REMARK    1  A    between atoms: C_7  and  C_1 
REMARK    2  A    between atoms: C_10  and  C_2 
REMARK    3  A    between atoms: S_12  and  C_5 
REMARK    4  A    between atoms: C_11  and  C_6 
REMARK    5  A    between atoms: O_15  and  C_7 
REMARK    6  A    between atoms: C_21  and  S_12 
REMARK    7  A    between atoms: C_22  and  O_15 
ROOT
ATOM      1  C   UNL d   1     -47.820  31.055  35.003  0.00  0.00     0.082 A 
ATOM      2  C   UNL d   1     -48.270  31.290  34.329  0.00  0.00     0.087 A 
ATOM      3  C   UNL d   1     -48.251  29.721  34.847  0.00  0.00     0.092 A 
ATOM      4  N   UNL d   1     -48.719  30.703  33.916  0.00  0.00    -0.238 NA
ATOM      5  C   UNL d   1     -48.698  29.931  34.186  0.00  0.00     0.120 A 
ATOM      6  C   UNL d   1     -47.815  30.278  35.253  0.00  0.00     0.020 A 
ATOM      7  C   UNL d   1     -48.243  28.919  35.111  0.00  0.00     0.103 C 
ATOM      8  N   UNL d   1     -48.232  28.114  35.377  0.00  0.00    -0.191 NA
ENDROOT
BRANCH   6   9
ATOM      9  C   UNL d   1     -47.368  30.068  35.914  0.00  0.00     0.020 A 
ATOM     10  C   UNL d   1     -47.699  30.139  36.666  0.00  0.00     0.099 A 
ATOM     11  N   UNL d   1     -47.252  29.929  37.327  0.00  0.00    -0.242 NA
ATOM     12  C   UNL d   1     -46.475  29.648  37.236  0.00  0.00     0.099 A 
ATOM     13  C   UNL d   1     -46.157  29.583  36.477  0.00  0.00     0.021 A 
ATOM     14  C   UNL d   1     -46.604  29.793  35.816  0.00  0.00     0.003 A 
ENDBRANCH   6   9
BRANCH   5  15
ATOM     15  S   UNL d   1     -49.155  29.347  33.761  0.00  0.00    -0.067 SA
BRANCH  15  16
ATOM     16  C   UNL d   1     -49.938  29.515  33.521  0.00  0.00     0.037 C 
ATOM     17  C   UNL d   1     -50.440  28.911  33.306  0.00  0.00     0.007 C 
ENDBRANCH  15  16
ENDBRANCH   5  15
BRANCH   1  18
ATOM     18  C   UNL d   1     -47.371  31.643  35.415  0.00  0.00     0.302 C 
ATOM     19  O   UNL d   1     -47.671  31.918  36.136  0.00  0.00    -0.259 OA
BRANCH  18  20
ATOM     20  O   UNL d   1     -46.682  31.913  35.106  0.00  0.00    -0.271 OA
BRANCH  20  21
ATOM     21  C   UNL d   1     -46.095  32.236  35.596  0.00  0.00     0.126 C 
ATOM     22  C   UNL d   1     -45.945  33.047  35.596  0.00  0.00     0.029 C 
ENDBRANCH  20  21
ENDBRANCH  18  20
ENDBRANCH   1  18
BRANCH   2  23
ATOM     23  C   UNL d   1     -48.277  32.068  34.075  0.00  0.00     0.018 A 
ATOM     24  C   UNL d   1     -48.863  32.570  34.315  0.00  0.00     0.002 A 
ATOM     25  C   UNL d   1     -48.875  33.357  34.061  0.00  0.00     0.000 A 
ATOM     26  C   UNL d   1     -48.284  33.638  33.558  0.00  0.00     0.000 A 
ATOM     27  C   UNL d   1     -47.673  33.111  33.309  0.00  0.00     0.000 A 
ATOM     28  C   UNL d   1     -47.682  32.339  33.572  0.00  0.00     0.002 A 
ENDBRANCH   2  23
TORSDOF 7
ENDMDL
MODEL 2
REMARK VINA RESULT:      98.6      1.536      4.082
REMARK  7 active torsions:
REMARK  status: ('A' for Active; 'I' for Inactive)
REMARK    1  A    between atoms: C_7  and  C_1 
REMARK    2  A    between atoms: C_10  and  C_2 
REMARK    3  A    between atoms: S_12  and  C_5 
REMARK    4  A    between atoms: C_11  and  C_6 
REMARK    5  A    between atoms: O_15  and  C_7 
REMARK    6  A    between atoms: C_21  and  S_12 
REMARK    7  A    between atoms: C_22  and  O_15 
ROOT
ATOM      1  C   UNL d   1     -47.924  30.441  34.942  0.00  0.00     0.082 A 
ATOM      2  C   UNL d   1     -47.809  29.774  35.447  0.00  0.00     0.087 A 
ATOM      3  C   UNL d   1     -47.071  31.222  35.749  0.00  0.00     0.092 A 
ATOM      4  N   UNL d   1     -47.302  29.860  36.120  0.00  0.00    -0.238 NA
ATOM      5  C   UNL d   1     -46.945  30.583  36.254  0.00  0.00     0.120 A 
ATOM      6  C   UNL d   1     -47.557  31.153  35.097  0.00  0.00     0.020 A 
ATOM      7  C   UNL d   1     -46.693  31.962  35.904  0.00  0.00     0.103 C 
ATOM      8  N   UNL d   1     -46.316  32.705  36.058  0.00  0.00    -0.191 NA
ENDROOT
BRANCH   6   9
ATOM      9  C   UNL d   1     -47.683  31.793  34.591  0.00  0.00     0.020 A 
ATOM     10  C   UNL d   1     -48.316  32.302  34.732  0.00  0.00     0.099 A 
ATOM     11  N   UNL d   1     -48.442  32.941  34.226  0.00  0.00    -0.242 NA
ATOM     12  C   UNL d   1     -47.935  33.071  33.579  0.00  0.00     0.099 A 
ATOM     13  C   UNL d   1     -47.305  32.553  33.452  0.00  0.00     0.021 A 
ATOM     14  C   UNL d   1     -47.179  31.913  33.958  0.00  0.00     0.003 A 
ENDBRANCH   6   9
BRANCH   5  15
ATOM     15  S   UNL d   1     -46.436  30.656  36.937  0.00  0.00    -0.067 SA
BRANCH  15  16
ATOM     16  C   UNL d   1     -46.204  29.978  37.367  0.00  0.00     0.037 C 
ATOM     17  C   UNL d   1     -45.810  30.056  38.076  0.00  0.00     0.007 C 
ENDBRANCH  15  16
ENDBRANCH   5  15
BRANCH   1  18
ATOM     18  C   UNL d   1     -48.431  30.356  34.269  0.00  0.00     0.302 C 
ATOM     19  O   UNL d   1     -48.083  30.124  33.555  0.00  0.00    -0.259 OA
BRANCH  18  20
ATOM     20  O   UNL d   1     -49.217  30.498  34.338  0.00  0.00    -0.271 OA
BRANCH  20  21
ATOM     21  C   UNL d   1     -49.712  30.473  33.671  0.00  0.00     0.126 C 
ATOM     22  C   UNL d   1     -50.533  30.476  33.756  0.00  0.00     0.029 C 
ENDBRANCH  20  21
ENDBRANCH  18  20
ENDBRANCH   1  18
BRANCH   2  23
ATOM     23  C   UNL d   1     -48.176  29.059  35.295  0.00  0.00     0.018 A 
ATOM     24  C   UNL d   1     -47.944  28.609  34.665  0.00  0.00     0.002 A 
ATOM     25  C   UNL d   1     -48.312  27.885  34.506  0.00  0.00     0.000 A 
ATOM     26  C   UNL d   1     -48.921  27.615  34.993  0.00  0.00     0.000 A 
ATOM     27  C   UNL d   1     -49.160  28.088  35.651  0.00  0.00     0.000 A 
ATOM     28  C   UNL d   1     -48.784  28.799  35.788  0.00  0.00     0.002 A 
ENDBRANCH   2  23
TORSDOF 7
ENDMDL
