MODEL 1
REMARK VINA RESULT:      89.5      0.000      0.000
REMARK  4 active torsions:
REMARK  status: ('A' for Active; 'I' for Inactive)
REMARK    1  A    between atoms: C_11  and  N_2 
REMARK    2  A    between atoms: C_10  and  C_6 
REMARK    3  A    between atoms: C_16  and  C_9 
REMARK    4  A    between atoms: C_21  and  C_16 
ROOT
ATOM      1  C   UNL d   1     -55.131-101.417 -38.197  0.00  0.00     0.143 A 
ATOM      2  N   UNL d   1     -55.034-100.944 -39.458  0.00  0.00    -0.242 N 
ATOM      3  C   UNL d   1     -55.038-100.732 -38.653  0.00  0.00     0.172 A 
ATOM      4  C   UNL d   1     -55.126-101.769 -39.495  0.00  0.00     0.355 A 
ATOM      5  N   UNL d   1     -55.185-102.056 -38.719  0.00  0.00    -0.187 NA
ATOM      6  C   UNL d   1     -55.155-101.372 -37.383  0.00  0.00     0.163 A 
ATOM      7  N   UNL d   1     -54.968 -99.991 -38.281  0.00  0.00    -0.208 NA
ATOM      8  N   UNL d   1     -55.086-100.646 -37.001  0.00  0.00    -0.220 NA
ATOM      9  C   UNL d   1     -54.993 -99.956 -37.451  0.00  0.00     0.164 A 
ATOM     10  O   UNL d   1     -55.152-102.218 -40.191  0.00  0.00    -0.244 OA
ENDROOT
BRANCH   2  11
ATOM     11  C   UNL d   1     -54.955-100.434 -40.094  0.00  0.00     0.070 A 
ATOM     12  C   UNL d   1     -54.822-100.732 -40.858  0.00  0.00     0.018 A 
ATOM     13  C   UNL d   1     -54.741-100.230 -41.499  0.00  0.00     0.002 A 
ATOM     14  C   UNL d   1     -54.795 -99.419 -41.368  0.00  0.00     0.000 A 
ATOM     15  C   UNL d   1     -54.926 -99.114 -40.617  0.00  0.00     0.002 A 
ATOM     16  C   UNL d   1     -54.714 -98.901 -42.014  0.00  0.00     0.000 C 
ATOM     17  C   UNL d   1     -55.006 -99.625 -39.981  0.00  0.00     0.018 A 
ENDBRANCH   2  11
BRANCH   6  18
ATOM     18  C   UNL d   1     -55.248-102.058 -36.928  0.00  0.00     0.316 C 
ATOM     19  O   UNL d   1     -55.833-102.101 -36.345  0.00  0.00    -0.262 OA
ATOM     20  N   UNL d   1     -54.743-102.709 -37.063  0.00  0.00    -0.101 N 
ENDBRANCH   6  18
BRANCH   9  21
ATOM     21  C   UNL d   1     -54.924 -99.226 -37.071  0.00  0.00     0.039 C 
BRANCH  21  22
ATOM     22  C   UNL d   1     -55.257 -99.111 -36.321  0.00  0.00     0.003 C 
ATOM     23  C   UNL d   1     -56.061 -98.938 -36.259  0.00  0.00     0.000 C 
ATOM     24  C   UNL d   1     -54.784 -99.171 -35.655  0.00  0.00     0.000 C 
ENDBRANCH  21  22
ENDBRANCH   9  21
TORSDOF 4
ENDMDL
