MODEL 1
REMARK VINA RESULT:      -6.8      0.000      0.000
REMARK  3 active torsions:
REMARK  status: ('A' for Active; 'I' for Inactive)
REMARK    1  A    between atoms: N_3  and  C_1 
REMARK       I    between atoms: C_5  and  N_3 
REMARK    2  A    between atoms: C_14  and  C_4 
REMARK       I    between atoms: N_8  and  C_5 
REMARK    3  A    between atoms: C_11  and  N_8 
ROOT
ATOM      1  N   UNL d   1      58.243  -0.490  29.958  0.00  0.00    -0.166 NA
ATOM      2  C   UNL d   1      58.133  -0.189  29.235  0.00  0.00     0.370 C 
ATOM      3  N   UNL d   1      58.511  -0.507  28.598  0.00  0.00    -0.191 NA
ATOM      4  O   UNL d   1      57.630   0.455  29.117  0.00  0.00    -0.242 OA
ENDROOT
BRANCH   1   5
ATOM      5  C   UNL d   1      57.863  -0.169  30.595  0.00  0.00     0.199 A 
ATOM      6  N   UNL d   1      57.308  -0.543  31.042  0.00  0.00    -0.221 NA
ATOM      7  C   UNL d   1      57.067  -0.020  31.626  0.00  0.00     0.090 A 
ATOM      8  C   UNL d   1      57.491   0.680  31.521  0.00  0.00     0.058 A 
ATOM      9  S   UNL d   1      57.982   0.568  30.873  0.00  0.00    -0.046 SA
BRANCH   7  10
ATOM     10  C   UNL d   1      56.515  -0.166  32.201  0.00  0.00     0.018 A 
ATOM     11  C   UNL d   1      56.347  -0.942  32.444  0.00  0.00     0.002 A 
ATOM     12  C   UNL d   1      55.784  -1.088  33.029  0.00  0.00     0.000 A 
ATOM     13  C   UNL d   1      55.387  -0.471  33.376  0.00  0.00     0.000 A 
ATOM     14  C   UNL d   1      55.545   0.312  33.143  0.00  0.00     0.000 A 
ATOM     15  C   UNL d   1      56.113   0.469  32.551  0.00  0.00     0.002 A 
ENDBRANCH   7  10
ENDBRANCH   1   5
BRANCH   3  16
ATOM     16  C   UNL d   1      59.021  -1.156  28.700  0.00  0.00     0.087 A 
ATOM     17  C   UNL d   1      58.739  -1.894  28.626  0.00  0.00     0.032 A 
ATOM     18  C   UNL d   1      59.219  -2.532  28.721  0.00  0.00     0.070 A 
ATOM     19 CL   UNL d   1      58.914  -3.311  28.641  0.00  0.00    -0.081 Cl
ATOM     20  C   UNL d   1      59.989  -2.443  28.892  0.00  0.00     0.068 A 
ATOM     21  C   UNL d   1      60.309  -1.675  28.975  0.00  0.00     0.014 A 
ATOM     22 CL   UNL d   1      60.474  -3.088  28.988  0.00  0.00    -0.082 Cl
ATOM     23  C   UNL d   1      59.829  -1.037  28.880  0.00  0.00     0.020 A 
ENDBRANCH   3  16
TORSDOF 3
ENDMDL
MODEL 2
REMARK VINA RESULT:      -5.5      0.484      1.036
REMARK  3 active torsions:
REMARK  status: ('A' for Active; 'I' for Inactive)
REMARK    1  A    between atoms: N_3  and  C_1 
REMARK       I    between atoms: C_5  and  N_3 
REMARK    2  A    between atoms: C_14  and  C_4 
REMARK       I    between atoms: N_8  and  C_5 
REMARK    3  A    between atoms: C_11  and  N_8 
ROOT
ATOM      1  N   UNL d   1      58.325  -0.681  29.895  0.00  0.00    -0.166 NA
ATOM      2  C   UNL d   1      58.640  -0.249  29.313  0.00  0.00     0.370 C 
ATOM      3  N   UNL d   1      59.095  -0.597  28.746  0.00  0.00    -0.191 NA
ATOM      4  O   UNL d   1      58.511   0.566  29.274  0.00  0.00    -0.242 OA
ENDROOT
BRANCH   1   5
ATOM      5  C   UNL d   1      57.870  -0.329  30.463  0.00  0.00     0.199 A 
ATOM      6  N   UNL d   1      57.483  -0.715  31.054  0.00  0.00    -0.221 NA
ATOM      7  C   UNL d   1      57.091  -0.152  31.502  0.00  0.00     0.090 A 
ATOM      8  C   UNL d   1      57.250   0.586  31.167  0.00  0.00     0.058 A 
ATOM      9  S   UNL d   1      57.738   0.454  30.520  0.00  0.00    -0.046 SA
BRANCH   7  10
ATOM     10  C   UNL d   1      56.631  -0.294  32.154  0.00  0.00     0.018 A 
ATOM     11  C   UNL d   1      56.564   0.271  32.760  0.00  0.00     0.002 A 
ATOM     12  C   UNL d   1      56.095   0.124  33.423  0.00  0.00     0.000 A 
ATOM     13  C   UNL d   1      55.692  -0.578  33.491  0.00  0.00     0.000 A 
ATOM     14  C   UNL d   1      55.750  -1.152  32.892  0.00  0.00     0.000 A 
ATOM     15  C   UNL d   1      56.222  -1.013  32.217  0.00  0.00     0.002 A 
ENDBRANCH   7  10
ENDBRANCH   1   5
BRANCH   3  16
ATOM     16  C   UNL d   1      59.234  -1.416  28.771  0.00  0.00     0.087 A 
ATOM     17  C   UNL d   1      59.909  -1.691  29.084  0.00  0.00     0.032 A 
ATOM     18  C   UNL d   1      60.060  -2.480  29.116  0.00  0.00     0.070 A 
ATOM     19 CL   UNL d   1      60.776  -2.765  29.450  0.00  0.00    -0.081 Cl
ATOM     20  C   UNL d   1      59.538  -3.008  28.834  0.00  0.00     0.068 A 
ATOM     21  C   UNL d   1      58.820  -2.741  28.499  0.00  0.00     0.014 A 
ATOM     22 CL   UNL d   1      59.690  -3.806  28.866  0.00  0.00    -0.082 Cl
ATOM     23  C   UNL d   1      58.669  -1.952  28.467  0.00  0.00     0.020 A 
ENDBRANCH   3  16
TORSDOF 3
ENDMDL
MODEL 3
REMARK VINA RESULT:      -4.8      2.039      4.608
REMARK  3 active torsions:
REMARK  status: ('A' for Active; 'I' for Inactive)
REMARK    1  A    between atoms: N_3  and  C_1 
REMARK       I    between atoms: C_5  and  N_3 
REMARK    2  A    between atoms: C_14  and  C_4 
REMARK       I    between atoms: N_8  and  C_5 
REMARK    3  A    between atoms: C_11  and  N_8 
ROOT
ATOM      1  N   UNL d   1      58.101  -0.412  30.305  0.00  0.00    -0.166 NA
ATOM      2  C   UNL d   1      57.718   0.222  30.030  0.00  0.00     0.370 C 
ATOM      3  N   UNL d   1      57.272   0.677  30.524  0.00  0.00    -0.191 NA
ATOM      4  O   UNL d   1      57.765   0.432  29.232  0.00  0.00    -0.242 OA
ENDROOT
BRANCH   1   5
ATOM      5  C   UNL d   1      58.546  -0.866  29.807  0.00  0.00     0.199 A 
ATOM      6  N   UNL d   1      58.521  -1.670  29.761  0.00  0.00    -0.221 NA
ATOM      7  C   UNL d   1      59.059  -1.903  29.188  0.00  0.00     0.090 A 
ATOM      8  C   UNL d   1      59.411  -1.220  28.887  0.00  0.00     0.058 A 
ATOM      9  S   UNL d   1      59.078  -0.584  29.285  0.00  0.00    -0.046 SA
BRANCH   7  10
ATOM     10  C   UNL d   1      59.215  -2.664  28.960  0.00  0.00     0.018 A 
ATOM     11  C   UNL d   1      59.987  -2.969  28.991  0.00  0.00     0.002 A 
ATOM     12  C   UNL d   1      60.144  -3.745  28.758  0.00  0.00     0.000 A 
ATOM     13  C   UNL d   1      59.542  -4.221  28.494  0.00  0.00     0.000 A 
ATOM     14  C   UNL d   1      58.764  -3.930  28.457  0.00  0.00     0.000 A 
ATOM     15  C   UNL d   1      58.595  -3.146  28.691  0.00  0.00     0.002 A 
ENDBRANCH   7  10
ENDBRANCH   1   5
BRANCH   3  16
ATOM     16  C   UNL d   1      57.214   0.480  31.330  0.00  0.00     0.087 A 
ATOM     17  C   UNL d   1      56.572   0.096  31.596  0.00  0.00     0.032 A 
ATOM     18  C   UNL d   1      56.501  -0.102  32.372  0.00  0.00     0.070 A 
ATOM     19 CL   UNL d   1      55.818  -0.508  32.648  0.00  0.00    -0.081 Cl
ATOM     20  C   UNL d   1      57.069   0.080  32.895  0.00  0.00     0.068 A 
ATOM     21  C   UNL d   1      57.754   0.484  32.638  0.00  0.00     0.014 A 
ATOM     22 CL   UNL d   1      56.997  -0.120  33.679  0.00  0.00    -0.082 Cl
ATOM     23  C   UNL d   1      57.826   0.682  31.862  0.00  0.00     0.020 A 
ENDBRANCH   3  16
TORSDOF 3
ENDMDL
