MODEL 1
REMARK VINA RESULT:      -3.0      0.000      0.000
REMARK  3 active torsions:
REMARK  status: ('A' for Active; 'I' for Inactive)
REMARK    1  A    between atoms: C_2  and  O_1 
REMARK    2  A    between atoms: C_5  and  O_1 
REMARK    3  A    between atoms: C_10  and  C_5 
ROOT
ATOM      1  O   UNL d   1      32.517  22.879 -19.412  0.00  0.00    -0.305 OA
ENDROOT
BRANCH   1   2
ATOM      2  C   UNL d   1      32.573  23.001 -20.234  0.00  0.00     0.100 A 
ATOM      3  C   UNL d   1      32.084  23.561 -20.619  0.00  0.00     0.026 A 
ATOM      4  C   UNL d   1      32.147  23.673 -21.434  0.00  0.00     0.023 A 
ATOM      5  C   UNL d   1      32.694  23.233 -21.868  0.00  0.00     0.103 A 
ATOM      6  C   UNL d   1      33.195  22.659 -21.473  0.00  0.00     0.023 A 
ATOM      7  N   UNL d   1      32.765  23.342 -22.700  0.00  0.00    -0.148 N 
ATOM      8  C   UNL d   1      33.119  22.561 -20.668  0.00  0.00     0.026 A 
ENDBRANCH   1   2
BRANCH   1   9
ATOM      9  C   UNL d   1      33.038  23.267 -18.908  0.00  0.00     0.122 C 
BRANCH   9  10
ATOM     10  C   UNL d   1      32.963  23.133 -18.080  0.00  0.00     0.025 A 
ATOM     11  C   UNL d   1      33.240  22.414 -17.754  0.00  0.00     0.002 A 
ATOM     12  C   UNL d   1      33.171  22.273 -16.944  0.00  0.00     0.000 A 
ATOM     13  C   UNL d   1      32.817  22.863 -16.450  0.00  0.00     0.000 A 
ATOM     14  C   UNL d   1      32.550  23.562 -16.783  0.00  0.00     0.000 A 
ATOM     15  C   UNL d   1      32.619  23.702 -17.592  0.00  0.00     0.002 A 
ENDBRANCH   9  10
ENDBRANCH   1   9
TORSDOF 3
ENDMDL
MODEL 2
REMARK VINA RESULT:      -2.9      2.704      4.696
REMARK  3 active torsions:
REMARK  status: ('A' for Active; 'I' for Inactive)
REMARK    1  A    between atoms: C_2  and  O_1 
REMARK    2  A    between atoms: C_5  and  O_1 
REMARK    3  A    between atoms: C_10  and  C_5 
ROOT
ATOM      1  O   UNL d   1      32.534  20.935 -21.507  0.00  0.00    -0.305 OA
ENDROOT
BRANCH   1   2
ATOM      2  C   UNL d   1      32.547  21.608 -21.016  0.00  0.00     0.100 A 
ATOM      3  C   UNL d   1      32.924  21.587 -20.269  0.00  0.00     0.026 A 
ATOM      4  C   UNL d   1      32.931  22.260 -19.792  0.00  0.00     0.023 A 
ATOM      5  C   UNL d   1      32.565  22.952 -20.051  0.00  0.00     0.103 A 
ATOM      6  C   UNL d   1      32.178  22.973 -20.817  0.00  0.00     0.023 A 
ATOM      7  N   UNL d   1      32.567  23.643 -19.570  0.00  0.00    -0.148 N 
ATOM      8  C   UNL d   1      32.181  22.300 -21.275  0.00  0.00     0.026 A 
ENDBRANCH   1   2
BRANCH   1   9
ATOM      9  C   UNL d   1      33.241  20.622 -21.786  0.00  0.00     0.122 C 
BRANCH   9  10
ATOM     10  C   UNL d   1      33.204  19.956 -22.299  0.00  0.00     0.025 A 
ATOM     11  C   UNL d   1      33.156  20.077 -23.126  0.00  0.00     0.002 A 
ATOM     12  C   UNL d   1      33.120  19.431 -23.637  0.00  0.00     0.000 A 
ATOM     13  C   UNL d   1      33.132  18.647 -23.315  0.00  0.00     0.000 A 
ATOM     14  C   UNL d   1      33.180  18.543 -22.505  0.00  0.00     0.000 A 
ATOM     15  C   UNL d   1      33.216  19.190 -21.994  0.00  0.00     0.002 A 
ENDBRANCH   9  10
ENDBRANCH   1   9
TORSDOF 3
ENDMDL
MODEL 3
REMARK VINA RESULT:      -2.9      3.110      5.048
REMARK  3 active torsions:
REMARK  status: ('A' for Active; 'I' for Inactive)
REMARK    1  A    between atoms: C_2  and  O_1 
REMARK    2  A    between atoms: C_5  and  O_1 
REMARK    3  A    between atoms: C_10  and  C_5 
ROOT
ATOM      1  O   UNL d   1      32.606  20.387 -21.721  0.00  0.00    -0.305 OA
ENDROOT
BRANCH   1   2
ATOM      2  C   UNL d   1      32.656  21.054 -21.224  0.00  0.00     0.100 A 
ATOM      3  C   UNL d   1      32.207  21.742 -21.382  0.00  0.00     0.026 A 
ATOM      4  C   UNL d   1      32.264  22.397 -20.883  0.00  0.00     0.023 A 
ATOM      5  C   UNL d   1      32.765  22.372 -20.229  0.00  0.00     0.103 A 
ATOM      6  C   UNL d   1      33.227  21.665 -20.067  0.00  0.00     0.023 A 
ATOM      7  N   UNL d   1      32.831  23.035 -19.714  0.00  0.00    -0.148 N 
ATOM      8  C   UNL d   1      33.157  21.029 -20.570  0.00  0.00     0.026 A 
ENDBRANCH   1   2
BRANCH   1   9
ATOM      9  C   UNL d   1      33.241  20.194 -22.207  0.00  0.00     0.122 C 
BRANCH   9  10
ATOM     10  C   UNL d   1      33.163  19.528 -22.714  0.00  0.00     0.025 A 
ATOM     11  C   UNL d   1      33.222  18.757 -22.393  0.00  0.00     0.002 A 
ATOM     12  C   UNL d   1      33.147  18.098 -22.884  0.00  0.00     0.000 A 
ATOM     13  C   UNL d   1      33.009  18.212 -23.712  0.00  0.00     0.000 A 
ATOM     14  C   UNL d   1      32.953  18.971 -24.013  0.00  0.00     0.000 A 
ATOM     15  C   UNL d   1      33.029  19.629 -23.522  0.00  0.00     0.002 A 
ENDBRANCH   9  10
ENDBRANCH   1   9
TORSDOF 3
ENDMDL
MODEL 4
REMARK VINA RESULT:      -2.7      4.192      5.474
REMARK  3 active torsions:
REMARK  status: ('A' for Active; 'I' for Inactive)
REMARK    1  A    between atoms: C_2  and  O_1 
REMARK    2  A    between atoms: C_5  and  O_1 
REMARK    3  A    between atoms: C_10  and  C_5 
ROOT
ATOM      1  O   UNL d   1      32.743  19.465 -22.894  0.00  0.00    -0.305 OA
ENDROOT
BRANCH   1   2
ATOM      2  C   UNL d   1      32.773  18.657 -23.095  0.00  0.00     0.100 A 
ATOM      3  C   UNL d   1      33.218  18.116 -22.636  0.00  0.00     0.026 A 
ATOM      4  C   UNL d   1      33.241  17.318 -22.844  0.00  0.00     0.023 A 
ATOM      5  C   UNL d   1      32.825  17.054 -23.505  0.00  0.00     0.103 A 
ATOM      6  C   UNL d   1      32.368  17.609 -23.976  0.00  0.00     0.023 A 
ATOM      7  N   UNL d   1      32.842  16.242 -23.725  0.00  0.00    -0.148 N 
ATOM      8  C   UNL d   1      32.357  18.392 -23.756  0.00  0.00     0.026 A 
ENDBRANCH   1   2
BRANCH   1   9
ATOM      9  C   UNL d   1      33.089  19.723 -22.194  0.00  0.00     0.122 C 
BRANCH   9  10
ATOM     10  C   UNL d   1      32.969  20.523 -21.964  0.00  0.00     0.025 A 
ATOM     11  C   UNL d   1      32.569  20.689 -21.248  0.00  0.00     0.002 A 
ATOM     12  C   UNL d   1      32.446  21.470 -21.015  0.00  0.00     0.000 A 
ATOM     13  C   UNL d   1      32.729  22.099 -21.507  0.00  0.00     0.000 A 
ATOM     14  C   UNL d   1      33.118  21.923 -22.205  0.00  0.00     0.000 A 
ATOM     15  C   UNL d   1      33.241  21.141 -22.438  0.00  0.00     0.002 A 
ENDBRANCH   9  10
ENDBRANCH   1   9
TORSDOF 3
ENDMDL
MODEL 5
REMARK VINA RESULT:      -2.6      6.921      8.372
REMARK  3 active torsions:
REMARK  status: ('A' for Active; 'I' for Inactive)
REMARK    1  A    between atoms: C_2  and  O_1 
REMARK    2  A    between atoms: C_5  and  O_1 
REMARK    3  A    between atoms: C_10  and  C_5 
ROOT
ATOM      1  O   UNL d   1      30.682  17.302 -24.430  0.00  0.00    -0.305 OA
ENDROOT
BRANCH   1   2
ATOM      2  C   UNL d   1      30.026  16.832 -24.223  0.00  0.00     0.100 A 
ATOM      3  C   UNL d   1      30.124  16.030 -24.005  0.00  0.00     0.026 A 
ATOM      4  C   UNL d   1      29.467  15.574 -23.802  0.00  0.00     0.023 A 
ATOM      5  C   UNL d   1      28.713  15.910 -23.814  0.00  0.00     0.103 A 
ATOM      6  C   UNL d   1      28.613  16.734 -24.038  0.00  0.00     0.023 A 
ATOM      7  N   UNL d   1      28.038  15.453 -23.608  0.00  0.00    -0.148 N 
ATOM      8  C   UNL d   1      29.273  17.168 -24.235  0.00  0.00     0.026 A 
ENDBRANCH   1   2
BRANCH   1   9
ATOM      9  C   UNL d   1      31.388  17.219 -24.016  0.00  0.00     0.122 C 
BRANCH   9  10
ATOM     10  C   UNL d   1      32.000  17.778 -24.160  0.00  0.00     0.025 A 
ATOM     11  C   UNL d   1      32.333  18.196 -23.516  0.00  0.00     0.002 A 
ATOM     12  C   UNL d   1      32.933  18.747 -23.647  0.00  0.00     0.000 A 
ATOM     13  C   UNL d   1      33.205  18.883 -24.438  0.00  0.00     0.000 A 
ATOM     14  C   UNL d   1      32.870  18.467 -25.058  0.00  0.00     0.000 A 
ATOM     15  C   UNL d   1      32.270  17.916 -24.926  0.00  0.00     0.002 A 
ENDBRANCH   9  10
ENDBRANCH   1   9
TORSDOF 3
ENDMDL
MODEL 6
REMARK VINA RESULT:      -2.6      3.620      5.563
REMARK  3 active torsions:
REMARK  status: ('A' for Active; 'I' for Inactive)
REMARK    1  A    between atoms: C_2  and  O_1 
REMARK    2  A    between atoms: C_5  and  O_1 
REMARK    3  A    between atoms: C_10  and  C_5 
ROOT
ATOM      1  O   UNL d   1      32.644  19.913 -22.216  0.00  0.00    -0.305 OA
ENDROOT
BRANCH   1   2
ATOM      2  C   UNL d   1      32.793  20.617 -21.797  0.00  0.00     0.100 A 
ATOM      3  C   UNL d   1      32.880  21.346 -22.198  0.00  0.00     0.026 A 
ATOM      4  C   UNL d   1      33.027  22.037 -21.773  0.00  0.00     0.023 A 
ATOM      5  C   UNL d   1      33.090  22.009 -20.951  0.00  0.00     0.103 A 
ATOM      6  C   UNL d   1      33.001  21.260 -20.538  0.00  0.00     0.023 A 
ATOM      7  N   UNL d   1      33.240  22.708 -20.509  0.00  0.00    -0.148 N 
ATOM      8  C   UNL d   1      32.856  20.588 -20.975  0.00  0.00     0.026 A 
ENDBRANCH   1   2
BRANCH   1   9
ATOM      9  C   UNL d   1      33.241  19.577 -22.671  0.00  0.00     0.122 C 
BRANCH   9  10
ATOM     10  C   UNL d   1      33.066  18.870 -23.094  0.00  0.00     0.025 A 
ATOM     11  C   UNL d   1      32.766  18.922 -23.873  0.00  0.00     0.002 A 
ATOM     12  C   UNL d   1      32.592  18.235 -24.295  0.00  0.00     0.000 A 
ATOM     13  C   UNL d   1      32.721  17.481 -23.931  0.00  0.00     0.000 A 
ATOM     14  C   UNL d   1      33.016  17.445 -23.168  0.00  0.00     0.000 A 
ATOM     15  C   UNL d   1      33.189  18.132 -22.746  0.00  0.00     0.002 A 
ENDBRANCH   9  10
ENDBRANCH   1   9
TORSDOF 3
ENDMDL
MODEL 7
REMARK VINA RESULT:      -2.3      7.205      8.459
REMARK  3 active torsions:
REMARK  status: ('A' for Active; 'I' for Inactive)
REMARK    1  A    between atoms: C_2  and  O_1 
REMARK    2  A    between atoms: C_5  and  O_1 
REMARK    3  A    between atoms: C_10  and  C_5 
ROOT
ATOM      1  O   UNL d   1      30.689  16.869 -24.262  0.00  0.00    -0.305 OA
ENDROOT
BRANCH   1   2
ATOM      2  C   UNL d   1      31.320  17.402 -24.373  0.00  0.00     0.100 A 
ATOM      3  C   UNL d   1      31.306  17.960 -24.996  0.00  0.00     0.026 A 
ATOM      4  C   UNL d   1      31.937  18.482 -25.097  0.00  0.00     0.023 A 
ATOM      5  C   UNL d   1      32.580  18.454 -24.581  0.00  0.00     0.103 A 
ATOM      6  C   UNL d   1      32.594  17.881 -23.941  0.00  0.00     0.023 A 
ATOM      7  N   UNL d   1      33.228  18.983 -24.676  0.00  0.00    -0.148 N 
ATOM      8  C   UNL d   1      31.963  17.373 -23.858  0.00  0.00     0.026 A 
ENDBRANCH   1   2
BRANCH   1   9
ATOM      9  C   UNL d   1      29.945  17.053 -24.560  0.00  0.00     0.122 C 
BRANCH   9  10
ATOM     10  C   UNL d   1      29.285  16.614 -24.278  0.00  0.00     0.025 A 
ATOM     11  C   UNL d   1      28.812  16.932 -23.665  0.00  0.00     0.002 A 
ATOM     12  C   UNL d   1      28.163  16.508 -23.382  0.00  0.00     0.000 A 
ATOM     13  C   UNL d   1      27.983  15.751 -23.718  0.00  0.00     0.000 A 
ATOM     14  C   UNL d   1      28.455  15.453 -24.317  0.00  0.00     0.000 A 
ATOM     15  C   UNL d   1      29.103  15.876 -24.600  0.00  0.00     0.002 A 
ENDBRANCH   9  10
ENDBRANCH   1   9
TORSDOF 3
ENDMDL
MODEL 8
REMARK VINA RESULT:      -2.3      2.857      3.946
REMARK  3 active torsions:
REMARK  status: ('A' for Active; 'I' for Inactive)
REMARK    1  A    between atoms: C_2  and  O_1 
REMARK    2  A    between atoms: C_5  and  O_1 
REMARK    3  A    between atoms: C_10  and  C_5 
ROOT
ATOM      1  O   UNL d   1      33.080  20.974 -22.097  0.00  0.00    -0.305 OA
ENDROOT
BRANCH   1   2
ATOM      2  C   UNL d   1      33.120  20.222 -22.455  0.00  0.00     0.100 A 
ATOM      3  C   UNL d   1      33.164  20.145 -23.288  0.00  0.00     0.026 A 
ATOM      4  C   UNL d   1      33.203  19.397 -23.632  0.00  0.00     0.023 A 
ATOM      5  C   UNL d   1      33.198  18.724 -23.154  0.00  0.00     0.103 A 
ATOM      6  C   UNL d   1      33.153  18.803 -22.300  0.00  0.00     0.023 A 
ATOM      7  N   UNL d   1      33.238  17.957 -23.497  0.00  0.00    -0.148 N 
ATOM      8  C   UNL d   1      33.115  19.550 -21.978  0.00  0.00     0.026 A 
ENDBRANCH   1   2
BRANCH   1   9
ATOM      9  C   UNL d   1      32.879  21.033 -21.301  0.00  0.00     0.122 C 
BRANCH   9  10
ATOM     10  C   UNL d   1      32.762  21.802 -20.979  0.00  0.00     0.025 A 
ATOM     11  C   UNL d   1      33.072  21.982 -20.223  0.00  0.00     0.002 A 
ATOM     12  C   UNL d   1      32.961  22.733 -19.900  0.00  0.00     0.000 A 
ATOM     13  C   UNL d   1      32.532  23.315 -20.341  0.00  0.00     0.000 A 
ATOM     14  C   UNL d   1      32.234  23.125 -21.079  0.00  0.00     0.000 A 
ATOM     15  C   UNL d   1      32.345  22.374 -21.402  0.00  0.00     0.002 A 
ENDBRANCH   9  10
ENDBRANCH   1   9
TORSDOF 3
ENDMDL
MODEL 9
REMARK VINA RESULT:      -1.2      1.875      4.009
REMARK  3 active torsions:
REMARK  status: ('A' for Active; 'I' for Inactive)
REMARK    1  A    between atoms: C_2  and  O_1 
REMARK    2  A    between atoms: C_5  and  O_1 
REMARK    3  A    between atoms: C_10  and  C_5 
ROOT
ATOM      1  O   UNL d   1      32.384  22.972 -19.025  0.00  0.00    -0.305 OA
ENDROOT
BRANCH   1   2
ATOM      2  C   UNL d   1      32.533  23.067 -18.211  0.00  0.00     0.100 A 
ATOM      3  C   UNL d   1      33.102  23.617 -17.939  0.00  0.00     0.026 A 
ATOM      4  C   UNL d   1      33.241  23.702 -17.131  0.00  0.00     0.023 A 
ATOM      5  C   UNL d   1      32.818  23.245 -16.590  0.00  0.00     0.103 A 
ATOM      6  C   UNL d   1      32.234  22.680 -16.869  0.00  0.00     0.023 A 
ATOM      7  N   UNL d   1      32.954  23.325 -15.764  0.00  0.00    -0.148 N 
ATOM      8  C   UNL d   1      32.110  22.609 -17.670  0.00  0.00     0.026 A 
ENDBRANCH   1   2
BRANCH   1   9
ATOM      9  C   UNL d   1      32.874  23.340 -19.573  0.00  0.00     0.122 C 
BRANCH   9  10
ATOM     10  C   UNL d   1      32.785  23.135 -20.384  0.00  0.00     0.025 A 
ATOM     11  C   UNL d   1      33.205  22.479 -20.690  0.00  0.00     0.002 A 
ATOM     12  C   UNL d   1      33.125  22.271 -21.484  0.00  0.00     0.000 A 
ATOM     13  C   UNL d   1      32.614  22.727 -21.983  0.00  0.00     0.000 A 
ATOM     14  C   UNL d   1      32.209  23.366 -21.670  0.00  0.00     0.000 A 
ATOM     15  C   UNL d   1      32.290  23.574 -20.876  0.00  0.00     0.002 A 
ENDBRANCH   9  10
ENDBRANCH   1   9
TORSDOF 3
ENDMDL
