MODEL 1
REMARK VINA RESULT:      61.7      0.000      0.000
REMARK  11 active torsions:
REMARK  status: ('A' for Active; 'I' for Inactive)
REMARK    1  A    between atoms: C_14  and  C_3 
REMARK    2  A    between atoms: N_15  and  C_6 
REMARK    3  A    between atoms: N_12  and  C_19 
REMARK    4  A    between atoms: N_13  and  C_20 
REMARK    5  A    between atoms: N_16  and  C_14 
REMARK    6  A    between atoms: C_28  and  N_15 
REMARK    7  A    between atoms: C_23  and  N_16 
REMARK    8  A    between atoms: C_19  and  C_21 
REMARK    9  A    between atoms: C_20  and  C_22 
REMARK   10  A    between atoms: C_21  and  C_23 
REMARK   11  A    between atoms: C_22  and  C_28 
ROOT
ATOM      1  N   UNL d   1      14.732  18.065  -4.699  0.00  0.00    -0.258 N 
ATOM      2  C   UNL d   1      15.010  17.629  -4.045  0.00  0.00     0.270 A 
ATOM      3  C   UNL d   1      14.774  16.859  -3.933  0.00  0.00     0.111 A 
ATOM      4  N   UNL d   1      13.983  16.919  -5.105  0.00  0.00    -0.209 NA
ATOM      5  C   UNL d   1      14.215  17.708  -5.233  0.00  0.00     0.152 A 
ATOM      6  C   UNL d   1      14.256  16.501  -4.467  0.00  0.00     0.170 A 
ATOM      7  C   UNL d   1      14.968  18.829  -4.807  0.00  0.00     0.084 A 
ATOM      8  C   UNL d   1      13.941  18.120  -5.868  0.00  0.00     0.038 A 
ATOM      9  C   UNL d   1      14.691  19.261  -5.459  0.00  0.00     0.018 A 
ATOM     10  C   UNL d   1      14.173  18.904  -5.993  0.00  0.00     0.005 A 
ATOM     11  O   UNL d   1      15.535  17.991  -3.503  0.00  0.00    -0.266 OA
ATOM     12  C   UNL d   1      14.926  20.042  -5.578  0.00  0.00     0.002 C 
ENDROOT
BRANCH   3  13
ATOM     13  C   UNL d   1      15.051  16.432  -3.285  0.00  0.00     0.107 C 
BRANCH  13  14
ATOM     14  N   UNL d   1      14.647  16.478  -2.553  0.00  0.00    -0.242 NA
BRANCH  14  15
ATOM     15  C   UNL d   1      15.072  16.462  -1.848  0.00  0.00     0.101 C 
BRANCH  15  16
ATOM     16  C   UNL d   1      14.850  15.949  -1.249  0.00  0.00     0.040 C 
BRANCH  16  17
ATOM     17  C   UNL d   1      15.428  15.483  -0.849  0.00  0.00     0.082 C 
BRANCH  17  18
ATOM     18  N   UNL d   1      15.240  14.735  -0.573  0.00  0.00    -0.299 N 
ATOM     19  C   UNL d   1      14.468  14.543  -0.404  0.00  0.00     0.107 A 
ATOM     20  C   UNL d   1      14.275  13.779  -0.122  0.00  0.00     0.142 A 
ATOM     21  O   UNL d   1      14.860  13.223  -0.016  0.00  0.00    -0.300 OA
ATOM     22  C   UNL d   1      15.658  13.419  -0.191  0.00  0.00     0.142 A 
ATOM     23  C   UNL d   1      15.847  14.172  -0.468  0.00  0.00     0.107 A 
ENDBRANCH  17  18
ENDBRANCH  16  17
ENDBRANCH  15  16
ENDBRANCH  14  15
ENDBRANCH  13  14
ENDBRANCH   3  13
BRANCH   6  24
ATOM     24  N   UNL d   1      14.024  15.723  -4.345  0.00  0.00    -0.225 NA
BRANCH  24  25
ATOM     25  C   UNL d   1      13.729  15.272  -4.993  0.00  0.00     0.102 C 
BRANCH  25  26
ATOM     26  C   UNL d   1      13.541  14.481  -4.883  0.00  0.00     0.040 C 
BRANCH  26  27
ATOM     27  C   UNL d   1      13.488  14.172  -4.100  0.00  0.00     0.082 C 
BRANCH  27  28
ATOM     28  N   UNL d   1      13.300  13.372  -4.000  0.00  0.00    -0.299 N 
ATOM     29  C   UNL d   1      13.170  12.906  -4.676  0.00  0.00     0.107 A 
ATOM     30  C   UNL d   1      12.982  12.111  -4.610  0.00  0.00     0.142 A 
ATOM     31  O   UNL d   1      12.923  11.779  -3.851  0.00  0.00    -0.300 OA
ATOM     32  C   UNL d   1      13.052  12.242  -3.180  0.00  0.00     0.142 A 
ATOM     33  C   UNL d   1      13.240  13.036  -3.268  0.00  0.00     0.107 A 
ENDBRANCH  27  28
ENDBRANCH  26  27
ENDBRANCH  25  26
ENDBRANCH  24  25
ENDBRANCH   6  24
TORSDOF 11
ENDMDL
MODEL 2
REMARK VINA RESULT:      61.9      1.361      5.305
REMARK  11 active torsions:
REMARK  status: ('A' for Active; 'I' for Inactive)
REMARK    1  A    between atoms: C_14  and  C_3 
REMARK    2  A    between atoms: N_15  and  C_6 
REMARK    3  A    between atoms: N_12  and  C_19 
REMARK    4  A    between atoms: N_13  and  C_20 
REMARK    5  A    between atoms: N_16  and  C_14 
REMARK    6  A    between atoms: C_28  and  N_15 
REMARK    7  A    between atoms: C_23  and  N_16 
REMARK    8  A    between atoms: C_19  and  C_21 
REMARK    9  A    between atoms: C_20  and  C_22 
REMARK   10  A    between atoms: C_21  and  C_23 
REMARK   11  A    between atoms: C_22  and  C_28 
ROOT
ATOM      1  N   UNL d   1      13.400  13.643  -4.382  0.00  0.00    -0.258 N 
ATOM      2  C   UNL d   1      13.504  14.448  -4.575  0.00  0.00     0.270 A 
ATOM      3  C   UNL d   1      13.759  14.977  -4.013  0.00  0.00     0.111 A 
ATOM      4  N   UNL d   1      13.819  13.940  -3.050  0.00  0.00    -0.209 NA
ATOM      5  C   UNL d   1      13.559  13.387  -3.614  0.00  0.00     0.152 A 
ATOM      6  C   UNL d   1      13.918  14.721  -3.245  0.00  0.00     0.170 A 
ATOM      7  C   UNL d   1      13.146  13.120  -4.943  0.00  0.00     0.084 A 
ATOM      8  C   UNL d   1      13.461  12.613  -3.418  0.00  0.00     0.038 A 
ATOM      9  C   UNL d   1      13.043  12.320  -4.749  0.00  0.00     0.018 A 
ATOM     10  C   UNL d   1      13.202  12.064  -3.981  0.00  0.00     0.005 A 
ATOM     11  O   UNL d   1      13.342  14.707  -5.355  0.00  0.00    -0.266 OA
ATOM     12  C   UNL d   1      12.784  11.780  -5.314  0.00  0.00     0.002 C 
ENDROOT
BRANCH   3  13
ATOM     13  C   UNL d   1      13.860  15.770  -4.209  0.00  0.00     0.107 C 
BRANCH  13  14
ATOM     14  N   UNL d   1      14.476  15.994  -4.730  0.00  0.00    -0.242 NA
BRANCH  14  15
ATOM     15  C   UNL d   1      14.292  16.322  -5.464  0.00  0.00     0.101 C 
BRANCH  15  16
ATOM     16  C   UNL d   1      13.962  17.071  -5.505  0.00  0.00     0.040 C 
BRANCH  16  17
ATOM     17  C   UNL d   1      14.455  17.752  -5.571  0.00  0.00     0.082 C 
BRANCH  17  18
ATOM     18  N   UNL d   1      14.145  18.463  -5.834  0.00  0.00    -0.299 N 
ATOM     19  C   UNL d   1      13.373  18.506  -6.087  0.00  0.00     0.107 A 
ATOM     20  C   UNL d   1      13.057  19.233  -6.356  0.00  0.00     0.142 A 
ATOM     21  O   UNL d   1      13.520  19.901  -6.365  0.00  0.00    -0.300 OA
ATOM     22  C   UNL d   1      14.318  19.860  -6.104  0.00  0.00     0.142 A 
ATOM     23  C   UNL d   1      14.629  19.143  -5.839  0.00  0.00     0.107 A 
ENDBRANCH  17  18
ENDBRANCH  16  17
ENDBRANCH  15  16
ENDBRANCH  14  15
ENDBRANCH  13  14
ENDBRANCH   3  13
BRANCH   6  24
ATOM     24  N   UNL d   1      14.176  15.263  -2.684  0.00  0.00    -0.225 NA
BRANCH  24  25
ATOM     25  C   UNL d   1      14.378  14.995  -1.910  0.00  0.00     0.102 C 
BRANCH  25  26
ATOM     26  C   UNL d   1      14.479  14.191  -1.775  0.00  0.00     0.040 C 
BRANCH  26  27
ATOM     27  C   UNL d   1      15.057  13.934  -1.217  0.00  0.00     0.082 C 
BRANCH  27  28
ATOM     28  N   UNL d   1      14.936  13.215  -0.823  0.00  0.00    -0.299 N 
ATOM     29  C   UNL d   1      14.221  13.100  -0.415  0.00  0.00     0.107 A 
ATOM     30  C   UNL d   1      14.072  12.400  -0.015  0.00  0.00     0.142 A 
ATOM     31  O   UNL d   1      14.652  11.806  -0.027  0.00  0.00    -0.300 OA
ATOM     32  C   UNL d   1      15.361  11.920  -0.432  0.00  0.00     0.142 A 
ATOM     33  C   UNL d   1      15.491  12.629  -0.826  0.00  0.00     0.107 A 
ENDBRANCH  27  28
ENDBRANCH  26  27
ENDBRANCH  25  26
ENDBRANCH  24  25
ENDBRANCH   6  24
TORSDOF 11
ENDMDL
