MODEL 1
REMARK VINA RESULT:      61.1      0.000      0.000
REMARK  7 active torsions:
REMARK  status: ('A' for Active; 'I' for Inactive)
REMARK    1  A    between atoms: S_2  and  C_1 
REMARK    2  A    between atoms: C_9  and  S_2 
REMARK    3  A    between atoms: C_10  and  N_3 
REMARK    4  A    between atoms: C_8  and  C_10 
REMARK       I    between atoms: N_15  and  C_8 
REMARK    5  A    between atoms: C_20  and  N_15 
REMARK    6  A    between atoms: O_32  and  C_21 
REMARK    7  A    between atoms: C_33  and  C_27 
ROOT
ATOM      1  C   UNL d   1      46.139 -16.890  43.325  0.00  0.00     0.144 A 
ATOM      2  N   UNL d   1      46.459 -17.805  42.272  0.00  0.00    -0.299 N 
ATOM      3  C   UNL d   1      46.085 -17.528  43.855  0.00  0.00     0.209 A 
ATOM      4  C   UNL d   1      46.326 -17.028  42.534  0.00  0.00     0.095 A 
ATOM      5  C   UNL d   1      46.219 -18.297  43.590  0.00  0.00     0.058 A 
ATOM      6  C   UNL d   1      46.406 -18.435  42.799  0.00  0.00     0.068 A 
ATOM      7  C   UNL d   1      46.539 -19.203  42.535  0.00  0.00     0.020 A 
ATOM      8  C   UNL d   1      46.165 -18.926  44.118  0.00  0.00     0.029 A 
ATOM      9  O   UNL d   1      45.897 -17.389  44.650  0.00  0.00    -0.286 OA
ATOM     10  C   UNL d   1      46.298 -19.699  43.854  0.00  0.00     0.094 A 
ATOM     11  C   UNL d   1      46.485 -19.837  43.063  0.00  0.00     0.026 A 
ENDROOT
BRANCH   2  12
ATOM     12  C   UNL d   1      46.646 -17.943  41.480  0.00  0.00     0.144 C 
BRANCH  12  13
ATOM     13  C   UNL d   1      46.118 -17.727  40.887  0.00  0.00     0.297 C 
ATOM     14  N   UNL d   1      46.391 -17.340  40.211  0.00  0.00    -0.207 NA
ATOM     15  O   UNL d   1      45.317 -17.897  40.970  0.00  0.00    -0.264 OA
BRANCH  14  16
ATOM     16  C   UNL d   1      45.862 -17.123  39.618  0.00  0.00     0.085 A 
ATOM     17  C   UNL d   1      46.122 -16.677  38.979  0.00  0.00     0.019 A 
ATOM     18  C   UNL d   1      45.593 -16.461  38.386  0.00  0.00     0.002 A 
ATOM     19  C   UNL d   1      44.802 -16.692  38.434  0.00  0.00     0.000 A 
ATOM     20  C   UNL d   1      44.542 -17.141  39.078  0.00  0.00     0.002 A 
ATOM     21  C   UNL d   1      45.072 -17.356  39.670  0.00  0.00     0.019 A 
BRANCH  19  22
ATOM     22  C   UNL d   1      44.265 -16.479  37.843  0.00  0.00     0.000 C 
ATOM     23  C   UNL d   1      44.536 -16.079  37.175  0.00  0.00     0.000 C 
ENDBRANCH  19  22
ENDBRANCH  14  16
ENDBRANCH  12  13
ENDBRANCH   2  12
BRANCH   1  24
ATOM     24  S   UNL d   1      46.005 -16.118  43.589  0.00  0.00     0.214 S 
ATOM     25  O   UNL d   1      46.460 -15.825  42.968  0.00  0.00    -0.217 OA
ATOM     26  O   UNL d   1      45.544 -16.408  44.220  0.00  0.00    -0.217 OA
BRANCH  24  27
ATOM     27  C   UNL d   1      45.873 -15.341  43.852  0.00  0.00     0.088 A 
ATOM     28  C   UNL d   1      45.638 -15.198  44.631  0.00  0.00     0.014 A 
ATOM     29  C   UNL d   1      45.508 -14.427  44.888  0.00  0.00     0.030 A 
ATOM     30  C   UNL d   1      45.609 -13.791  44.373  0.00  0.00     0.140 A 
ATOM     31  C   UNL d   1      45.845 -13.935  43.590  0.00  0.00     0.030 A 
ATOM     32  F   UNL d   1      45.478 -13.016  44.632  0.00  0.00    -0.204 F 
ATOM     33  C   UNL d   1      45.976 -14.707  43.334  0.00  0.00     0.014 A 
ENDBRANCH  24  27
ENDBRANCH   1  24
BRANCH  10  34
ATOM     34  O   UNL d   1      46.242 -20.326  44.393  0.00  0.00    -0.328 OA
ATOM     35  C   UNL d   1      45.629 -20.328  44.954  0.00  0.00     0.181 C 
ENDBRANCH  10  34
TORSDOF 7
ENDMDL
