MODEL 1
REMARK VINA RESULT:      -6.3      0.000      0.000
REMARK  1 active torsions:
REMARK  status: ('A' for Active; 'I' for Inactive)
REMARK    1  A    between atoms: C_2  and  C_3 
ROOT
ATOM      1  C   UNL d   1     -48.120  12.479  22.979  0.00  0.00     0.002 A 
ATOM      2  C   UNL d   1     -48.421  12.438  22.211  0.00  0.00     0.000 A 
ATOM      3  C   UNL d   1     -48.564  12.185  23.610  0.00  0.00     0.000 A 
ATOM      4  C   UNL d   1     -49.164  12.103  22.075  0.00  0.00     0.000 A 
ATOM      5  C   UNL d   1     -49.306  11.850  23.474  0.00  0.00     0.000 A 
ATOM      6  C   UNL d   1     -49.607  11.809  22.707  0.00  0.00     0.000 A 
ENDROOT
BRANCH   1   7
ATOM      7  C   UNL d   1     -47.377  12.814  23.119  0.00  0.00     0.021 A 
ATOM      8  C   UNL d   1     -46.730  12.433  23.457  0.00  0.00     0.099 A 
ATOM      9  N   UNL d   1     -46.108  12.970  23.491  0.00  0.00    -0.242 NA
ATOM     10  C   UNL d   1     -46.370  13.686  23.173  0.00  0.00     0.099 A 
ATOM     11  C   UNL d   1     -47.156  13.590  22.942  0.00  0.00     0.022 A 
ENDBRANCH   1   7
TORSDOF 1
ENDMDL
MODEL 2
REMARK VINA RESULT:      -6.1      1.096      2.610
REMARK  1 active torsions:
REMARK  status: ('A' for Active; 'I' for Inactive)
REMARK    1  A    between atoms: C_2  and  C_3 
ROOT
ATOM      1  C   UNL d   1     -47.594  12.899  23.022  0.00  0.00     0.002 A 
ATOM      2  C   UNL d   1     -47.772  13.697  22.914  0.00  0.00     0.000 A 
ATOM      3  C   UNL d   1     -46.806  12.654  23.045  0.00  0.00     0.000 A 
ATOM      4  C   UNL d   1     -47.164  14.250  22.830  0.00  0.00     0.000 A 
ATOM      5  C   UNL d   1     -46.198  13.206  22.961  0.00  0.00     0.000 A 
ATOM      6  C   UNL d   1     -46.377  14.004  22.853  0.00  0.00     0.000 A 
ENDROOT
BRANCH   1   7
ATOM      7  C   UNL d   1     -48.201  12.343  23.107  0.00  0.00     0.021 A 
ATOM      8  C   UNL d   1     -48.254  11.770  23.696  0.00  0.00     0.099 A 
ATOM      9  N   UNL d   1     -48.943  11.338  23.570  0.00  0.00    -0.242 NA
ATOM     10  C   UNL d   1     -49.318  11.645  22.900  0.00  0.00     0.099 A 
ATOM     11  C   UNL d   1     -48.859  12.267  22.613  0.00  0.00     0.022 A 
ENDBRANCH   1   7
TORSDOF 1
ENDMDL
MODEL 3
REMARK VINA RESULT:      -6.0      2.068      3.006
REMARK  1 active torsions:
REMARK  status: ('A' for Active; 'I' for Inactive)
REMARK    1  A    between atoms: C_2  and  C_3 
ROOT
ATOM      1  C   UNL d   1     -47.892  14.214  22.730  0.00  0.00     0.002 A 
ATOM      2  C   UNL d   1     -47.941  13.412  22.540  0.00  0.00     0.000 A 
ATOM      3  C   UNL d   1     -47.157  14.554  22.886  0.00  0.00     0.000 A 
ATOM      4  C   UNL d   1     -47.255  12.952  22.505  0.00  0.00     0.000 A 
ATOM      5  C   UNL d   1     -46.471  14.095  22.852  0.00  0.00     0.000 A 
ATOM      6  C   UNL d   1     -46.521  13.294  22.661  0.00  0.00     0.000 A 
ENDROOT
BRANCH   1   7
ATOM      7  C   UNL d   1     -48.576  14.678  22.766  0.00  0.00     0.021 A 
ATOM      8  C   UNL d   1     -48.796  15.259  22.227  0.00  0.00     0.099 A 
ATOM      9  N   UNL d   1     -49.512  15.580  22.474  0.00  0.00    -0.242 NA
ATOM     10  C   UNL d   1     -49.737  15.194  23.171  0.00  0.00     0.099 A 
ATOM     11  C   UNL d   1     -49.158  14.636  23.351  0.00  0.00     0.022 A 
ENDBRANCH   1   7
TORSDOF 1
ENDMDL
