MODEL 1
REMARK VINA RESULT:       8.8      0.000      0.000
REMARK  1 active torsions:
REMARK  status: ('A' for Active; 'I' for Inactive)
REMARK    1  A    between atoms: C_7  and  C_1 
ROOT
ATOM      1  C   UNL d   1      14.166  12.023  -1.253  0.00  0.00     0.102 A 
ATOM      2  C   UNL d   1      14.877  12.029  -1.644  0.00  0.00     0.303 A 
ATOM      3  C   UNL d   1      13.459  11.970  -1.682  0.00  0.00     0.011 A 
ATOM      4  O   UNL d   1      14.895  11.983  -2.471  0.00  0.00    -0.273 OA
ATOM      5  C   UNL d   1      14.190  11.930  -2.897  0.00  0.00     0.106 A 
ATOM      6  C   UNL d   1      13.478  11.923  -2.506  0.00  0.00     0.023 A 
ATOM      7  C   UNL d   1      14.207  11.883  -3.724  0.00  0.00     0.067 A 
ATOM      8  O   UNL d   1      15.580  12.082  -1.221  0.00  0.00    -0.259 OA
ATOM      9  C   UNL d   1      12.772  11.870  -2.936  0.00  0.00     0.005 A 
ATOM     10  C   UNL d   1      13.501  11.830  -4.154  0.00  0.00     0.198 A 
ATOM     11  C   UNL d   1      12.789  11.824  -3.763  0.00  0.00     0.042 A 
ATOM     12  O   UNL d   1      13.426  11.780  -4.976  0.00  0.00    -0.286 OA
ENDROOT
BRANCH   1  13
ATOM     13  C   UNL d   1      14.145  12.069  -0.432  0.00  0.00     0.201 C 
ATOM     14  O   UNL d   1      14.776  12.408  -0.019  0.00  0.00    -0.286 OA
ATOM     15  C   UNL d   1      13.510  11.784  -0.023  0.00  0.00     0.045 C 
ENDBRANCH   1  13
TORSDOF 1
ENDMDL
