MODEL 1
REMARK VINA RESULT:      -2.2      0.000      0.000
REMARK  3 active torsions:
REMARK  status: ('A' for Active; 'I' for Inactive)
REMARK    1  A    between atoms: C_10  and  N_2 
REMARK    2  A    between atoms: C_15  and  C_3 
REMARK    3  A    between atoms: C_6  and  C_4 
ROOT
ATOM      1  N   UNL d   1      32.452  20.246 -21.688  0.00  0.00    -0.165 NA
ATOM      2  N   UNL d   1      32.864  19.671 -22.926  0.00  0.00    -0.228 N 
ATOM      3  C   UNL d   1      33.001  21.073 -22.712  0.00  0.00     0.081 A 
ATOM      4  C   UNL d   1      32.681  20.991 -21.957  0.00  0.00     0.106 A 
ATOM      5  C   UNL d   1      33.093  20.417 -23.196  0.00  0.00     0.105 A 
ENDROOT
BRANCH   4   6
ATOM      6  C   UNL d   1      32.588  21.650 -21.468  0.00  0.00     0.022 A 
ATOM      7  C   UNL d   1      32.951  21.666 -20.729  0.00  0.00     0.028 A 
ATOM      8  C   UNL d   1      32.858  22.324 -20.238  0.00  0.00     0.123 A 
ATOM      9  O   UNL d   1      33.222  22.339 -19.497  0.00  0.00    -0.301 OA
ATOM     10  C   UNL d   1      32.394  22.972 -20.498  0.00  0.00     0.123 A 
ATOM     11  C   UNL d   1      33.124  23.010 -19.004  0.00  0.00     0.149 A 
ATOM     12  C   UNL d   1      32.665  23.651 -19.261  0.00  0.00     0.149 A 
ATOM     13  O   UNL d   1      32.302  23.627 -20.007  0.00  0.00    -0.301 OA
ATOM     14  C   UNL d   1      32.037  22.943 -21.237  0.00  0.00     0.027 A 
ATOM     15  C   UNL d   1      32.129  22.290 -21.724  0.00  0.00     0.004 A 
ENDBRANCH   4   6
BRANCH   3  16
ATOM     16  C   UNL d   1      33.241  21.851 -22.994  0.00  0.00     0.237 C 
ATOM     17  O   UNL d   1      33.208  22.023 -23.826  0.00  0.00    -0.283 OA
ENDBRANCH   3  16
BRANCH   2  18
ATOM     18  C   UNL d   1      32.868  18.908 -23.237  0.00  0.00     0.083 A 
ATOM     19  C   UNL d   1      32.530  18.755 -23.973  0.00  0.00     0.019 A 
ATOM     20  C   UNL d   1      32.539  17.987 -24.277  0.00  0.00     0.002 A 
ATOM     21  C   UNL d   1      32.884  17.376 -23.846  0.00  0.00     0.000 A 
ATOM     22  C   UNL d   1      33.223  17.530 -23.106  0.00  0.00     0.002 A 
ATOM     23  C   UNL d   1      33.213  18.297 -22.805  0.00  0.00     0.019 A 
ENDBRANCH   2  18
TORSDOF 3
ENDMDL
MODEL 2
REMARK VINA RESULT:      -1.9      0.814      1.290
REMARK  3 active torsions:
REMARK  status: ('A' for Active; 'I' for Inactive)
REMARK    1  A    between atoms: C_10  and  N_2 
REMARK    2  A    between atoms: C_15  and  C_3 
REMARK    3  A    between atoms: C_6  and  C_4 
ROOT
ATOM      1  N   UNL d   1      32.447  19.329 -21.647  0.00  0.00    -0.165 NA
ATOM      2  N   UNL d   1      32.649  18.793 -22.953  0.00  0.00    -0.228 N 
ATOM      3  C   UNL d   1      32.953  20.159 -22.691  0.00  0.00     0.081 A 
ATOM      4  C   UNL d   1      32.718  20.064 -21.907  0.00  0.00     0.106 A 
ATOM      5  C   UNL d   1      32.920  19.527 -23.213  0.00  0.00     0.105 A 
ENDROOT
BRANCH   4   6
ATOM      6  C   UNL d   1      32.750  20.698 -21.378  0.00  0.00     0.022 A 
ATOM      7  C   UNL d   1      32.327  21.386 -21.538  0.00  0.00     0.028 A 
ATOM      8  C   UNL d   1      32.358  22.021 -21.010  0.00  0.00     0.123 A 
ATOM      9  O   UNL d   1      31.934  22.711 -21.171  0.00  0.00    -0.301 OA
ATOM     10  C   UNL d   1      32.822  21.959 -20.315  0.00  0.00     0.123 A 
ATOM     11  C   UNL d   1      31.970  23.352 -20.631  0.00  0.00     0.149 A 
ATOM     12  C   UNL d   1      32.429  23.290 -19.944  0.00  0.00     0.149 A 
ATOM     13  O   UNL d   1      32.852  22.593 -19.790  0.00  0.00    -0.301 OA
ATOM     14  C   UNL d   1      33.240  21.266 -20.168  0.00  0.00     0.027 A 
ATOM     15  C   UNL d   1      33.208  20.636 -20.692  0.00  0.00     0.004 A 
ENDBRANCH   4   6
BRANCH   3  16
ATOM     16  C   UNL d   1      33.235  20.927 -22.962  0.00  0.00     0.237 C 
ATOM     17  O   UNL d   1      33.221  21.107 -23.794  0.00  0.00    -0.283 OA
ENDBRANCH   3  16
BRANCH   2  18
ATOM     18  C   UNL d   1      32.539  18.052 -23.298  0.00  0.00     0.083 A 
ATOM     19  C   UNL d   1      31.789  17.813 -23.541  0.00  0.00     0.019 A 
ATOM     20  C   UNL d   1      31.688  17.069 -23.886  0.00  0.00     0.002 A 
ATOM     21  C   UNL d   1      32.334  16.569 -23.986  0.00  0.00     0.000 A 
ATOM     22  C   UNL d   1      33.087  16.810 -23.741  0.00  0.00     0.002 A 
ATOM     23  C   UNL d   1      33.186  17.552 -23.398  0.00  0.00     0.019 A 
ENDBRANCH   2  18
TORSDOF 3
ENDMDL
MODEL 3
REMARK VINA RESULT:      -1.4      1.365      4.890
REMARK  3 active torsions:
REMARK  status: ('A' for Active; 'I' for Inactive)
REMARK    1  A    between atoms: C_10  and  N_2 
REMARK    2  A    between atoms: C_15  and  C_3 
REMARK    3  A    between atoms: C_6  and  C_4 
ROOT
ATOM      1  N   UNL d   1      33.044  21.369 -20.412  0.00  0.00    -0.165 NA
ATOM      2  N   UNL d   1      32.744  22.607 -19.773  0.00  0.00    -0.228 N 
ATOM      3  C   UNL d   1      32.688  22.508 -21.192  0.00  0.00     0.081 A 
ATOM      4  C   UNL d   1      32.907  21.715 -21.148  0.00  0.00     0.106 A 
ATOM      5  C   UNL d   1      32.606  22.954 -20.509  0.00  0.00     0.105 A 
ENDROOT
BRANCH   4   6
ATOM      6  C   UNL d   1      32.990  21.264 -21.835  0.00  0.00     0.022 A 
ATOM      7  C   UNL d   1      32.904  20.446 -21.800  0.00  0.00     0.028 A 
ATOM      8  C   UNL d   1      32.987  19.993 -22.486  0.00  0.00     0.123 A 
ATOM      9  O   UNL d   1      32.901  19.172 -22.450  0.00  0.00    -0.301 OA
ATOM     10  C   UNL d   1      33.158  20.372 -23.214  0.00  0.00     0.123 A 
ATOM     11  C   UNL d   1      32.986  18.718 -23.150  0.00  0.00     0.149 A 
ATOM     12  C   UNL d   1      33.155  19.093 -23.870  0.00  0.00     0.149 A 
ATOM     13  O   UNL d   1      33.240  19.918 -23.897  0.00  0.00    -0.301 OA
ATOM     14  C   UNL d   1      33.241  21.189 -23.235  0.00  0.00     0.027 A 
ATOM     15  C   UNL d   1      33.159  21.638 -22.554  0.00  0.00     0.004 A 
ENDBRANCH   4   6
BRANCH   3  16
ATOM     16  C   UNL d   1      32.544  22.870 -21.961  0.00  0.00     0.237 C 
ATOM     17  O   UNL d   1      32.353  23.698 -22.004  0.00  0.00    -0.283 OA
ENDBRANCH   3  16
BRANCH   2  18
ATOM     18  C   UNL d   1      32.720  22.863 -18.989  0.00  0.00     0.083 A 
ATOM     19  C   UNL d   1      33.237  22.548 -18.431  0.00  0.00     0.019 A 
ATOM     20  C   UNL d   1      33.206  22.811 -17.649  0.00  0.00     0.002 A 
ATOM     21  C   UNL d   1      32.659  23.386 -17.427  0.00  0.00     0.000 A 
ATOM     22  C   UNL d   1      32.139  23.702 -17.989  0.00  0.00     0.002 A 
ATOM     23  C   UNL d   1      32.173  23.438 -18.769  0.00  0.00     0.019 A 
ENDBRANCH   2  18
TORSDOF 3
ENDMDL
MODEL 4
REMARK VINA RESULT:      -0.8      1.155      1.847
REMARK  3 active torsions:
REMARK  status: ('A' for Active; 'I' for Inactive)
REMARK    1  A    between atoms: C_10  and  N_2 
REMARK    2  A    between atoms: C_15  and  C_3 
REMARK    3  A    between atoms: C_6  and  C_4 
ROOT
ATOM      1  N   UNL d   1      32.723  18.860 -22.351  0.00  0.00    -0.165 NA
ATOM      2  N   UNL d   1      32.883  18.028 -23.498  0.00  0.00    -0.228 N 
ATOM      3  C   UNL d   1      33.032  19.439 -23.618  0.00  0.00     0.081 A 
ATOM      4  C   UNL d   1      32.876  19.527 -22.813  0.00  0.00     0.106 A 
ATOM      5  C   UNL d   1      33.036  18.694 -23.960  0.00  0.00     0.105 A 
ENDROOT
BRANCH   4   6
ATOM      6  C   UNL d   1      32.871  20.276 -22.465  0.00  0.00     0.022 A 
ATOM      7  C   UNL d   1      32.499  20.388 -21.740  0.00  0.00     0.028 A 
ATOM      8  C   UNL d   1      32.493  21.137 -21.390  0.00  0.00     0.123 A 
ATOM      9  O   UNL d   1      32.120  21.248 -20.662  0.00  0.00    -0.301 OA
ATOM     10  C   UNL d   1      32.868  21.777 -21.779  0.00  0.00     0.123 A 
ATOM     11  C   UNL d   1      32.118  22.011 -20.313  0.00  0.00     0.149 A 
ATOM     12  C   UNL d   1      32.488  22.644 -20.698  0.00  0.00     0.149 A 
ATOM     13  O   UNL d   1      32.861  22.524 -21.429  0.00  0.00    -0.301 OA
ATOM     14  C   UNL d   1      33.236  21.652 -22.503  0.00  0.00     0.027 A 
ATOM     15  C   UNL d   1      33.241  20.909 -22.850  0.00  0.00     0.004 A 
ENDBRANCH   4   6
BRANCH   3  16
ATOM     16  C   UNL d   1      33.192  20.135 -24.100  0.00  0.00     0.237 C 
ATOM     17  O   UNL d   1      33.076  20.095 -24.942  0.00  0.00    -0.283 OA
ENDBRANCH   3  16
BRANCH   2  18
ATOM     18  C   UNL d   1      32.839  17.216 -23.635  0.00  0.00     0.083 A 
ATOM     19  C   UNL d   1      32.398  16.923 -24.266  0.00  0.00     0.019 A 
ATOM     20  C   UNL d   1      32.360  16.108 -24.395  0.00  0.00     0.002 A 
ATOM     21  C   UNL d   1      32.761  15.590 -23.895  0.00  0.00     0.000 A 
ATOM     22  C   UNL d   1      33.204  15.886 -23.261  0.00  0.00     0.002 A 
ATOM     23  C   UNL d   1      33.241  16.699 -23.134  0.00  0.00     0.019 A 
ENDBRANCH   2  18
TORSDOF 3
ENDMDL
MODEL 5
REMARK VINA RESULT:       0.4      2.140      4.959
REMARK  3 active torsions:
REMARK  status: ('A' for Active; 'I' for Inactive)
REMARK    1  A    between atoms: C_10  and  N_2 
REMARK    2  A    between atoms: C_15  and  C_3 
REMARK    3  A    between atoms: C_6  and  C_4 
ROOT
ATOM      1  N   UNL d   1      32.821  22.836 -20.743  0.00  0.00    -0.165 NA
ATOM      2  N   UNL d   1      32.803  22.388 -19.389  0.00  0.00    -0.228 N 
ATOM      3  C   UNL d   1      33.004  21.453 -20.445  0.00  0.00     0.081 A 
ATOM      4  C   UNL d   1      32.950  22.061 -20.997  0.00  0.00     0.106 A 
ATOM      5  C   UNL d   1      32.932  21.614 -19.643  0.00  0.00     0.105 A 
ENDROOT
BRANCH   4   6
ATOM      6  C   UNL d   1      33.022  21.903 -21.805  0.00  0.00     0.022 A 
ATOM      7  C   UNL d   1      32.996  22.521 -22.347  0.00  0.00     0.028 A 
ATOM      8  C   UNL d   1      33.068  22.364 -23.156  0.00  0.00     0.123 A 
ATOM      9  O   UNL d   1      33.041  22.985 -23.700  0.00  0.00    -0.301 OA
ATOM     10  C   UNL d   1      33.169  21.574 -23.416  0.00  0.00     0.123 A 
ATOM     11  C   UNL d   1      33.115  22.818 -24.518  0.00  0.00     0.149 A 
ATOM     12  C   UNL d   1      33.215  22.037 -24.776  0.00  0.00     0.149 A 
ATOM     13  O   UNL d   1      33.241  21.419 -24.222  0.00  0.00    -0.301 OA
ATOM     14  C   UNL d   1      33.194  20.966 -22.864  0.00  0.00     0.027 A 
ATOM     15  C   UNL d   1      33.122  21.122 -22.062  0.00  0.00     0.004 A 
ENDBRANCH   4   6
BRANCH   3  16
ATOM     16  C   UNL d   1      33.139  20.644 -20.710  0.00  0.00     0.237 C 
ATOM     17  O   UNL d   1      33.206  20.021 -20.135  0.00  0.00    -0.283 OA
ENDBRANCH   3  16
BRANCH   2  18
ATOM     18  C   UNL d   1      32.705  22.757 -18.659  0.00  0.00     0.083 A 
ATOM     19  C   UNL d   1      33.204  22.576 -18.029  0.00  0.00     0.019 A 
ATOM     20  C   UNL d   1      33.098  22.951 -17.301  0.00  0.00     0.002 A 
ATOM     21  C   UNL d   1      32.495  23.504 -17.204  0.00  0.00     0.000 A 
ATOM     22  C   UNL d   1      31.994  23.686 -17.838  0.00  0.00     0.002 A 
ATOM     23  C   UNL d   1      32.102  23.311 -18.563  0.00  0.00     0.019 A 
ENDBRANCH   2  18
TORSDOF 3
ENDMDL
