MODEL 1
REMARK VINA RESULT:      -4.0      0.000      0.000
REMARK  6 active torsions:
REMARK  status: ('A' for Active; 'I' for Inactive)
REMARK       I    between atoms: C_2  and  N_1 
REMARK    1  A    between atoms: O_20  and  C_2 
REMARK       I    between atoms: C_5  and  N_3 
REMARK    2  A    between atoms: C_16  and  C_5 
REMARK    3  A    between atoms: C_9  and  C_7 
REMARK    4  A    between atoms: C_8  and  S_14 
REMARK    5  A    between atoms: S_14  and  C_16 
REMARK    6  A    between atoms: C_25  and  O_20 
ROOT
ATOM      1  C   UNL d   1     -44.183  13.145  21.743  0.00  0.00     0.098 C 
ENDROOT
BRANCH   1   2
ATOM      2  S   UNL d   1     -44.783  12.733  22.122  0.00  0.00    -0.061 SA
BRANCH   2   3
ATOM      3  C   UNL d   1     -45.508  13.095  22.273  0.00  0.00     0.133 A 
ATOM      4  N   UNL d   1     -45.582  13.648  22.873  0.00  0.00    -0.141 NA
ATOM      5  N   UNL d   1     -46.307  14.010  23.024  0.00  0.00    -0.148 NA
ATOM      6  C   UNL d   1     -46.971  13.817  22.566  0.00  0.00     0.104 A 
ATOM      7  C   UNL d   1     -46.900  13.259  21.959  0.00  0.00     0.023 A 
ATOM      8  C   UNL d   1     -46.175  12.899  21.812  0.00  0.00     0.029 A 
BRANCH   6   9
ATOM      9  C   UNL d   1     -47.697  14.179  22.717  0.00  0.00     0.039 A 
ATOM     10  C   UNL d   1     -48.269  13.778  23.134  0.00  0.00     0.101 A 
ATOM     11  N   UNL d   1     -48.991  14.133  23.285  0.00  0.00    -0.242 NA
ATOM     12  C   UNL d   1     -49.136  14.906  23.012  0.00  0.00     0.099 A 
ATOM     13  C   UNL d   1     -48.558  15.305  22.593  0.00  0.00     0.021 A 
ATOM     14  C   UNL d   1     -47.829  14.950  22.438  0.00  0.00     0.005 A 
ENDBRANCH   6   9
ENDBRANCH   2   3
ENDBRANCH   1   2
BRANCH   1  15
ATOM     15  C   UNL d   1     -43.440  12.795  21.653  0.00  0.00     0.272 C 
ATOM     16  N   UNL d   1     -42.802  13.247  21.396  0.00  0.00    -0.269 N 
ATOM     17  C   UNL d   1     -42.912  14.052  21.228  0.00  0.00     0.102 A 
ATOM     18  C   UNL d   1     -42.067  12.900  21.308  0.00  0.00     0.102 A 
ATOM     19  C   UNL d   1     -42.274  14.494  20.973  0.00  0.00     0.104 A 
ATOM     20  N   UNL d   1     -41.531  14.153  20.881  0.00  0.00    -0.249 N 
ATOM     21  C   UNL d   1     -40.889  14.594  20.625  0.00  0.00     0.378 C 
ATOM     22  C   UNL d   1     -41.425  13.350  21.049  0.00  0.00     0.104 A 
ATOM     23  O   UNL d   1     -40.996  15.397  20.457  0.00  0.00    -0.237 OA
ATOM     24  O   UNL d   1     -43.333  12.004  21.819  0.00  0.00    -0.266 OA
BRANCH  21  25
ATOM     25  O   UNL d   1     -40.150  14.245  20.537  0.00  0.00    -0.257 OA
BRANCH  25  26
ATOM     26  C   UNL d   1     -39.511  14.690  20.290  0.00  0.00     0.128 C 
ATOM     27  C   UNL d   1     -38.778  14.344  20.203  0.00  0.00     0.029 C 
ENDBRANCH  25  26
ENDBRANCH  21  25
ENDBRANCH   1  15
TORSDOF 6
ENDMDL
MODEL 2
REMARK VINA RESULT:      -3.8      1.849      6.424
REMARK  6 active torsions:
REMARK  status: ('A' for Active; 'I' for Inactive)
REMARK       I    between atoms: C_2  and  N_1 
REMARK    1  A    between atoms: O_20  and  C_2 
REMARK       I    between atoms: C_5  and  N_3 
REMARK    2  A    between atoms: C_16  and  C_5 
REMARK    3  A    between atoms: C_9  and  C_7 
REMARK    4  A    between atoms: C_8  and  S_14 
REMARK    5  A    between atoms: S_14  and  C_16 
REMARK    6  A    between atoms: C_25  and  O_20 
ROOT
ATOM      1  C   UNL d   1     -43.121  13.050  21.372  0.00  0.00     0.098 C 
ENDROOT
BRANCH   1   2
ATOM      2  S   UNL d   1     -42.301  13.020  21.386  0.00  0.00    -0.061 SA
BRANCH   2   3
ATOM      3  C   UNL d   1     -41.857  13.498  20.882  0.00  0.00     0.133 A 
ATOM      4  N   UNL d   1     -41.852  13.362  20.074  0.00  0.00    -0.141 NA
ATOM      5  N   UNL d   1     -41.408  13.840  19.570  0.00  0.00    -0.148 NA
ATOM      6  C   UNL d   1     -40.960  14.466  19.879  0.00  0.00     0.104 A 
ATOM      7  C   UNL d   1     -40.963  14.606  20.694  0.00  0.00     0.023 A 
ATOM      8  C   UNL d   1     -41.407  14.127  21.194  0.00  0.00     0.029 A 
BRANCH   6   9
ATOM      9  C   UNL d   1     -40.516  14.945  19.375  0.00  0.00     0.039 A 
ATOM     10  C   UNL d   1     -39.703  14.920  19.408  0.00  0.00     0.101 A 
ATOM     11  N   UNL d   1     -39.258  15.393  18.910  0.00  0.00    -0.242 NA
ATOM     12  C   UNL d   1     -39.640  15.899  18.370  0.00  0.00     0.099 A 
ATOM     13  C   UNL d   1     -40.457  15.920  18.340  0.00  0.00     0.021 A 
ATOM     14  C   UNL d   1     -40.910  15.444  18.841  0.00  0.00     0.005 A 
ENDBRANCH   6   9
ENDBRANCH   2   3
ENDBRANCH   1   2
BRANCH   1  15
ATOM     15  C   UNL d   1     -43.558  12.506  21.815  0.00  0.00     0.272 C 
ATOM     16  N   UNL d   1     -44.334  12.678  22.025  0.00  0.00    -0.269 N 
ATOM     17  C   UNL d   1     -44.673  13.397  21.789  0.00  0.00     0.102 A 
ATOM     18  C   UNL d   1     -44.766  12.139  22.464  0.00  0.00     0.102 A 
ATOM     19  C   UNL d   1     -45.445  13.561  22.002  0.00  0.00     0.104 A 
ATOM     20  N   UNL d   1     -45.886  13.025  22.442  0.00  0.00    -0.249 N 
ATOM     21  C   UNL d   1     -46.660  13.186  22.657  0.00  0.00     0.378 C 
ATOM     22  C   UNL d   1     -45.546  12.308  22.676  0.00  0.00     0.104 A 
ATOM     23  O   UNL d   1     -47.001  13.903  22.424  0.00  0.00    -0.237 OA
ATOM     24  O   UNL d   1     -43.224  11.799  22.046  0.00  0.00    -0.266 OA
BRANCH  21  25
ATOM     25  O   UNL d   1     -47.094  12.644  23.098  0.00  0.00    -0.257 OA
BRANCH  25  26
ATOM     26  C   UNL d   1     -47.890  12.767  23.235  0.00  0.00     0.128 C 
ATOM     27  C   UNL d   1     -48.347  12.178  23.566  0.00  0.00     0.029 C 
ENDBRANCH  25  26
ENDBRANCH  21  25
ENDBRANCH   1  15
TORSDOF 6
ENDMDL
MODEL 3
REMARK VINA RESULT:      -3.7      1.968      6.440
REMARK  6 active torsions:
REMARK  status: ('A' for Active; 'I' for Inactive)
REMARK       I    between atoms: C_2  and  N_1 
REMARK    1  A    between atoms: O_20  and  C_2 
REMARK       I    between atoms: C_5  and  N_3 
REMARK    2  A    between atoms: C_16  and  C_5 
REMARK    3  A    between atoms: C_9  and  C_7 
REMARK    4  A    between atoms: C_8  and  S_14 
REMARK    5  A    between atoms: S_14  and  C_16 
REMARK    6  A    between atoms: C_25  and  O_20 
ROOT
ATOM      1  C   UNL d   1     -45.119  13.192  22.181  0.00  0.00     0.098 C 
ENDROOT
BRANCH   1   2
ATOM      2  S   UNL d   1     -44.497  12.690  21.991  0.00  0.00    -0.061 SA
BRANCH   2   3
ATOM      3  C   UNL d   1     -43.783  12.997  21.715  0.00  0.00     0.133 A 
ATOM      4  N   UNL d   1     -43.644  13.804  21.726  0.00  0.00    -0.141 NA
ATOM      5  N   UNL d   1     -42.930  14.111  21.449  0.00  0.00    -0.148 NA
ATOM      6  C   UNL d   1     -42.345  13.601  21.156  0.00  0.00     0.104 A 
ATOM      7  C   UNL d   1     -42.483  12.786  21.144  0.00  0.00     0.023 A 
ATOM      8  C   UNL d   1     -43.196  12.483  21.420  0.00  0.00     0.029 A 
BRANCH   6   9
ATOM      9  C   UNL d   1     -41.631  13.908  20.879  0.00  0.00     0.039 A 
ATOM     10  C   UNL d   1     -41.530  14.040  20.082  0.00  0.00     0.101 A 
ATOM     11  N   UNL d   1     -40.824  14.344  19.803  0.00  0.00    -0.242 NA
ATOM     12  C   UNL d   1     -40.209  14.518  20.337  0.00  0.00     0.099 A 
ATOM     13  C   UNL d   1     -40.315  14.384  21.137  0.00  0.00     0.021 A 
ATOM     14  C   UNL d   1     -41.026  14.077  21.423  0.00  0.00     0.005 A 
ENDBRANCH   6   9
ENDBRANCH   2   3
ENDBRANCH   1   2
BRANCH   1  15
ATOM     15  C   UNL d   1     -45.765  12.898  22.606  0.00  0.00     0.272 C 
ATOM     16  N   UNL d   1     -46.450  13.349  22.671  0.00  0.00    -0.269 N 
ATOM     17  C   UNL d   1     -46.487  14.094  22.309  0.00  0.00     0.102 A 
ATOM     18  C   UNL d   1     -47.089  13.058  23.091  0.00  0.00     0.102 A 
ATOM     19  C   UNL d   1     -47.171  14.535  22.379  0.00  0.00     0.104 A 
ATOM     20  N   UNL d   1     -47.818  14.251  22.799  0.00  0.00    -0.249 N 
ATOM     21  C   UNL d   1     -48.506  14.691  22.871  0.00  0.00     0.378 C 
ATOM     22  C   UNL d   1     -47.779  13.507  23.159  0.00  0.00     0.104 A 
ATOM     23  O   UNL d   1     -48.546  15.435  22.512  0.00  0.00    -0.237 OA
ATOM     24  O   UNL d   1     -45.728  12.166  22.960  0.00  0.00    -0.266 OA
BRANCH  21  25
ATOM     25  O   UNL d   1     -49.148  14.399  23.293  0.00  0.00    -0.257 OA
BRANCH  25  26
ATOM     26  C   UNL d   1     -49.829  14.845  23.370  0.00  0.00     0.128 C 
ATOM     27  C   UNL d   1     -50.500  14.518  23.698  0.00  0.00     0.029 C 
ENDBRANCH  25  26
ENDBRANCH  21  25
ENDBRANCH   1  15
TORSDOF 6
ENDMDL
MODEL 4
REMARK VINA RESULT:      -2.7      1.941      2.521
REMARK  6 active torsions:
REMARK  status: ('A' for Active; 'I' for Inactive)
REMARK       I    between atoms: C_2  and  N_1 
REMARK    1  A    between atoms: O_20  and  C_2 
REMARK       I    between atoms: C_5  and  N_3 
REMARK    2  A    between atoms: C_16  and  C_5 
REMARK    3  A    between atoms: C_9  and  C_7 
REMARK    4  A    between atoms: C_8  and  S_14 
REMARK    5  A    between atoms: S_14  and  C_16 
REMARK    6  A    between atoms: C_25  and  O_20 
ROOT
ATOM      1  C   UNL d   1     -45.694  11.854  22.790  0.00  0.00     0.098 C 
ENDROOT
BRANCH   1   2
ATOM      2  S   UNL d   1     -46.235  11.535  23.319  0.00  0.00    -0.061 SA
BRANCH   2   3
ATOM      3  C   UNL d   1     -47.040  11.694  23.238  0.00  0.00     0.133 A 
ATOM      4  N   UNL d   1     -47.552  11.122  22.951  0.00  0.00    -0.141 NA
ATOM      5  N   UNL d   1     -48.357  11.281  22.870  0.00  0.00    -0.148 NA
ATOM      6  C   UNL d   1     -48.657  12.025  23.080  0.00  0.00     0.104 A 
ATOM      7  C   UNL d   1     -48.143  12.605  23.370  0.00  0.00     0.023 A 
ATOM      8  C   UNL d   1     -47.340  12.443  23.449  0.00  0.00     0.029 A 
BRANCH   6   9
ATOM      9  C   UNL d   1     -49.462  12.184  22.999  0.00  0.00     0.039 A 
ATOM     10  C   UNL d   1     -49.744  12.494  22.301  0.00  0.00     0.101 A 
ATOM     11  N   UNL d   1     -50.542  12.653  22.216  0.00  0.00    -0.242 NA
ATOM     12  C   UNL d   1     -51.064  12.497  22.846  0.00  0.00     0.099 A 
ATOM     13  C   UNL d   1     -50.776  12.186  23.545  0.00  0.00     0.021 A 
ATOM     14  C   UNL d   1     -49.971  12.024  23.635  0.00  0.00     0.005 A 
ENDBRANCH   6   9
ENDBRANCH   2   3
ENDBRANCH   1   2
BRANCH   1  15
ATOM     15  C   UNL d   1     -44.890  11.676  22.872  0.00  0.00     0.272 C 
ATOM     16  N   UNL d   1     -44.331  12.104  22.446  0.00  0.00    -0.269 N 
ATOM     17  C   UNL d   1     -44.579  12.711  21.938  0.00  0.00     0.102 A 
ATOM     18  C   UNL d   1     -43.537  11.927  22.526  0.00  0.00     0.102 A 
ATOM     19  C   UNL d   1     -44.017  13.131  21.519  0.00  0.00     0.104 A 
ATOM     20  N   UNL d   1     -43.217  12.960  21.594  0.00  0.00    -0.249 N 
ATOM     21  C   UNL d   1     -42.651  13.379  21.175  0.00  0.00     0.378 C 
ATOM     22  C   UNL d   1     -42.972  12.354  22.101  0.00  0.00     0.104 A 
ATOM     23  O   UNL d   1     -42.895  13.986  20.668  0.00  0.00    -0.237 OA
ATOM     24  O   UNL d   1     -44.648  11.079  23.370  0.00  0.00    -0.266 OA
BRANCH  21  25
ATOM     25  O   UNL d   1     -41.852  13.202  21.256  0.00  0.00    -0.257 OA
BRANCH  25  26
ATOM     26  C   UNL d   1     -41.284  13.716  20.972  0.00  0.00     0.128 C 
ATOM     27  C   UNL d   1     -40.511  13.655  21.223  0.00  0.00     0.029 C 
ENDBRANCH  25  26
ENDBRANCH  21  25
ENDBRANCH   1  15
TORSDOF 6
ENDMDL
MODEL 5
REMARK VINA RESULT:      -2.3      2.002      3.262
REMARK  6 active torsions:
REMARK  status: ('A' for Active; 'I' for Inactive)
REMARK       I    between atoms: C_2  and  N_1 
REMARK    1  A    between atoms: O_20  and  C_2 
REMARK       I    between atoms: C_5  and  N_3 
REMARK    2  A    between atoms: C_16  and  C_5 
REMARK    3  A    between atoms: C_9  and  C_7 
REMARK    4  A    between atoms: C_8  and  S_14 
REMARK    5  A    between atoms: S_14  and  C_16 
REMARK    6  A    between atoms: C_25  and  O_20 
ROOT
ATOM      1  C   UNL d   1     -41.664  13.876  20.523  0.00  0.00     0.098 C 
ENDROOT
BRANCH   1   2
ATOM      2  S   UNL d   1     -41.839  13.318  21.099  0.00  0.00    -0.061 SA
BRANCH   2   3
ATOM      3  C   UNL d   1     -42.611  13.233  21.377  0.00  0.00     0.133 A 
ATOM      4  N   UNL d   1     -43.081  13.890  21.511  0.00  0.00    -0.141 NA
ATOM      5  N   UNL d   1     -43.852  13.805  21.789  0.00  0.00    -0.148 NA
ATOM      6  C   UNL d   1     -44.160  13.049  21.936  0.00  0.00     0.104 A 
ATOM      7  C   UNL d   1     -43.688  12.384  21.802  0.00  0.00     0.023 A 
ATOM      8  C   UNL d   1     -42.919  12.472  21.524  0.00  0.00     0.029 A 
BRANCH   6   9
ATOM      9  C   UNL d   1     -44.932  12.964  22.214  0.00  0.00     0.039 A 
ATOM     10  C   UNL d   1     -45.122  12.330  22.687  0.00  0.00     0.101 A 
ATOM     11  N   UNL d   1     -45.887  12.241  22.966  0.00  0.00    -0.242 NA
ATOM     12  C   UNL d   1     -46.468  12.802  22.764  0.00  0.00     0.099 A 
ATOM     13  C   UNL d   1     -46.272  13.438  22.288  0.00  0.00     0.021 A 
ATOM     14  C   UNL d   1     -45.502  13.531  22.005  0.00  0.00     0.005 A 
ENDBRANCH   6   9
ENDBRANCH   2   3
ENDBRANCH   1   2
BRANCH   1  15
ATOM     15  C   UNL d   1     -40.882  14.121  20.416  0.00  0.00     0.272 C 
ATOM     16  N   UNL d   1     -40.623  14.348  19.668  0.00  0.00    -0.269 N 
ATOM     17  C   UNL d   1     -41.150  14.329  19.029  0.00  0.00     0.102 A 
ATOM     18  C   UNL d   1     -39.849  14.590  19.562  0.00  0.00     0.102 A 
ATOM     19  C   UNL d   1     -40.885  14.556  18.289  0.00  0.00     0.104 A 
ATOM     20  N   UNL d   1     -40.108  14.801  18.174  0.00  0.00    -0.249 N 
ATOM     21  C   UNL d   1     -39.839  15.029  17.434  0.00  0.00     0.378 C 
ATOM     22  C   UNL d   1     -39.585  14.818  18.814  0.00  0.00     0.104 A 
ATOM     23  O   UNL d   1     -40.363  15.011  16.794  0.00  0.00    -0.237 OA
ATOM     24  O   UNL d   1     -40.365  14.139  21.045  0.00  0.00    -0.266 OA
BRANCH  21  25
ATOM     25  O   UNL d   1     -39.061  15.272  17.328  0.00  0.00    -0.257 OA
BRANCH  25  26
ATOM     26  C   UNL d   1     -38.780  15.439  16.580  0.00  0.00     0.128 C 
ATOM     27  C   UNL d   1     -38.014  15.697  16.476  0.00  0.00     0.029 C 
ENDBRANCH  25  26
ENDBRANCH  21  25
ENDBRANCH   1  15
TORSDOF 6
ENDMDL
MODEL 6
REMARK VINA RESULT:      -1.6      2.988      7.683
REMARK  6 active torsions:
REMARK  status: ('A' for Active; 'I' for Inactive)
REMARK       I    between atoms: C_2  and  N_1 
REMARK    1  A    between atoms: O_20  and  C_2 
REMARK       I    between atoms: C_5  and  N_3 
REMARK    2  A    between atoms: C_16  and  C_5 
REMARK    3  A    between atoms: C_9  and  C_7 
REMARK    4  A    between atoms: C_8  and  S_14 
REMARK    5  A    between atoms: S_14  and  C_16 
REMARK    6  A    between atoms: C_25  and  O_20 
ROOT
ATOM      1  C   UNL d   1     -40.331  14.835  19.912  0.00  0.00     0.098 C 
ENDROOT
BRANCH   1   2
ATOM      2  S   UNL d   1     -39.887  15.398  19.512  0.00  0.00    -0.061 SA
BRANCH   2   3
ATOM      3  C   UNL d   1     -39.563  15.225  18.773  0.00  0.00     0.133 A 
ATOM      4  N   UNL d   1     -38.884  14.772  18.711  0.00  0.00    -0.141 NA
ATOM      5  N   UNL d   1     -38.560  14.600  17.972  0.00  0.00    -0.148 NA
ATOM      6  C   UNL d   1     -38.922  14.885  17.283  0.00  0.00     0.104 A 
ATOM      7  C   UNL d   1     -39.608  15.342  17.342  0.00  0.00     0.023 A 
ATOM      8  C   UNL d   1     -39.929  15.512  18.081  0.00  0.00     0.029 A 
BRANCH   6   9
ATOM      9  C   UNL d   1     -38.598  14.712  16.544  0.00  0.00     0.039 A 
ATOM     10  C   UNL d   1     -38.455  15.314  16.016  0.00  0.00     0.101 A 
ATOM     11  N   UNL d   1     -38.134  15.148  15.282  0.00  0.00    -0.242 NA
ATOM     12  C   UNL d   1     -37.954  14.361  15.078  0.00  0.00     0.099 A 
ATOM     13  C   UNL d   1     -38.099  13.759  15.612  0.00  0.00     0.021 A 
ATOM     14  C   UNL d   1     -38.423  13.922  16.354  0.00  0.00     0.005 A 
ENDBRANCH   6   9
ENDBRANCH   2   3
ENDBRANCH   1   2
BRANCH   1  15
ATOM     15  C   UNL d   1     -40.898  15.080  20.463  0.00  0.00     0.272 C 
ATOM     16  N   UNL d   1     -41.516  14.575  20.665  0.00  0.00    -0.269 N 
ATOM     17  C   UNL d   1     -41.564  13.825  20.314  0.00  0.00     0.102 A 
ATOM     18  C   UNL d   1     -42.076  14.817  21.210  0.00  0.00     0.102 A 
ATOM     19  C   UNL d   1     -42.181  13.330  20.520  0.00  0.00     0.104 A 
ATOM     20  N   UNL d   1     -42.749  13.565  21.067  0.00  0.00    -0.249 N 
ATOM     21  C   UNL d   1     -43.369  13.071  21.276  0.00  0.00     0.378 C 
ATOM     22  C   UNL d   1     -42.697  14.314  21.415  0.00  0.00     0.104 A 
ATOM     23  O   UNL d   1     -43.420  12.323  20.927  0.00  0.00    -0.237 OA
ATOM     24  O   UNL d   1     -40.848  15.816  20.807  0.00  0.00    -0.266 OA
BRANCH  21  25
ATOM     25  O   UNL d   1     -43.932  13.314  21.823  0.00  0.00    -0.257 OA
BRANCH  25  26
ATOM     26  C   UNL d   1     -44.606  12.869  21.947  0.00  0.00     0.128 C 
ATOM     27  C   UNL d   1     -45.199  13.147  22.432  0.00  0.00     0.029 C 
ENDBRANCH  25  26
ENDBRANCH  21  25
ENDBRANCH   1  15
TORSDOF 6
ENDMDL
