MODEL 1
REMARK VINA RESULT:      -7.6      0.000      0.000
REMARK  5 active torsions:
REMARK  status: ('A' for Active; 'I' for Inactive)
REMARK    1  A    between atoms: N_2  and  S_1 
REMARK    2  A    between atoms: C_5  and  S_1 
REMARK    3  A    between atoms: C_3  and  N_2 
REMARK    4  A    between atoms: C_4  and  C_3 
REMARK       I    between atoms: N_8  and  C_4 
REMARK    5  A    between atoms: C_13  and  N_8 
ROOT
ATOM      1  N   UNL d   1      52.131  33.751  52.926  0.00  0.00    -0.223 N 
ATOM      2  C   UNL d   1      52.439  34.421  52.557  0.00  0.00     0.112 C 
ENDROOT
BRANCH   1   3
ATOM      3  S   UNL d   1      52.622  33.116  53.097  0.00  0.00     0.272 S 
ATOM      4  O   UNL d   1      52.501  32.387  52.729  0.00  0.00    -0.200 OA
ATOM      5  O   UNL d   1      52.578  33.899  53.348  0.00  0.00    -0.200 OA
BRANCH   3   6
ATOM      6  C   UNL d   1      53.239  33.203  53.635  0.00  0.00     0.104 A 
ATOM      7  C   UNL d   1      53.075  33.325  54.437  0.00  0.00     0.013 A 
ATOM      8  C   UNL d   1      53.700  33.412  54.972  0.00  0.00     0.001 A 
ATOM      9  C   UNL d   1      54.482  33.378  54.713  0.00  0.00     0.000 A 
ATOM     10  C   UNL d   1      54.648  33.257  53.916  0.00  0.00     0.001 A 
ATOM     11  C   UNL d   1      55.102  33.466  55.259  0.00  0.00     0.000 C 
ATOM     12  C   UNL d   1      54.029  33.169  53.374  0.00  0.00     0.013 A 
ENDBRANCH   3   6
ENDBRANCH   1   3
BRANCH   1  13
ATOM     13  C   UNL d   1      51.332  33.719  53.123  0.00  0.00     0.154 C 
BRANCH  13  14
ATOM     14  C   UNL d   1      50.769  34.115  52.665  0.00  0.00     0.298 C 
ATOM     15  N   UNL d   1      49.979  34.134  52.896  0.00  0.00    -0.207 NA
ATOM     16  O   UNL d   1      51.007  34.492  51.971  0.00  0.00    -0.264 OA
BRANCH  15  17
ATOM     17  C   UNL d   1      49.427  34.531  52.431  0.00  0.00     0.088 A 
ATOM     18  C   UNL d   1      49.252  34.250  51.681  0.00  0.00     0.040 A 
ATOM     19  C   UNL d   1      48.700  34.647  51.217  0.00  0.00     0.101 A 
ATOM     20  N   UNL d   1      48.329  35.321  51.510  0.00  0.00    -0.242 NA
ATOM     21  C   UNL d   1      48.509  35.598  52.265  0.00  0.00     0.101 A 
ATOM     22  C   UNL d   1      49.060  35.199  52.725  0.00  0.00     0.040 A 
ENDBRANCH  15  17
ENDBRANCH  13  14
ENDBRANCH   1  13
TORSDOF 5
ENDMDL
MODEL 2
REMARK VINA RESULT:      -7.4      2.694      3.826
REMARK  5 active torsions:
REMARK  status: ('A' for Active; 'I' for Inactive)
REMARK    1  A    between atoms: N_2  and  S_1 
REMARK    2  A    between atoms: C_5  and  S_1 
REMARK    3  A    between atoms: C_3  and  N_2 
REMARK    4  A    between atoms: C_4  and  C_3 
REMARK       I    between atoms: N_8  and  C_4 
REMARK    5  A    between atoms: C_13  and  N_8 
ROOT
ATOM      1  N   UNL d   1      53.316  31.784  53.219  0.00  0.00    -0.223 N 
ATOM      2  C   UNL d   1      54.107  31.940  53.391  0.00  0.00     0.112 C 
ENDROOT
BRANCH   1   3
ATOM      3  S   UNL d   1      53.097  31.044  52.940  0.00  0.00     0.272 S 
ATOM      4  O   UNL d   1      52.798  30.962  52.175  0.00  0.00    -0.200 OA
ATOM      5  O   UNL d   1      53.406  31.328  53.649  0.00  0.00    -0.200 OA
BRANCH   3   6
ATOM      6  C   UNL d   1      53.174  30.380  53.421  0.00  0.00     0.104 A 
ATOM      7  C   UNL d   1      53.922  30.056  53.563  0.00  0.00     0.013 A 
ATOM      8  C   UNL d   1      53.991  29.389  54.047  0.00  0.00     0.001 A 
ATOM      9  C   UNL d   1      53.323  29.047  54.388  0.00  0.00     0.000 A 
ATOM     10  C   UNL d   1      52.578  29.368  54.249  0.00  0.00     0.001 A 
ATOM     11  C   UNL d   1      53.404  28.377  54.874  0.00  0.00     0.000 C 
ATOM     12  C   UNL d   1      52.499  30.035  53.765  0.00  0.00     0.013 A 
ENDBRANCH   3   6
ENDBRANCH   1   3
BRANCH   1  13
ATOM     13  C   UNL d   1      52.747  32.370  53.328  0.00  0.00     0.154 C 
BRANCH  13  14
ATOM     14  C   UNL d   1      52.969  33.140  53.525  0.00  0.00     0.298 C 
ATOM     15  N   UNL d   1      52.522  33.582  54.058  0.00  0.00    -0.207 NA
ATOM     16  O   UNL d   1      53.644  33.466  53.182  0.00  0.00    -0.264 OA
BRANCH  15  17
ATOM     17  C   UNL d   1      52.752  34.349  54.248  0.00  0.00     0.088 A 
ATOM     18  C   UNL d   1      53.164  34.488  54.943  0.00  0.00     0.040 A 
ATOM     19  C   UNL d   1      53.394  35.257  55.132  0.00  0.00     0.101 A 
ATOM     20  N   UNL d   1      53.209  35.876  54.622  0.00  0.00    -0.242 NA
ATOM     21  C   UNL d   1      52.795  35.729  53.925  0.00  0.00     0.101 A 
ATOM     22  C   UNL d   1      52.567  34.962  53.740  0.00  0.00     0.040 A 
ENDBRANCH  15  17
ENDBRANCH  13  14
ENDBRANCH   1  13
TORSDOF 5
ENDMDL
MODEL 3
REMARK VINA RESULT:      -7.1      2.019      4.675
REMARK  5 active torsions:
REMARK  status: ('A' for Active; 'I' for Inactive)
REMARK    1  A    between atoms: N_2  and  S_1 
REMARK    2  A    between atoms: C_5  and  S_1 
REMARK    3  A    between atoms: C_3  and  N_2 
REMARK    4  A    between atoms: C_4  and  C_3 
REMARK       I    between atoms: N_8  and  C_4 
REMARK    5  A    between atoms: C_13  and  N_8 
ROOT
ATOM      1  N   UNL d   1      52.336  33.475  53.233  0.00  0.00    -0.223 N 
ATOM      2  C   UNL d   1      52.147  33.363  54.028  0.00  0.00     0.112 C 
ENDROOT
BRANCH   1   3
ATOM      3  S   UNL d   1      52.130  34.176  52.860  0.00  0.00     0.272 S 
ATOM      4  O   UNL d   1      52.700  34.758  52.729  0.00  0.00    -0.200 OA
ATOM      5  O   UNL d   1      51.723  33.493  53.076  0.00  0.00    -0.200 OA
BRANCH   3   6
ATOM      6  C   UNL d   1      51.355  34.302  52.614  0.00  0.00     0.104 A 
ATOM      7  C   UNL d   1      50.778  34.531  53.161  0.00  0.00     0.013 A 
ATOM      8  C   UNL d   1      50.001  34.656  52.906  0.00  0.00     0.001 A 
ATOM      9  C   UNL d   1      49.798  34.554  52.114  0.00  0.00     0.000 A 
ATOM     10  C   UNL d   1      50.370  34.327  51.567  0.00  0.00     0.001 A 
ATOM     11  C   UNL d   1      49.015  34.682  51.869  0.00  0.00     0.000 C 
ATOM     12  C   UNL d   1      51.149  34.200  51.813  0.00  0.00     0.013 A 
ENDBRANCH   3   6
ENDBRANCH   1   3
BRANCH   1  13
ATOM     13  C   UNL d   1      52.729  32.884  52.815  0.00  0.00     0.154 C 
BRANCH  13  14
ATOM     14  C   UNL d   1      52.894  32.156  53.170  0.00  0.00     0.298 C 
ATOM     15  N   UNL d   1      52.817  31.455  52.744  0.00  0.00    -0.207 NA
ATOM     16  O   UNL d   1      53.138  32.137  53.957  0.00  0.00    -0.264 OA
BRANCH  15  17
ATOM     17  C   UNL d   1      52.983  30.735  53.107  0.00  0.00     0.088 A 
ATOM     18  C   UNL d   1      52.374  30.207  53.257  0.00  0.00     0.040 A 
ATOM     19  C   UNL d   1      52.542  29.487  53.621  0.00  0.00     0.101 A 
ATOM     20  N   UNL d   1      53.317  29.304  53.829  0.00  0.00    -0.242 NA
ATOM     21  C   UNL d   1      53.924  29.840  53.674  0.00  0.00     0.101 A 
ATOM     22  C   UNL d   1      53.754  30.557  53.312  0.00  0.00     0.040 A 
ENDBRANCH  15  17
ENDBRANCH  13  14
ENDBRANCH   1  13
TORSDOF 5
ENDMDL
MODEL 4
REMARK VINA RESULT:      -7.0      1.206      4.840
REMARK  5 active torsions:
REMARK  status: ('A' for Active; 'I' for Inactive)
REMARK    1  A    between atoms: N_2  and  S_1 
REMARK    2  A    between atoms: C_5  and  S_1 
REMARK    3  A    between atoms: C_3  and  N_2 
REMARK    4  A    between atoms: C_4  and  C_3 
REMARK       I    between atoms: N_8  and  C_4 
REMARK    5  A    between atoms: C_13  and  N_8 
ROOT
ATOM      1  N   UNL d   1      51.335  34.228  52.888  0.00  0.00    -0.223 N 
ATOM      2  C   UNL d   1      51.713  34.345  52.164  0.00  0.00     0.112 C 
ENDROOT
BRANCH   1   3
ATOM      3  S   UNL d   1      50.577  33.914  52.906  0.00  0.00     0.272 S 
ATOM      4  O   UNL d   1      50.451  33.154  53.203  0.00  0.00    -0.200 OA
ATOM      5  O   UNL d   1      50.902  34.628  52.657  0.00  0.00    -0.200 OA
BRANCH   3   6
ATOM      6  C   UNL d   1      49.940  34.354  52.628  0.00  0.00     0.104 A 
ATOM      7  C   UNL d   1      49.686  34.268  51.846  0.00  0.00     0.013 A 
ATOM      8  C   UNL d   1      49.044  34.714  51.574  0.00  0.00     0.001 A 
ATOM      9  C   UNL d   1      48.658  35.241  52.076  0.00  0.00     0.000 A 
ATOM     10  C   UNL d   1      48.908  35.329  52.855  0.00  0.00     0.001 A 
ATOM     11  C   UNL d   1      48.014  35.684  51.792  0.00  0.00     0.000 C 
ATOM     12  C   UNL d   1      49.549  34.887  53.135  0.00  0.00     0.013 A 
ENDBRANCH   3   6
ENDBRANCH   1   3
BRANCH   1  13
ATOM     13  C   UNL d   1      51.718  34.427  53.589  0.00  0.00     0.154 C 
BRANCH  13  14
ATOM     14  C   UNL d   1      52.515  34.246  53.700  0.00  0.00     0.298 C 
ATOM     15  N   UNL d   1      52.753  33.764  54.324  0.00  0.00    -0.207 NA
ATOM     16  O   UNL d   1      53.076  34.552  53.178  0.00  0.00    -0.264 OA
BRANCH  15  17
ATOM     17  C   UNL d   1      53.551  33.589  54.426  0.00  0.00     0.088 A 
ATOM     18  C   UNL d   1      53.886  32.969  54.007  0.00  0.00     0.040 A 
ATOM     19  C   UNL d   1      54.685  32.794  54.108  0.00  0.00     0.101 A 
ATOM     20  N   UNL d   1      55.139  33.243  54.628  0.00  0.00    -0.242 NA
ATOM     21  C   UNL d   1      54.795  33.865  55.046  0.00  0.00     0.101 A 
ATOM     22  C   UNL d   1      53.999  34.037  54.942  0.00  0.00     0.040 A 
ENDBRANCH  15  17
ENDBRANCH  13  14
ENDBRANCH   1  13
TORSDOF 5
ENDMDL
