MODEL 1
REMARK VINA RESULT:      -5.6      0.000      0.000
REMARK  8 active torsions:
REMARK  status: ('A' for Active; 'I' for Inactive)
REMARK    1  A    between atoms: C_2  and  C_4 
REMARK    2  A    between atoms: S_9  and  C_6 
REMARK    3  A    between atoms: C_7  and  C_17 
REMARK       I    between atoms: N_16  and  C_7 
REMARK    4  A    between atoms: C_17  and  S_9 
REMARK    5  A    between atoms: O_19  and  C_14 
REMARK    6  A    between atoms: C_15  and  C_21 
REMARK    7  A    between atoms: C_20  and  N_16 
REMARK    8  A    between atoms: C_21  and  C_20 
ROOT
ATOM      1  C   UNL d   1     -43.475  12.872  21.471  0.00  0.00     0.286 C 
ATOM      2  O   UNL d   1     -43.319  12.151  21.834  0.00  0.00    -0.265 OA
ATOM      3  N   UNL d   1     -44.188  13.244  21.600  0.00  0.00    -0.206 NA
ENDROOT
BRANCH   1   4
ATOM      4  C   UNL d   1     -42.908  13.214  20.976  0.00  0.00     0.099 C 
BRANCH   4   5
ATOM      5  S   UNL d   1     -42.146  13.337  21.257  0.00  0.00    -0.061 SA
BRANCH   5   6
ATOM      6  C   UNL d   1     -41.604  13.775  20.816  0.00  0.00     0.133 A 
ATOM      7  N   UNL d   1     -41.503  13.630  20.017  0.00  0.00    -0.141 NA
ATOM      8  N   UNL d   1     -40.966  14.062  19.576  0.00  0.00    -0.147 NA
ATOM      9  C   UNL d   1     -40.520  14.652  19.941  0.00  0.00     0.109 A 
ATOM     10  C   UNL d   1     -40.616  14.804  20.749  0.00  0.00     0.024 A 
ATOM     11  C   UNL d   1     -41.152  14.370  21.181  0.00  0.00     0.029 A 
BRANCH   9  12
ATOM     12  C   UNL d   1     -39.978  15.090  19.504  0.00  0.00     0.049 A 
ATOM     13  S   UNL d   1     -40.149  15.593  18.875  0.00  0.00    -0.085 SA
ATOM     14  C   UNL d   1     -39.445  15.921  18.596  0.00  0.00     0.035 A 
ATOM     15  C   UNL d   1     -38.824  15.615  19.063  0.00  0.00     0.007 A 
ATOM     16  C   UNL d   1     -39.151  15.102  19.625  0.00  0.00     0.009 A 
ENDBRANCH   9  12
ENDBRANCH   5   6
ENDBRANCH   4   5
ENDBRANCH   1   4
BRANCH   3  17
ATOM     17  C   UNL d   1     -44.756  12.901  22.095  0.00  0.00     0.102 C 
BRANCH  17  18
ATOM     18  C   UNL d   1     -45.460  13.294  22.249  0.00  0.00     0.023 C 
BRANCH  18  19
ATOM     19  C   UNL d   1     -46.045  12.933  22.709  0.00  0.00     0.024 A 
ATOM     20  C   UNL d   1     -46.738  13.332  22.883  0.00  0.00     0.094 A 
ATOM     21  C   UNL d   1     -47.314  12.977  23.335  0.00  0.00     0.024 A 
ATOM     22  C   UNL d   1     -47.200  12.208  23.622  0.00  0.00     0.002 A 
ATOM     23  C   UNL d   1     -46.499  11.805  23.446  0.00  0.00     0.000 A 
ATOM     24  C   UNL d   1     -45.924  12.173  22.988  0.00  0.00     0.002 A 
BRANCH  20  25
ATOM     25  O   UNL d   1     -46.856  14.094  22.602  0.00  0.00    -0.328 OA
ATOM     26  C   UNL d   1     -47.572  14.473  22.743  0.00  0.00     0.181 C 
ENDBRANCH  20  25
ENDBRANCH  18  19
ENDBRANCH  17  18
ENDBRANCH   3  17
TORSDOF 8
ENDMDL
MODEL 2
REMARK VINA RESULT:      -5.5      1.970      6.637
REMARK  8 active torsions:
REMARK  status: ('A' for Active; 'I' for Inactive)
REMARK    1  A    between atoms: C_2  and  C_4 
REMARK    2  A    between atoms: S_9  and  C_6 
REMARK    3  A    between atoms: C_7  and  C_17 
REMARK       I    between atoms: N_16  and  C_7 
REMARK    4  A    between atoms: C_17  and  S_9 
REMARK    5  A    between atoms: O_19  and  C_14 
REMARK    6  A    between atoms: C_15  and  C_21 
REMARK    7  A    between atoms: C_20  and  N_16 
REMARK    8  A    between atoms: C_21  and  C_20 
ROOT
ATOM      1  C   UNL d   1     -43.553  12.915  21.523  0.00  0.00     0.286 C 
ATOM      2  O   UNL d   1     -43.191  12.245  21.835  0.00  0.00    -0.265 OA
ATOM      3  N   UNL d   1     -43.099  13.494  21.175  0.00  0.00    -0.206 NA
ENDROOT
BRANCH   1   4
ATOM      4  C   UNL d   1     -44.375  12.995  21.565  0.00  0.00     0.099 C 
BRANCH   4   5
ATOM      5  S   UNL d   1     -44.760  12.857  22.277  0.00  0.00    -0.061 SA
BRANCH   5   6
ATOM      6  C   UNL d   1     -45.518  13.154  22.407  0.00  0.00     0.133 A 
ATOM      7  N   UNL d   1     -45.645  13.745  22.959  0.00  0.00    -0.141 NA
ATOM      8  N   UNL d   1     -46.396  14.043  23.091  0.00  0.00    -0.147 NA
ATOM      9  C   UNL d   1     -47.033  13.745  22.661  0.00  0.00     0.109 A 
ATOM     10  C   UNL d   1     -46.913  13.149  22.101  0.00  0.00     0.024 A 
ATOM     11  C   UNL d   1     -46.164  12.857  21.975  0.00  0.00     0.029 A 
BRANCH   9  12
ATOM     12  C   UNL d   1     -47.791  14.040  22.788  0.00  0.00     0.049 A 
ATOM     13  S   UNL d   1     -48.444  13.615  23.056  0.00  0.00    -0.085 SA
ATOM     14  C   UNL d   1     -49.092  14.123  23.104  0.00  0.00     0.035 A 
ATOM     15  C   UNL d   1     -48.835  14.880  22.861  0.00  0.00     0.007 A 
ATOM     16  C   UNL d   1     -48.033  14.831  22.665  0.00  0.00     0.009 A 
ENDBRANCH   9  12
ENDBRANCH   5   6
ENDBRANCH   4   5
ENDBRANCH   1   4
BRANCH   3  17
ATOM     17  C   UNL d   1     -42.277  13.414  21.133  0.00  0.00     0.102 C 
BRANCH  17  18
ATOM     18  C   UNL d   1     -41.856  13.783  20.532  0.00  0.00     0.023 C 
BRANCH  18  19
ATOM     19  C   UNL d   1     -41.065  13.993  20.647  0.00  0.00     0.024 A 
ATOM     20  C   UNL d   1     -40.579  14.138  20.005  0.00  0.00     0.094 A 
ATOM     21  C   UNL d   1     -39.800  14.344  20.118  0.00  0.00     0.024 A 
ATOM     22  C   UNL d   1     -39.495  14.408  20.886  0.00  0.00     0.002 A 
ATOM     23  C   UNL d   1     -39.987  14.261  21.535  0.00  0.00     0.000 A 
ATOM     24  C   UNL d   1     -40.772  14.054  21.409  0.00  0.00     0.002 A 
BRANCH  20  25
ATOM     25  O   UNL d   1     -40.875  14.075  19.242  0.00  0.00    -0.328 OA
ATOM     26  C   UNL d   1     -40.400  14.285  18.604  0.00  0.00     0.181 C 
ENDBRANCH  20  25
ENDBRANCH  18  19
ENDBRANCH  17  18
ENDBRANCH   3  17
TORSDOF 8
ENDMDL
MODEL 3
REMARK VINA RESULT:      -4.2      1.896      6.679
REMARK  8 active torsions:
REMARK  status: ('A' for Active; 'I' for Inactive)
REMARK    1  A    between atoms: C_2  and  C_4 
REMARK    2  A    between atoms: S_9  and  C_6 
REMARK    3  A    between atoms: C_7  and  C_17 
REMARK       I    between atoms: N_16  and  C_7 
REMARK    4  A    between atoms: C_17  and  S_9 
REMARK    5  A    between atoms: O_19  and  C_14 
REMARK    6  A    between atoms: C_15  and  C_21 
REMARK    7  A    between atoms: C_20  and  N_16 
REMARK    8  A    between atoms: C_21  and  C_20 
ROOT
ATOM      1  C   UNL d   1     -41.801  13.627  20.944  0.00  0.00     0.286 C 
ATOM      2  O   UNL d   1     -41.120  13.392  21.342  0.00  0.00    -0.265 OA
ATOM      3  N   UNL d   1     -41.744  13.938  20.193  0.00  0.00    -0.206 NA
ENDROOT
BRANCH   1   4
ATOM      4  C   UNL d   1     -42.539  13.547  21.309  0.00  0.00     0.099 C 
BRANCH   4   5
ATOM      5  S   UNL d   1     -42.956  12.844  21.230  0.00  0.00    -0.061 SA
BRANCH   5   6
ATOM      6  C   UNL d   1     -43.659  12.727  21.644  0.00  0.00     0.133 A 
ATOM      7  N   UNL d   1     -43.735  12.104  22.170  0.00  0.00    -0.141 NA
ATOM      8  N   UNL d   1     -44.431  11.985  22.583  0.00  0.00    -0.147 NA
ATOM      9  C   UNL d   1     -45.066  12.499  22.468  0.00  0.00     0.109 A 
ATOM     10  C   UNL d   1     -44.997  13.130  21.938  0.00  0.00     0.024 A 
ATOM     11  C   UNL d   1     -44.302  13.243  21.531  0.00  0.00     0.029 A 
BRANCH   9  12
ATOM     12  C   UNL d   1     -45.769  12.385  22.880  0.00  0.00     0.049 A 
ATOM     13  S   UNL d   1     -46.384  12.927  22.958  0.00  0.00    -0.085 SA
ATOM     14  C   UNL d   1     -46.983  12.589  23.414  0.00  0.00     0.035 A 
ATOM     15  C   UNL d   1     -46.733  11.820  23.623  0.00  0.00     0.007 A 
ATOM     16  C   UNL d   1     -45.984  11.692  23.294  0.00  0.00     0.009 A 
ENDBRANCH   9  12
ENDBRANCH   5   6
ENDBRANCH   4   5
ENDBRANCH   1   4
BRANCH   3  17
ATOM     17  C   UNL d   1     -41.006  14.018  19.828  0.00  0.00     0.102 C 
BRANCH  17  18
ATOM     18  C   UNL d   1     -40.930  14.463  19.143  0.00  0.00     0.023 C 
BRANCH  18  19
ATOM     19  C   UNL d   1     -40.319  14.305  18.609  0.00  0.00     0.024 A 
ATOM     20  C   UNL d   1     -40.374  14.555  17.832  0.00  0.00     0.094 A 
ATOM     21  C   UNL d   1     -39.773  14.399  17.306  0.00  0.00     0.024 A 
ATOM     22  C   UNL d   1     -39.101  13.984  17.557  0.00  0.00     0.002 A 
ATOM     23  C   UNL d   1     -39.045  13.731  18.343  0.00  0.00     0.000 A 
ATOM     24  C   UNL d   1     -39.659  13.894  18.865  0.00  0.00     0.002 A 
BRANCH  20  25
ATOM     25  O   UNL d   1     -41.038  14.966  17.578  0.00  0.00    -0.328 OA
ATOM     26  C   UNL d   1     -41.022  15.354  16.854  0.00  0.00     0.181 C 
ENDBRANCH  20  25
ENDBRANCH  18  19
ENDBRANCH  17  18
ENDBRANCH   3  17
TORSDOF 8
ENDMDL
MODEL 4
REMARK VINA RESULT:      -3.7      1.590      2.341
REMARK  8 active torsions:
REMARK  status: ('A' for Active; 'I' for Inactive)
REMARK    1  A    between atoms: C_2  and  C_4 
REMARK    2  A    between atoms: S_9  and  C_6 
REMARK    3  A    between atoms: C_7  and  C_17 
REMARK       I    between atoms: N_16  and  C_7 
REMARK    4  A    between atoms: C_17  and  S_9 
REMARK    5  A    between atoms: O_19  and  C_14 
REMARK    6  A    between atoms: C_15  and  C_21 
REMARK    7  A    between atoms: C_20  and  N_16 
REMARK    8  A    between atoms: C_21  and  C_20 
ROOT
ATOM      1  C   UNL d   1     -45.479  12.877  22.425  0.00  0.00     0.286 C 
ATOM      2  O   UNL d   1     -45.366  12.293  22.994  0.00  0.00    -0.265 OA
ATOM      3  N   UNL d   1     -46.232  13.140  22.261  0.00  0.00    -0.206 NA
ENDROOT
BRANCH   1   4
ATOM      4  C   UNL d   1     -44.828  13.191  22.024  0.00  0.00     0.099 C 
BRANCH   4   5
ATOM      5  S   UNL d   1     -44.222  12.693  21.782  0.00  0.00    -0.061 SA
BRANCH   5   6
ATOM      6  C   UNL d   1     -43.494  13.004  21.550  0.00  0.00     0.133 A 
ATOM      7  N   UNL d   1     -42.849  12.513  21.434  0.00  0.00    -0.141 NA
ATOM      8  N   UNL d   1     -42.126  12.818  21.204  0.00  0.00    -0.147 NA
ATOM      9  C   UNL d   1     -42.044  13.630  21.085  0.00  0.00     0.109 A 
ATOM     10  C   UNL d   1     -42.692  14.132  21.199  0.00  0.00     0.024 A 
ATOM     11  C   UNL d   1     -43.408  13.822  21.429  0.00  0.00     0.029 A 
BRANCH   9  12
ATOM     12  C   UNL d   1     -41.320  13.943  20.853  0.00  0.00     0.049 A 
ATOM     13  S   UNL d   1     -41.142  14.276  20.121  0.00  0.00    -0.085 SA
ATOM     14  C   UNL d   1     -40.354  14.520  20.122  0.00  0.00     0.035 A 
ATOM     15  C   UNL d   1     -40.037  14.335  20.872  0.00  0.00     0.007 A 
ATOM     16  C   UNL d   1     -40.631  13.979  21.324  0.00  0.00     0.009 A 
ENDBRANCH   9  12
ENDBRANCH   5   6
ENDBRANCH   4   5
ENDBRANCH   1   4
BRANCH   3  17
ATOM     17  C   UNL d   1     -46.883  12.826  22.663  0.00  0.00     0.102 C 
BRANCH  17  18
ATOM     18  C   UNL d   1     -47.645  13.038  22.444  0.00  0.00     0.023 C 
BRANCH  18  19
ATOM     19  C   UNL d   1     -48.293  12.606  22.722  0.00  0.00     0.024 A 
ATOM     20  C   UNL d   1     -49.000  12.612  22.311  0.00  0.00     0.094 A 
ATOM     21  C   UNL d   1     -49.638  12.186  22.584  0.00  0.00     0.024 A 
ATOM     22  C   UNL d   1     -49.573  11.744  23.282  0.00  0.00     0.002 A 
ATOM     23  C   UNL d   1     -48.858  11.739  23.698  0.00  0.00     0.000 A 
ATOM     24  C   UNL d   1     -48.220  12.172  23.412  0.00  0.00     0.002 A 
BRANCH  20  25
ATOM     25  O   UNL d   1     -49.071  13.048  21.619  0.00  0.00    -0.328 OA
ATOM     26  C   UNL d   1     -49.817  13.206  21.313  0.00  0.00     0.181 C 
ENDBRANCH  20  25
ENDBRANCH  18  19
ENDBRANCH  17  18
ENDBRANCH   3  17
TORSDOF 8
ENDMDL
