MODEL 1
REMARK VINA RESULT:      17.9      0.000      0.000
REMARK  3 active torsions:
REMARK  status: ('A' for Active; 'I' for Inactive)
REMARK    1  A    between atoms: C_4  and  C_1 
REMARK       I    between atoms: N_8  and  C_4 
REMARK    2  A    between atoms: C_15  and  C_11 
REMARK    3  A    between atoms: C_12  and  C_15 
ROOT
ATOM      1  C   UNL d   1      46.465 -18.704  41.954  0.00  0.00     0.120 A 
ATOM      2  C   UNL d   1      46.455 -17.889  42.105  0.00  0.00     0.305 A 
ATOM      3  O   UNL d   1      46.409 -17.611  42.895  0.00  0.00    -0.273 OA
ATOM      4  C   UNL d   1      46.429 -19.254  42.587  0.00  0.00     0.012 A 
ATOM      5  C   UNL d   1      46.373 -18.146  43.517  0.00  0.00     0.103 A 
ATOM      6  C   UNL d   1      46.383 -18.970  43.364  0.00  0.00     0.023 A 
ATOM      7  O   UNL d   1      46.490 -17.350  41.483  0.00  0.00    -0.259 OA
ATOM      8  C   UNL d   1      46.328 -17.881  44.304  0.00  0.00     0.023 A 
ATOM      9  C   UNL d   1      46.347 -19.509  43.994  0.00  0.00     0.002 A 
ATOM     10  C   UNL d   1      46.302 -19.229  44.772  0.00  0.00     0.000 A 
ATOM     11  C   UNL d   1      46.292 -18.420  44.926  0.00  0.00     0.002 A 
ENDROOT
BRANCH   1  12
ATOM     12  C   UNL d   1      46.510 -18.977  41.179  0.00  0.00     0.270 C 
ATOM     13  N   UNL d   1      46.586 -19.782  41.023  0.00  0.00    -0.269 N 
ATOM     14  C   UNL d   1      46.632 -20.055  40.247  0.00  0.00     0.102 C 
ATOM     15  C   UNL d   1      46.618 -20.315  41.652  0.00  0.00     0.102 C 
ATOM     16  O   UNL d   1      46.478 -18.444  40.551  0.00  0.00    -0.266 OA
ENDBRANCH   1  12
BRANCH   8  17
ATOM     17  C   UNL d   1      46.318 -17.070  44.459  0.00  0.00     0.002 C 
BRANCH  17  18
ATOM     18  C   UNL d   1      45.644 -16.719  44.778  0.00  0.00     0.000 C 
ATOM     19  C   UNL d   1      45.643 -15.914  44.953  0.00  0.00     0.000 C 
ENDBRANCH  17  18
ENDBRANCH   8  17
TORSDOF 3
ENDMDL
MODEL 2
REMARK VINA RESULT:      18.6      1.581      3.533
REMARK  3 active torsions:
REMARK  status: ('A' for Active; 'I' for Inactive)
REMARK    1  A    between atoms: C_4  and  C_1 
REMARK       I    between atoms: N_8  and  C_4 
REMARK    2  A    between atoms: C_15  and  C_11 
REMARK    3  A    between atoms: C_12  and  C_15 
ROOT
ATOM      1  C   UNL d   1      46.144 -16.984  44.160  0.00  0.00     0.120 A 
ATOM      2  C   UNL d   1      46.240 -17.118  43.348  0.00  0.00     0.305 A 
ATOM      3  O   UNL d   1      46.377 -17.896  43.067  0.00  0.00    -0.273 OA
ATOM      4  C   UNL d   1      46.183 -17.621  44.704  0.00  0.00     0.012 A 
ATOM      5  C   UNL d   1      46.416 -18.523  43.595  0.00  0.00     0.103 A 
ATOM      6  C   UNL d   1      46.319 -18.387  44.416  0.00  0.00     0.023 A 
ATOM      7  O   UNL d   1      46.202 -16.492  42.814  0.00  0.00    -0.259 OA
ATOM      8  C   UNL d   1      46.551 -19.299  43.327  0.00  0.00     0.023 A 
ATOM      9  C   UNL d   1      46.358 -19.021  44.950  0.00  0.00     0.002 A 
ATOM     10  C   UNL d   1      46.493 -19.788  44.667  0.00  0.00     0.000 A 
ATOM     11  C   UNL d   1      46.589 -19.926  43.861  0.00  0.00     0.002 A 
ENDROOT
BRANCH   1  12
ATOM     12  C   UNL d   1      46.010 -16.220  44.435  0.00  0.00     0.270 C 
ATOM     13  N   UNL d   1      45.253 -15.982  44.655  0.00  0.00    -0.269 N 
ATOM     14  C   UNL d   1      45.118 -15.218  44.930  0.00  0.00     0.102 C 
ATOM     15  C   UNL d   1      44.627 -16.517  44.596  0.00  0.00     0.102 C 
ATOM     16  O   UNL d   1      46.635 -15.685  44.494  0.00  0.00    -0.266 OA
ENDBRANCH   1  12
BRANCH   8  17
ATOM     17  C   UNL d   1      46.647 -19.437  42.520  0.00  0.00     0.002 C 
BRANCH  17  18
ATOM     18  C   UNL d   1      46.501 -20.186  42.208  0.00  0.00     0.000 C 
ATOM     19  C   UNL d   1      46.583 -20.320  41.399  0.00  0.00     0.000 C 
ENDBRANCH  17  18
ENDBRANCH   8  17
TORSDOF 3
ENDMDL
