MODEL 1
REMARK VINA RESULT:      -1.6      0.000      0.000
REMARK  5 active torsions:
REMARK  status: ('A' for Active; 'I' for Inactive)
REMARK    1  A    between atoms: C_6  and  N_1 
REMARK    2  A    between atoms: C_8  and  C_3 
REMARK    3  A    between atoms: C_7  and  C_6 
REMARK    4  A    between atoms: C_9  and  C_7 
REMARK    5  A    between atoms: C_14  and  C_8 
ROOT
ATOM      1  N   UNL d   1     -41.330-122.446 -51.815  0.00  0.00    -0.289 N 
ATOM      2  N   UNL d   1     -41.332-121.493 -52.762  0.00  0.00    -0.227 NA
ATOM      3  C   UNL d   1     -41.297-121.628 -51.943  0.00  0.00     0.148 A 
ATOM      4  C   UNL d   1     -41.386-122.817 -52.554  0.00  0.00     0.083 A 
ATOM      5  C   UNL d   1     -41.387-122.233 -53.137  0.00  0.00     0.099 A 
ATOM      6  C   UNL d   1     -41.435-123.616 -52.778  0.00  0.00     0.019 A 
ATOM      7  C   UNL d   1     -41.437-122.438 -53.934  0.00  0.00     0.021 A 
ATOM      8  C   UNL d   1     -41.485-123.817 -53.573  0.00  0.00     0.002 A 
ATOM      9  C   UNL d   1     -41.486-123.228 -54.151  0.00  0.00     0.002 A 
ENDROOT
BRANCH   1  10
ATOM     10  C   UNL d   1     -41.312-122.821 -51.090  0.00  0.00     0.082 C 
BRANCH  10  11
ATOM     11  C   UNL d   1     -42.088-122.877 -50.808  0.00  0.00     0.019 C 
BRANCH  11  12
ATOM     12  C   UNL d   1     -42.226-123.136 -50.039  0.00  0.00     0.002 A 
ATOM     13  C   UNL d   1     -43.002-123.230 -49.772  0.00  0.00     0.000 A 
ATOM     14  C   UNL d   1     -43.138-123.490 -49.001  0.00  0.00     0.000 A 
ATOM     15  C   UNL d   1     -42.505-123.652 -48.505  0.00  0.00     0.000 A 
ATOM     16  C   UNL d   1     -41.732-123.556 -48.778  0.00  0.00     0.000 A 
ATOM     17  C   UNL d   1     -41.598-123.299 -49.541  0.00  0.00     0.000 A 
ENDBRANCH  11  12
ENDBRANCH  10  11
ENDBRANCH   1  10
BRANCH   3  18
ATOM     18  C   UNL d   1     -41.240-121.050 -51.364  0.00  0.00     0.037 C 
BRANCH  18  19
ATOM     19  C   UNL d   1     -41.328-120.252 -51.569  0.00  0.00     0.003 C 
ATOM     20  C   UNL d   1     -41.131-119.672 -51.029  0.00  0.00     0.000 C 
ENDBRANCH  18  19
ENDBRANCH   3  18
TORSDOF 5
ENDMDL
MODEL 2
REMARK VINA RESULT:       0.8      1.475      4.083
REMARK  5 active torsions:
REMARK  status: ('A' for Active; 'I' for Inactive)
REMARK    1  A    between atoms: C_6  and  N_1 
REMARK    2  A    between atoms: C_8  and  C_3 
REMARK    3  A    between atoms: C_7  and  C_6 
REMARK    4  A    between atoms: C_9  and  C_7 
REMARK    5  A    between atoms: C_14  and  C_8 
ROOT
ATOM      1  N   UNL d   1     -42.278-123.296 -49.561  0.00  0.00    -0.289 N 
ATOM      2  N   UNL d   1     -43.019-122.571 -48.708  0.00  0.00    -0.227 NA
ATOM      3  C   UNL d   1     -42.934-122.793 -49.503  0.00  0.00     0.148 A 
ATOM      4  C   UNL d   1     -41.958-123.385 -48.802  0.00  0.00     0.083 A 
ATOM      5  C   UNL d   1     -42.412-122.940 -48.276  0.00  0.00     0.099 A 
ATOM      6  C   UNL d   1     -41.308-123.816 -48.515  0.00  0.00     0.019 A 
ATOM      7  C   UNL d   1     -42.224-122.922 -47.474  0.00  0.00     0.021 A 
ATOM      8  C   UNL d   1     -41.123-123.796 -47.715  0.00  0.00     0.002 A 
ATOM      9  C   UNL d   1     -41.581-123.349 -47.195  0.00  0.00     0.002 A 
ENDROOT
BRANCH   1  10
ATOM     10  C   UNL d   1     -41.996-123.643 -50.245  0.00  0.00     0.082 C 
BRANCH  10  11
ATOM     11  C   UNL d   1     -41.413-123.149 -50.564  0.00  0.00     0.019 C 
BRANCH  11  12
ATOM     12  C   UNL d   1     -41.322-123.098 -51.380  0.00  0.00     0.002 A 
ATOM     13  C   UNL d   1     -41.219-122.359 -51.735  0.00  0.00     0.000 A 
ATOM     14  C   UNL d   1     -41.128-122.309 -52.553  0.00  0.00     0.000 A 
ATOM     15  C   UNL d   1     -41.140-122.991 -53.009  0.00  0.00     0.000 A 
ATOM     16  C   UNL d   1     -41.243-123.727 -52.648  0.00  0.00     0.000 A 
ATOM     17  C   UNL d   1     -41.333-123.775 -51.838  0.00  0.00     0.000 A 
ENDBRANCH  11  12
ENDBRANCH  10  11
ENDBRANCH   1  10
BRANCH   3  18
ATOM     18  C   UNL d   1     -43.416-122.554 -50.122  0.00  0.00     0.037 C 
BRANCH  18  19
ATOM     19  C   UNL d   1     -44.166-122.240 -49.962  0.00  0.00     0.003 C 
ATOM     20  C   UNL d   1     -44.458-121.633 -50.424  0.00  0.00     0.000 C 
ENDBRANCH  18  19
ENDBRANCH   3  18
TORSDOF 5
ENDMDL
