MODEL 1
REMARK VINA RESULT:      82.6      0.000      0.000
REMARK  3 active torsions:
REMARK  status: ('A' for Active; 'I' for Inactive)
REMARK    1  A    between atoms: N_7  and  C_1 
REMARK       I    between atoms: C_11  and  N_6 
REMARK       I    between atoms: C_10  and  N_7 
REMARK    2  A    between atoms: C_17  and  C_10 
REMARK    3  A    between atoms: C_14  and  C_17 
ROOT
ATOM      1  C   UNL d   1      60.658  48.912  50.515  0.00  0.00     0.124 A 
ATOM      2  C   UNL d   1      60.327  49.259  51.184  0.00  0.00     0.093 A 
ATOM      3  C   UNL d   1      59.336  49.054  50.313  0.00  0.00     0.049 A 
ATOM      4  C   UNL d   1      59.511  49.347  51.061  0.00  0.00     0.021 A 
ATOM      5  S   UNL d   1      60.045  48.780  49.965  0.00  0.00    -0.066 SA
ATOM      6  N   UNL d   1      57.955  49.378  50.507  0.00  0.00    -0.272 N 
ATOM      7  C   UNL d   1      58.561  49.068  50.033  0.00  0.00     0.089 A 
ATOM      8  C   UNL d   1      60.739  49.481  51.863  0.00  0.00     0.103 C 
ATOM      9  C   UNL d   1      57.173  49.394  50.228  0.00  0.00     0.265 C 
ATOM     10  N   UNL d   1      61.155  49.703  52.541  0.00  0.00    -0.191 NA
ATOM     11  C   UNL d   1      58.914  49.657  51.536  0.00  0.00     0.020 A 
ATOM     12  C   UNL d   1      58.132  49.673  51.258  0.00  0.00     0.083 A 
ATOM     13  O   UNL d   1      56.996  49.099  49.477  0.00  0.00    -0.267 OA
ATOM     14  C   UNL d   1      56.567  49.704  50.702  0.00  0.00     0.066 C 
ENDROOT
BRANCH   1  15
ATOM     15  N   UNL d   1      61.444  48.723  50.395  0.00  0.00    -0.201 NA
ATOM     16  C   UNL d   1      61.649  47.947  50.220  0.00  0.00     0.280 C 
ATOM     17  O   UNL d   1      62.451  47.750  50.097  0.00  0.00    -0.265 OA
BRANCH  16  18
ATOM     18  C   UNL d   1      61.079  47.357  50.163  0.00  0.00     0.062 C 
BRANCH  18  19
ATOM     19  C   UNL d   1      61.283  46.595  49.925  0.00  0.00     0.005 A 
ATOM     20  C   UNL d   1      61.172  45.952  50.444  0.00  0.00     0.000 A 
ATOM     21  C   UNL d   1      61.380  45.190  50.195  0.00  0.00     0.000 A 
ATOM     22  C   UNL d   1      60.857  46.086  51.194  0.00  0.00     0.000 C 
ATOM     23  C   UNL d   1      61.693  45.059  49.448  0.00  0.00     0.000 A 
ATOM     24  C   UNL d   1      61.804  45.696  48.934  0.00  0.00     0.000 A 
ATOM     25  C   UNL d   1      61.898  44.303  49.205  0.00  0.00     0.000 C 
ATOM     26  C   UNL d   1      61.600  46.465  49.168  0.00  0.00     0.000 A 
ENDBRANCH  18  19
ENDBRANCH  16  18
ENDBRANCH   1  15
TORSDOF 3
ENDMDL
