MODEL 1
REMARK VINA RESULT:      55.6      0.000      0.000
REMARK  6 active torsions:
REMARK  status: ('A' for Active; 'I' for Inactive)
REMARK    1  A    between atoms: S_12  and  C_1 
REMARK    2  A    between atoms: C_2  and  S_11 
REMARK    3  A    between atoms: S_11  and  C_15 
REMARK    4  A    between atoms: C_16  and  S_12 
REMARK    5  A    between atoms: C_13  and  C_16 
REMARK    6  A    between atoms: C_15  and  C_13 
ROOT
ATOM      1  C   UNL d   1     -55.544-100.609 -43.394  0.00  0.00     0.209 C 
ATOM      2  O   UNL d   1     -56.159-101.152 -43.547  0.00  0.00    -0.285 OA
ENDROOT
BRANCH   1   3
ATOM      3  C   UNL d   1     -54.840-100.875 -43.042  0.00  0.00     0.080 C 
BRANCH   3   4
ATOM      4  S   UNL d   1     -54.785-101.641 -42.732  0.00  0.00    -0.058 SA
BRANCH   4   5
ATOM      5  C   UNL d   1     -54.827-101.766 -41.919  0.00  0.00     0.141 A 
ATOM      6  N   UNL d   1     -54.714-101.197 -41.324  0.00  0.00    -0.232 NA
ATOM      7  C   UNL d   1     -54.808-101.568 -40.592  0.00  0.00     0.088 A 
ATOM      8  C   UNL d   1     -54.760-101.281 -39.820  0.00  0.00     0.020 A 
ATOM      9  C   UNL d   1     -54.981-102.374 -40.725  0.00  0.00     0.049 A 
ATOM     10  C   UNL d   1     -54.881-101.783 -39.178  0.00  0.00     0.002 A 
ATOM     11  C   UNL d   1     -55.053-102.587 -39.311  0.00  0.00     0.001 A 
ATOM     12  C   UNL d   1     -55.102-102.876 -40.086  0.00  0.00     0.008 A 
ATOM     13  S   UNL d   1     -54.993-102.497 -41.544  0.00  0.00    -0.060 SA
ENDBRANCH   4   5
ENDBRANCH   3   4
ENDBRANCH   1   3
BRANCH   1  14
ATOM     14  C   UNL d   1     -55.639 -99.815 -43.592  0.00  0.00     0.080 C 
BRANCH  14  15
ATOM     15  S   UNL d   1     -56.288 -99.387 -43.307  0.00  0.00    -0.058 SA
BRANCH  15  16
ATOM     16  C   UNL d   1     -56.950 -99.269 -43.781  0.00  0.00     0.141 A 
ATOM     17  N   UNL d   1     -56.948 -99.069 -44.591  0.00  0.00    -0.232 NA
ATOM     18  C   UNL d   1     -57.741 -99.007 -44.840  0.00  0.00     0.088 A 
ATOM     19  C   UNL d   1     -58.071 -98.827 -45.568  0.00  0.00     0.020 A 
ATOM     20  C   UNL d   1     -58.229 -99.166 -44.196  0.00  0.00     0.049 A 
ATOM     21  C   UNL d   1     -58.890 -98.803 -45.664  0.00  0.00     0.002 A 
ATOM     22  C   UNL d   1     -59.382 -98.964 -45.008  0.00  0.00     0.001 A 
ATOM     23  C   UNL d   1     -59.050 -99.145 -44.275  0.00  0.00     0.008 A 
ATOM     24  S   UNL d   1     -57.741 -99.329 -43.536  0.00  0.00    -0.060 SA
ENDBRANCH  15  16
ENDBRANCH  14  15
ENDBRANCH   1  14
TORSDOF 6
ENDMDL
MODEL 2
REMARK VINA RESULT:      56.6      1.271      5.248
REMARK  6 active torsions:
REMARK  status: ('A' for Active; 'I' for Inactive)
REMARK    1  A    between atoms: S_12  and  C_1 
REMARK    2  A    between atoms: C_2  and  S_11 
REMARK    3  A    between atoms: S_11  and  C_15 
REMARK    4  A    between atoms: C_16  and  S_12 
REMARK    5  A    between atoms: C_13  and  C_16 
REMARK    6  A    between atoms: C_15  and  C_13 
ROOT
ATOM      1  C   UNL d   1     -55.275 -99.771 -44.333  0.00  0.00     0.209 C 
ATOM      2  O   UNL d   1     -54.960 -99.961 -43.584  0.00  0.00    -0.285 OA
ENDROOT
BRANCH   1   3
ATOM      3  C   UNL d   1     -55.640 -99.033 -44.449  0.00  0.00     0.080 C 
BRANCH   3   4
ATOM      4  S   UNL d   1     -56.278 -98.798 -43.977  0.00  0.00    -0.058 SA
BRANCH   4   5
ATOM      5  C   UNL d   1     -57.043 -98.790 -44.283  0.00  0.00     0.141 A 
ATOM      6  N   UNL d   1     -57.750 -98.792 -43.846  0.00  0.00    -0.232 NA
ATOM      7  C   UNL d   1     -58.382 -98.782 -44.379  0.00  0.00     0.088 A 
ATOM      8  C   UNL d   1     -59.198 -98.779 -44.263  0.00  0.00     0.020 A 
ATOM      9  C   UNL d   1     -58.072 -98.773 -45.154  0.00  0.00     0.049 A 
ATOM     10  C   UNL d   1     -59.713 -98.768 -44.907  0.00  0.00     0.002 A 
ATOM     11  C   UNL d   1     -59.404 -98.760 -45.681  0.00  0.00     0.001 A 
ATOM     12  C   UNL d   1     -58.583 -98.763 -45.798  0.00  0.00     0.008 A 
ATOM     13  S   UNL d   1     -57.246 -98.779 -45.096  0.00  0.00    -0.060 SA
ENDBRANCH   4   5
ENDBRANCH   3   4
ENDBRANCH   1   3
BRANCH   1  14
ATOM     14  C   UNL d   1     -55.222-100.313 -44.951  0.00  0.00     0.080 C 
BRANCH  14  15
ATOM     15  S   UNL d   1     -54.997-101.096 -44.803  0.00  0.00    -0.058 SA
BRANCH  15  16
ATOM     16  C   UNL d   1     -54.931-101.372 -44.030  0.00  0.00     0.141 A 
ATOM     17  N   UNL d   1     -54.889-100.904 -43.342  0.00  0.00    -0.232 NA
ATOM     18  C   UNL d   1     -54.826-101.417 -42.687  0.00  0.00     0.088 A 
ATOM     19  C   UNL d   1     -54.768-101.271 -41.884  0.00  0.00     0.020 A 
ATOM     20  C   UNL d   1     -54.828-102.192 -42.965  0.00  0.00     0.049 A 
ATOM     21  C   UNL d   1     -54.711-101.894 -41.347  0.00  0.00     0.002 A 
ATOM     22  C   UNL d   1     -54.714-102.680 -41.632  0.00  0.00     0.001 A 
ATOM     23  C   UNL d   1     -54.772-102.827 -42.440  0.00  0.00     0.008 A 
ATOM     24  S   UNL d   1     -54.893-102.168 -43.799  0.00  0.00    -0.060 SA
ENDBRANCH  15  16
ENDBRANCH  14  15
ENDBRANCH   1  14
TORSDOF 6
ENDMDL
MODEL 3
REMARK VINA RESULT:      57.6      2.053      2.884
REMARK  6 active torsions:
REMARK  status: ('A' for Active; 'I' for Inactive)
REMARK    1  A    between atoms: S_12  and  C_1 
REMARK    2  A    between atoms: C_2  and  S_11 
REMARK    3  A    between atoms: S_11  and  C_15 
REMARK    4  A    between atoms: C_16  and  S_12 
REMARK    5  A    between atoms: C_13  and  C_16 
REMARK    6  A    between atoms: C_15  and  C_13 
ROOT
ATOM      1  C   UNL d   1     -55.189-102.171 -41.551  0.00  0.00     0.209 C 
ATOM      2  O   UNL d   1     -55.557-101.439 -41.392  0.00  0.00    -0.285 OA
ENDROOT
BRANCH   1   3
ATOM      3  C   UNL d   1     -55.207-102.773 -40.977  0.00  0.00     0.080 C 
BRANCH   3   4
ATOM      4  S   UNL d   1     -55.827-102.817 -40.430  0.00  0.00    -0.058 SA
BRANCH   4   5
ATOM      5  C   UNL d   1     -55.707-102.598 -39.646  0.00  0.00     0.141 A 
ATOM      6  N   UNL d   1     -56.185-102.085 -39.197  0.00  0.00    -0.232 NA
ATOM      7  C   UNL d   1     -55.857-102.025 -38.441  0.00  0.00     0.088 A 
ATOM      8  C   UNL d   1     -56.091-101.600 -37.773  0.00  0.00     0.020 A 
ATOM      9  C   UNL d   1     -55.171-102.499 -38.411  0.00  0.00     0.049 A 
ATOM     10  C   UNL d   1     -55.652-101.640 -37.076  0.00  0.00     0.002 A 
ATOM     11  C   UNL d   1     -54.968-102.115 -37.047  0.00  0.00     0.001 A 
ATOM     12  C   UNL d   1     -54.732-102.542 -37.718  0.00  0.00     0.008 A 
ATOM     13  S   UNL d   1     -55.078-102.854 -39.155  0.00  0.00    -0.060 SA
ENDBRANCH   4   5
ENDBRANCH   3   4
ENDBRANCH   1   3
BRANCH   1  14
ATOM     14  C   UNL d   1     -54.811-102.292 -42.272  0.00  0.00     0.080 C 
BRANCH  14  15
ATOM     15  S   UNL d   1     -55.221-102.184 -42.983  0.00  0.00    -0.058 SA
BRANCH  15  16
ATOM     16  C   UNL d   1     -55.244-101.443 -43.343  0.00  0.00     0.141 A 
ATOM     17  N   UNL d   1     -55.729-101.222 -43.983  0.00  0.00    -0.232 NA
ATOM     18  C   UNL d   1     -55.567-100.424 -44.162  0.00  0.00     0.088 A 
ATOM     19  C   UNL d   1     -55.872 -99.919 -44.730  0.00  0.00     0.020 A 
ATOM     20  C   UNL d   1     -54.989-100.154 -43.641  0.00  0.00     0.049 A 
ATOM     21  C   UNL d   1     -55.607 -99.140 -44.786  0.00  0.00     0.002 A 
ATOM     22  C   UNL d   1     -55.020 -98.869 -44.256  0.00  0.00     0.001 A 
ATOM     23  C   UNL d   1     -54.713 -99.377 -43.684  0.00  0.00     0.008 A 
ATOM     24  S   UNL d   1     -54.786-100.785 -43.130  0.00  0.00    -0.060 SA
ENDBRANCH  15  16
ENDBRANCH  14  15
ENDBRANCH   1  14
TORSDOF 6
ENDMDL
