MODEL 1
REMARK VINA RESULT:      -0.7      0.000      0.000
REMARK  6 active torsions:
REMARK  status: ('A' for Active; 'I' for Inactive)
REMARK       I    between atoms: C_4  and  N_1 
REMARK    1  A    between atoms: C_8  and  C_3 
REMARK    2  A    between atoms: C_16  and  C_4 
REMARK    3  A    between atoms: C_13  and  C_5 
REMARK    4  A    between atoms: N_6  and  C_9 
REMARK    5  A    between atoms: O_24  and  C_11 
REMARK    6  A    between atoms: O_25  and  C_17 
ROOT
ATOM      1  N   UNL d   1      32.707  20.338 -21.442  0.00  0.00    -0.195 N 
ATOM      2  N   UNL d   1      32.708  19.499 -21.485  0.00  0.00    -0.163 NA
ATOM      3  C   UNL d   1      32.895  20.615 -22.203  0.00  0.00     0.088 A 
ATOM      4  C   UNL d   1      32.544  20.815 -20.748  0.00  0.00     0.280 C 
ATOM      5  C   UNL d   1      32.896  19.289 -22.270  0.00  0.00     0.103 A 
ATOM      6  C   UNL d   1      33.008  19.965 -22.698  0.00  0.00     0.040 A 
ATOM      7  O   UNL d   1      32.367  20.464 -20.035  0.00  0.00    -0.265 OA
ENDROOT
BRANCH   3   8
ATOM      8  C   UNL d   1      32.944  21.427 -22.371  0.00  0.00     0.020 A 
ATOM      9  C   UNL d   1      33.038  21.476 -23.180  0.00  0.00     0.028 A 
ATOM     10  C   UNL d   1      33.107  22.206 -23.545  0.00  0.00     0.116 A 
ATOM     11  C   UNL d   1      33.082  22.898 -23.095  0.00  0.00     0.116 A 
ATOM     12  C   UNL d   1      32.984  22.824 -22.259  0.00  0.00     0.026 A 
ATOM     13  C   UNL d   1      32.915  22.096 -21.895  0.00  0.00     0.004 A 
BRANCH  10  14
ATOM     14  O   UNL d   1      33.203  22.251 -24.378  0.00  0.00    -0.326 OA
ATOM     15  C   UNL d   1      33.144  21.558 -24.862  0.00  0.00     0.181 C 
ENDBRANCH  10  14
BRANCH  11  16
ATOM     16  O   UNL d   1      33.152  23.652 -23.464  0.00  0.00    -0.326 OA
ATOM     17  C   UNL d   1      33.241  23.702 -24.261  0.00  0.00     0.181 C 
ENDBRANCH  11  16
ENDBRANCH   3   8
BRANCH   4  18
ATOM     18  C   UNL d   1      32.570  21.666 -20.817  0.00  0.00     0.058 A 
ATOM     19  C   UNL d   1      33.199  22.092 -20.497  0.00  0.00     0.005 A 
ATOM     20  C   UNL d   1      33.236  22.914 -20.557  0.00  0.00     0.000 A 
ATOM     21  C   UNL d   1      32.629  23.315 -20.946  0.00  0.00     0.000 A 
ATOM     22  C   UNL d   1      32.001  22.889 -21.265  0.00  0.00     0.000 A 
ATOM     23  C   UNL d   1      31.963  22.061 -21.205  0.00  0.00     0.005 A 
ENDBRANCH   4  18
BRANCH   5  24
ATOM     24  C   UNL d   1      32.970  18.543 -22.606  0.00  0.00     0.019 A 
ATOM     25  C   UNL d   1      32.879  17.888 -22.099  0.00  0.00     0.003 A 
ATOM     26  C   UNL d   1      32.945  17.132 -22.394  0.00  0.00     0.024 A 
ATOM     27  C   UNL d   1      33.103  17.014 -23.206  0.00  0.00     0.127 A 
ATOM     28  C   UNL d   1      33.193  17.669 -23.713  0.00  0.00     0.024 A 
ATOM     29  C   UNL d   1      33.123  18.440 -23.392  0.00  0.00     0.003 A 
BRANCH  27  30
ATOM     30  N   UNL d   1      33.170  16.225 -23.508  0.00  0.00    -0.114 N 
ATOM     31  O   UNL d   1      33.206  15.576 -22.988  0.00  0.00    -0.532 OA
ATOM     32  O   UNL d   1      33.201  16.101 -24.334  0.00  0.00    -0.532 OA
ENDBRANCH  27  30
ENDBRANCH   5  24
TORSDOF 6
ENDMDL
MODEL 2
REMARK VINA RESULT:      -0.7      2.428      5.588
REMARK  6 active torsions:
REMARK  status: ('A' for Active; 'I' for Inactive)
REMARK       I    between atoms: C_4  and  N_1 
REMARK    1  A    between atoms: C_8  and  C_3 
REMARK    2  A    between atoms: C_16  and  C_4 
REMARK    3  A    between atoms: C_13  and  C_5 
REMARK    4  A    between atoms: N_6  and  C_9 
REMARK    5  A    between atoms: O_24  and  C_11 
REMARK    6  A    between atoms: O_25  and  C_17 
ROOT
ATOM      1  N   UNL d   1      32.368  17.795 -23.226  0.00  0.00    -0.195 N 
ATOM      2  N   UNL d   1      32.806  18.384 -22.819  0.00  0.00    -0.163 NA
ATOM      3  C   UNL d   1      31.706  18.175 -23.556  0.00  0.00     0.088 A 
ATOM      4  C   UNL d   1      32.565  16.962 -23.290  0.00  0.00     0.280 C 
ATOM      5  C   UNL d   1      32.400  19.106 -22.912  0.00  0.00     0.103 A 
ATOM      6  C   UNL d   1      31.738  18.975 -23.356  0.00  0.00     0.040 A 
ATOM      7  O   UNL d   1      33.236  16.666 -22.935  0.00  0.00    -0.265 OA
ENDROOT
BRANCH   3   8
ATOM      8  C   UNL d   1      31.143  17.760 -24.003  0.00  0.00     0.020 A 
ATOM      9  C   UNL d   1      30.434  18.139 -23.864  0.00  0.00     0.028 A 
ATOM     10  C   UNL d   1      29.746  17.874 -24.221  0.00  0.00     0.116 A 
ATOM     11  C   UNL d   1      29.766  17.220 -24.725  0.00  0.00     0.116 A 
ATOM     12  C   UNL d   1      30.512  16.843 -24.856  0.00  0.00     0.026 A 
ATOM     13  C   UNL d   1      31.198  17.108 -24.499  0.00  0.00     0.004 A 
BRANCH  10  14
ATOM     14  O   UNL d   1      29.019  18.267 -24.074  0.00  0.00    -0.326 OA
ATOM     15  C   UNL d   1      28.885  18.680 -23.346  0.00  0.00     0.181 C 
ENDBRANCH  10  14
BRANCH  11  16
ATOM     16  O   UNL d   1      29.063  16.942 -25.096  0.00  0.00    -0.326 OA
ATOM     17  C   UNL d   1      28.476  16.620 -24.652  0.00  0.00     0.181 C 
ENDBRANCH  11  16
ENDBRANCH   3   8
BRANCH   4  18
ATOM     18  C   UNL d   1      32.046  16.448 -23.731  0.00  0.00     0.058 A 
ATOM     19  C   UNL d   1      32.086  16.420 -24.554  0.00  0.00     0.005 A 
ATOM     20  C   UNL d   1      31.590  15.927 -24.993  0.00  0.00     0.000 A 
ATOM     21  C   UNL d   1      31.043  15.454 -24.596  0.00  0.00     0.000 A 
ATOM     22  C   UNL d   1      31.003  15.482 -23.774  0.00  0.00     0.000 A 
ATOM     23  C   UNL d   1      31.503  15.978 -23.332  0.00  0.00     0.005 A 
ENDBRANCH   4  18
BRANCH   5  24
ATOM     24  C   UNL d   1      32.591  19.851 -22.624  0.00  0.00     0.019 A 
ATOM     25  C   UNL d   1      32.352  20.031 -21.846  0.00  0.00     0.003 A 
ATOM     26  C   UNL d   1      32.523  20.759 -21.525  0.00  0.00     0.024 A 
ATOM     27  C   UNL d   1      32.938  21.327 -21.976  0.00  0.00     0.127 A 
ATOM     28  C   UNL d   1      33.177  21.147 -22.755  0.00  0.00     0.024 A 
ATOM     29  C   UNL d   1      32.993  20.393 -23.069  0.00  0.00     0.003 A 
BRANCH  27  30
ATOM     30  N   UNL d   1      33.113  22.084 -21.638  0.00  0.00    -0.114 N 
ATOM     31  O   UNL d   1      33.188  22.169 -20.813  0.00  0.00    -0.532 OA
ATOM     32  O   UNL d   1      33.210  22.746 -22.137  0.00  0.00    -0.532 OA
ENDBRANCH  27  30
ENDBRANCH   5  24
TORSDOF 6
ENDMDL
MODEL 3
REMARK VINA RESULT:       0.5      0.988      2.514
REMARK  6 active torsions:
REMARK  status: ('A' for Active; 'I' for Inactive)
REMARK       I    between atoms: C_4  and  N_1 
REMARK    1  A    between atoms: C_8  and  C_3 
REMARK    2  A    between atoms: C_16  and  C_4 
REMARK    3  A    between atoms: C_13  and  C_5 
REMARK    4  A    between atoms: N_6  and  C_9 
REMARK    5  A    between atoms: O_24  and  C_11 
REMARK    6  A    between atoms: O_25  and  C_17 
ROOT
ATOM      1  N   UNL d   1      32.704  21.033 -23.369  0.00  0.00    -0.195 N 
ATOM      2  N   UNL d   1      32.703  20.338 -23.840  0.00  0.00    -0.163 NA
ATOM      3  C   UNL d   1      32.875  20.793 -22.592  0.00  0.00     0.088 A 
ATOM      4  C   UNL d   1      32.557  21.835 -23.637  0.00  0.00     0.280 C 
ATOM      5  C   UNL d   1      32.873  19.695 -23.338  0.00  0.00     0.103 A 
ATOM      6  C   UNL d   1      32.976  19.974 -22.587  0.00  0.00     0.040 A 
ATOM      7  O   UNL d   1      32.395  21.987 -24.421  0.00  0.00    -0.265 OA
ENDROOT
BRANCH   3   8
ATOM      8  C   UNL d   1      32.923  21.338 -21.967  0.00  0.00     0.020 A 
ATOM      9  C   UNL d   1      33.016  20.889 -21.293  0.00  0.00     0.028 A 
ATOM     10  C   UNL d   1      33.083  21.250 -20.561  0.00  0.00     0.116 A 
ATOM     11  C   UNL d   1      33.056  22.073 -20.501  0.00  0.00     0.116 A 
ATOM     12  C   UNL d   1      32.959  22.520 -21.213  0.00  0.00     0.026 A 
ATOM     13  C   UNL d   1      32.892  22.159 -21.943  0.00  0.00     0.004 A 
BRANCH  10  14
ATOM     14  O   UNL d   1      33.179  20.783 -19.870  0.00  0.00    -0.326 OA
ATOM     15  C   UNL d   1      33.231  19.938 -19.918  0.00  0.00     0.181 C 
ENDBRANCH  10  14
BRANCH  11  16
ATOM     16  O   UNL d   1      33.124  22.451 -19.752  0.00  0.00    -0.326 OA
ATOM     17  C   UNL d   1      32.511  22.428 -19.233  0.00  0.00     0.181 C 
ENDBRANCH  11  16
ENDBRANCH   3   8
BRANCH   4  18
ATOM     18  C   UNL d   1      32.583  22.471 -23.069  0.00  0.00     0.058 A 
ATOM     19  C   UNL d   1      31.967  22.577 -22.532  0.00  0.00     0.005 A 
ATOM     20  C   UNL d   1      31.980  23.189 -21.978  0.00  0.00     0.000 A 
ATOM     21  C   UNL d   1      32.625  23.702 -21.963  0.00  0.00     0.000 A 
ATOM     22  C   UNL d   1      33.240  23.596 -22.499  0.00  0.00     0.000 A 
ATOM     23  C   UNL d   1      33.227  22.980 -23.058  0.00  0.00     0.005 A 
ENDBRANCH   4  18
BRANCH   5  24
ATOM     24  C   UNL d   1      32.938  18.896 -23.519  0.00  0.00     0.019 A 
ATOM     25  C   UNL d   1      33.038  18.695 -24.322  0.00  0.00     0.003 A 
ATOM     26  C   UNL d   1      33.106  17.915 -24.541  0.00  0.00     0.024 A 
ATOM     27  C   UNL d   1      33.075  17.314 -23.961  0.00  0.00     0.127 A 
ATOM     28  C   UNL d   1      32.975  17.515 -23.158  0.00  0.00     0.024 A 
ATOM     29  C   UNL d   1      32.906  18.323 -22.950  0.00  0.00     0.003 A 
BRANCH  27  30
ATOM     30  N   UNL d   1      33.146  16.503 -24.194  0.00  0.00    -0.114 N 
ATOM     31  O   UNL d   1      33.156  16.296 -25.001  0.00  0.00    -0.532 OA
ATOM     32  O   UNL d   1      33.207  15.909 -23.610  0.00  0.00    -0.532 OA
ENDBRANCH  27  30
ENDBRANCH   5  24
TORSDOF 6
ENDMDL
