MODEL 1
REMARK VINA RESULT:      -3.2      0.000      0.000
REMARK  5 active torsions:
REMARK  status: ('A' for Active; 'I' for Inactive)
REMARK    1  A    between atoms: N_2  and  C_1 
REMARK    2  A    between atoms: N_11  and  C_6 
REMARK    3  A    between atoms: C_13  and  N_11 
REMARK    4  A    between atoms: O_20  and  C_14 
REMARK    5  A    between atoms: C_23  and  O_20 
ROOT
ATOM      1  C   UNL d   1      58.698  -1.024  29.503  0.00  0.00     0.752 A 
ATOM      2  N   UNL d   1      58.666  -0.810  30.302  0.00  0.00    -0.040 NA
ATOM      3  C   UNL d   1      58.286  -0.117  30.531  0.00  0.00     0.182 A 
ATOM      4  N   UNL d   1      58.345  -0.536  28.935  0.00  0.00    -0.059 NA
ATOM      5  C   UNL d   1      57.933   0.370  29.963  0.00  0.00     0.059 A 
ATOM      6  C   UNL d   1      57.962   0.161  29.162  0.00  0.00     0.103 A 
ATOM      7  C   UNL d   1      57.609   0.648  28.594  0.00  0.00     0.021 C 
ENDROOT
BRANCH   3   8
ATOM      8  N   UNL d   1      58.255   0.095  31.326  0.00  0.00    -0.226 NA
BRANCH   8   9
ATOM      9  C   UNL d   1      57.546   0.028  31.754  0.00  0.00     0.083 A 
ATOM     10  C   UNL d   1      57.035   0.682  31.791  0.00  0.00     0.021 A 
ATOM     11  C   UNL d   1      56.326   0.609  32.220  0.00  0.00     0.026 A 
ATOM     12  C   UNL d   1      56.136  -0.097  32.599  0.00  0.00     0.100 A 
ATOM     13  C   UNL d   1      56.654  -0.742  32.555  0.00  0.00     0.026 A 
ATOM     14  C   UNL d   1      57.360  -0.681  32.131  0.00  0.00     0.021 A 
BRANCH  12  15
ATOM     15  O   UNL d   1      55.428  -0.162  33.025  0.00  0.00    -0.305 OA
BRANCH  15  16
ATOM     16  C   UNL d   1      54.992   0.516  33.189  0.00  0.00     0.123 C 
ATOM     17  C   UNL d   1      54.493   0.526  33.845  0.00  0.00     0.029 C 
ENDBRANCH  15  16
ENDBRANCH  12  15
ENDBRANCH   8   9
ENDBRANCH   3   8
BRANCH   1  18
ATOM     18  N   UNL d   1      59.038  -1.647  29.286  0.00  0.00    -0.058 N 
ATOM     19  N   UNL d   1      58.992  -2.923  29.031  0.00  0.00    -0.151 NA
ATOM     20  C   UNL d   1      59.730  -2.907  28.847  0.00  0.00     0.103 A 
ATOM     21  C   UNL d   1      60.075  -3.536  28.628  0.00  0.00     0.022 C 
ATOM     22  C   UNL d   1      60.100  -2.260  28.887  0.00  0.00     0.041 A 
ATOM     23  C   UNL d   1      59.767  -1.632  29.103  0.00  0.00     0.102 A 
ATOM     24  C   UNL d   1      60.150  -0.980  29.142  0.00  0.00     0.021 C 
ENDBRANCH   1  18
TORSDOF 5
ENDMDL
MODEL 2
REMARK VINA RESULT:      -3.0      1.781      4.936
REMARK  5 active torsions:
REMARK  status: ('A' for Active; 'I' for Inactive)
REMARK    1  A    between atoms: N_2  and  C_1 
REMARK    2  A    between atoms: N_11  and  C_6 
REMARK    3  A    between atoms: C_13  and  N_11 
REMARK    4  A    between atoms: O_20  and  C_14 
REMARK    5  A    between atoms: C_23  and  O_20 
ROOT
ATOM      1  C   UNL d   1      57.228   0.283  32.127  0.00  0.00     0.752 A 
ATOM      2  N   UNL d   1      57.229   0.254  31.299  0.00  0.00    -0.040 NA
ATOM      3  C   UNL d   1      57.929   0.366  30.882  0.00  0.00     0.182 A 
ATOM      4  N   UNL d   1      57.935   0.426  32.532  0.00  0.00    -0.059 NA
ATOM      5  C   UNL d   1      58.636   0.509  31.287  0.00  0.00     0.059 A 
ATOM      6  C   UNL d   1      58.640   0.539  32.115  0.00  0.00     0.103 A 
ATOM      7  C   UNL d   1      59.347   0.682  32.520  0.00  0.00     0.021 C 
ENDROOT
BRANCH   3   8
ATOM      8  N   UNL d   1      57.930   0.337  30.058  0.00  0.00    -0.226 NA
BRANCH   8   9
ATOM      9  C   UNL d   1      58.388  -0.227  29.657  0.00  0.00     0.083 A 
ATOM     10  C   UNL d   1      59.147  -0.015  29.392  0.00  0.00     0.021 A 
ATOM     11  C   UNL d   1      59.602  -0.583  28.990  0.00  0.00     0.026 A 
ATOM     12  C   UNL d   1      59.306  -1.341  28.858  0.00  0.00     0.100 A 
ATOM     13  C   UNL d   1      58.548  -1.541  29.127  0.00  0.00     0.026 A 
ATOM     14  C   UNL d   1      58.088  -0.984  29.527  0.00  0.00     0.021 A 
BRANCH  12  15
ATOM     15  O   UNL d   1      59.765  -1.902  28.458  0.00  0.00    -0.305 OA
BRANCH  15  16
ATOM     16  C   UNL d   1      60.066  -2.547  28.870  0.00  0.00     0.123 C 
ATOM     17  C   UNL d   1      60.501  -3.117  28.466  0.00  0.00     0.029 C 
ENDBRANCH  15  16
ENDBRANCH  12  15
ENDBRANCH   8   9
ENDBRANCH   3   8
BRANCH   1  18
ATOM     18  N   UNL d   1      56.601   0.183  32.513  0.00  0.00    -0.058 N 
ATOM     19  N   UNL d   1      55.634   0.673  33.234  0.00  0.00    -0.151 NA
ATOM     20  C   UNL d   1      55.333  -0.024  33.294  0.00  0.00     0.103 A 
ATOM     21  C   UNL d   1      54.701  -0.126  33.683  0.00  0.00     0.022 C 
ATOM     22  C   UNL d   1      55.677  -0.596  32.960  0.00  0.00     0.041 A 
ATOM     23  C   UNL d   1      56.304  -0.505  32.572  0.00  0.00     0.102 A 
ATOM     24  C   UNL d   1      56.645  -1.092  32.237  0.00  0.00     0.021 C 
ENDBRANCH   1  18
TORSDOF 5
ENDMDL
MODEL 3
REMARK VINA RESULT:      -0.6      2.085      5.266
REMARK  5 active torsions:
REMARK  status: ('A' for Active; 'I' for Inactive)
REMARK    1  A    between atoms: N_2  and  C_1 
REMARK    2  A    between atoms: N_11  and  C_6 
REMARK    3  A    between atoms: C_13  and  N_11 
REMARK    4  A    between atoms: O_20  and  C_14 
REMARK    5  A    between atoms: C_23  and  O_20 
ROOT
ATOM      1  C   UNL d   1      56.467  -0.171  32.880  0.00  0.00     0.752 A 
ATOM      2  N   UNL d   1      56.785   0.379  32.349  0.00  0.00    -0.040 NA
ATOM      3  C   UNL d   1      57.054   0.134  31.611  0.00  0.00     0.182 A 
ATOM      4  N   UNL d   1      56.421  -0.969  32.665  0.00  0.00    -0.059 NA
ATOM      5  C   UNL d   1      57.008  -0.664  31.396  0.00  0.00     0.059 A 
ATOM      6  C   UNL d   1      56.691  -1.218  31.925  0.00  0.00     0.103 A 
ATOM      7  C   UNL d   1      56.645  -2.016  31.710  0.00  0.00     0.021 C 
ENDROOT
BRANCH   3   8
ATOM      8  N   UNL d   1      57.370   0.681  31.082  0.00  0.00    -0.226 NA
BRANCH   8   9
ATOM      9  C   UNL d   1      57.986   0.463  30.569  0.00  0.00     0.083 A 
ATOM     10  C   UNL d   1      58.771   0.605  30.799  0.00  0.00     0.021 A 
ATOM     11  C   UNL d   1      59.385   0.386  30.282  0.00  0.00     0.026 A 
ATOM     12  C   UNL d   1      59.215   0.035  29.555  0.00  0.00     0.100 A 
ATOM     13  C   UNL d   1      58.427  -0.101  29.337  0.00  0.00     0.026 A 
ATOM     14  C   UNL d   1      57.811   0.113  29.843  0.00  0.00     0.021 A 
BRANCH  12  15
ATOM     15  O   UNL d   1      59.830  -0.180  29.045  0.00  0.00    -0.305 OA
BRANCH  15  16
ATOM     16  C   UNL d   1      60.400  -0.715  29.303  0.00  0.00     0.123 C 
ATOM     17  C   UNL d   1      61.051  -0.874  28.823  0.00  0.00     0.029 C 
ENDBRANCH  15  16
ENDBRANCH  12  15
ENDBRANCH   8   9
ENDBRANCH   3   8
BRANCH   1  18
ATOM     18  N   UNL d   1      56.221   0.041  33.549  0.00  0.00    -0.058 N 
ATOM     19  N   UNL d   1      56.453   0.283  34.807  0.00  0.00    -0.151 NA
ATOM     20  C   UNL d   1      55.721   0.469  34.900  0.00  0.00     0.103 A 
ATOM     21  C   UNL d   1      55.471   0.682  35.574  0.00  0.00     0.022 C 
ATOM     22  C   UNL d   1      55.261   0.434  34.313  0.00  0.00     0.041 A 
ATOM     23  C   UNL d   1      55.498   0.224  33.641  0.00  0.00     0.102 A 
ATOM     24  C   UNL d   1      55.024   0.191  33.052  0.00  0.00     0.021 C 
ENDBRANCH   1  18
TORSDOF 5
ENDMDL
