MODEL 1
REMARK VINA RESULT:      11.0      0.000      0.000
REMARK  3 active torsions:
REMARK  status: ('A' for Active; 'I' for Inactive)
REMARK    1  A    between atoms: N_4  and  C_2 
REMARK    2  A    between atoms: C_10  and  C_3 
REMARK       I    between atoms: C_7  and  N_4 
REMARK    3  A    between atoms: C_8  and  C_7 
ROOT
ATOM      1  N   UNL d   1      46.397 -17.531  43.443  0.00  0.00    -0.051 NA
ATOM      2  C   UNL d   1      46.287 -17.152  44.163  0.00  0.00     0.760 A 
ATOM      3  C   UNL d   1      46.368 -18.349  43.586  0.00  0.00     0.147 A 
ATOM      4  N   UNL d   1      46.189 -17.729  44.757  0.00  0.00    -0.019 NA
ATOM      5  S   UNL d   1      46.241 -18.460  44.391  0.00  0.00     0.052 SA
ENDROOT
BRANCH   2   6
ATOM      6  N   UNL d   1      46.260 -16.345  44.367  0.00  0.00    -0.018 NA
ATOM      7  C   UNL d   1      45.559 -15.917  44.299  0.00  0.00     0.301 C 
ATOM      8  O   UNL d   1      44.871 -16.295  44.024  0.00  0.00    -0.264 OA
BRANCH   7   9
ATOM      9  C   UNL d   1      45.538 -15.119  44.502  0.00  0.00     0.088 A 
ATOM     10  S   UNL d   1      44.889 -14.720  44.843  0.00  0.00    -0.082 SA
ATOM     11  C   UNL d   1      45.109 -13.926  44.955  0.00  0.00     0.036 A 
ATOM     12  C   UNL d   1      45.884 -13.837  44.687  0.00  0.00     0.008 A 
ATOM     13  C   UNL d   1      46.145 -14.570  44.409  0.00  0.00     0.012 A 
ENDBRANCH   7   9
ENDBRANCH   2   6
BRANCH   3  14
ATOM     14  C   UNL d   1      46.454 -18.933  43.012  0.00  0.00     0.026 A 
ATOM     15  C   UNL d   1      46.432 -19.735  43.239  0.00  0.00     0.002 A 
ATOM     16  C   UNL d   1      46.518 -20.326  42.662  0.00  0.00     0.000 A 
ATOM     17  C   UNL d   1      46.624 -20.119  41.872  0.00  0.00     0.000 A 
ATOM     18  C   UNL d   1      46.647 -19.328  41.642  0.00  0.00     0.000 A 
ATOM     19  C   UNL d   1      46.562 -18.734  42.210  0.00  0.00     0.002 A 
ENDBRANCH   3  14
TORSDOF 3
ENDMDL
MODEL 2
REMARK VINA RESULT:      11.4      0.946      4.792
REMARK  3 active torsions:
REMARK  status: ('A' for Active; 'I' for Inactive)
REMARK    1  A    between atoms: N_4  and  C_2 
REMARK    2  A    between atoms: C_10  and  C_3 
REMARK       I    between atoms: C_7  and  N_4 
REMARK    3  A    between atoms: C_8  and  C_7 
ROOT
ATOM      1  N   UNL d   1      46.049 -15.337  44.318  0.00  0.00    -0.051 NA
ATOM      2  C   UNL d   1      45.789 -16.082  44.545  0.00  0.00     0.760 A 
ATOM      3  C   UNL d   1      45.480 -14.788  44.574  0.00  0.00     0.147 A 
ATOM      4  N   UNL d   1      45.060 -16.002  44.943  0.00  0.00    -0.019 NA
ATOM      5  S   UNL d   1      44.881 -15.202  44.954  0.00  0.00     0.052 SA
ENDROOT
BRANCH   2   6
ATOM      6  N   UNL d   1      46.120 -16.839  44.445  0.00  0.00    -0.018 NA
ATOM      7  C   UNL d   1      45.800 -17.369  43.900  0.00  0.00     0.301 C 
ATOM      8  O   UNL d   1      45.141 -17.144  43.446  0.00  0.00    -0.264 OA
BRANCH   7   9
ATOM      9  C   UNL d   1      46.131 -18.117  43.804  0.00  0.00     0.088 A 
ATOM     10  S   UNL d   1      46.324 -18.475  43.076  0.00  0.00    -0.082 SA
ATOM     11  C   UNL d   1      46.643 -19.226  43.237  0.00  0.00     0.036 A 
ATOM     12  C   UNL d   1      46.647 -19.329  44.055  0.00  0.00     0.008 A 
ATOM     13  C   UNL d   1      46.332 -18.648  44.402  0.00  0.00     0.012 A 
ENDBRANCH   7   9
ENDBRANCH   2   6
BRANCH   3  14
ATOM     14  C   UNL d   1      45.524 -13.974  44.459  0.00  0.00     0.026 A 
ATOM     15  C   UNL d   1      45.028 -13.613  43.894  0.00  0.00     0.002 A 
ATOM     16  C   UNL d   1      45.069 -12.793  43.775  0.00  0.00     0.000 A 
ATOM     17  C   UNL d   1      45.598 -12.340  44.215  0.00  0.00     0.000 A 
ATOM     18  C   UNL d   1      46.092 -12.690  44.775  0.00  0.00     0.000 A 
ATOM     19  C   UNL d   1      46.056 -13.505  44.898  0.00  0.00     0.002 A 
ENDBRANCH   3  14
TORSDOF 3
ENDMDL
