MODEL 1
REMARK VINA RESULT:      37.9      0.000      0.000
REMARK  3 active torsions:
REMARK  status: ('A' for Active; 'I' for Inactive)
REMARK    1  A    between atoms: C_13  and  C_2 
REMARK    2  A    between atoms: C_10  and  C_4 
REMARK    3  A    between atoms: N_7  and  C_10 
ROOT
ATOM      1  N   UNL d   1      15.391  16.934  -1.606  0.00  0.00    -0.121 NA
ATOM      2  C   UNL d   1      15.099  16.280  -2.009  0.00  0.00     0.204 A 
ATOM      3  O   UNL d   1      15.004  15.668  -1.467  0.00  0.00    -0.267 OA
ATOM      4  C   UNL d   1      15.239  15.943  -0.721  0.00  0.00     0.222 A 
ATOM      5  N   UNL d   1      15.479  16.731  -0.811  0.00  0.00    -0.119 NA
ENDROOT
BRANCH   4   6
ATOM      6  C   UNL d   1      15.237  15.516  -0.017  0.00  0.00     0.127 C 
BRANCH   6   7
ATOM      7  N   UNL d   1      15.082  14.706  -0.026  0.00  0.00    -0.300 N 
ATOM      8  C   UNL d   1      15.710  14.175  -0.047  0.00  0.00     0.081 A 
ATOM      9  C   UNL d   1      15.564  13.370  -0.056  0.00  0.00     0.053 A 
ATOM     10  C   UNL d   1      14.787  13.091  -0.045  0.00  0.00     0.239 A 
ATOM     11  C   UNL d   1      14.155  13.629  -0.023  0.00  0.00     0.053 A 
ATOM     12  O   UNL d   1      13.990  12.862  -0.032  0.00  0.00    -0.298 OA
ATOM     13  O   UNL d   1      15.381  12.520  -0.066  0.00  0.00    -0.298 OA
ATOM     14  C   UNL d   1      14.309  14.439  -0.014  0.00  0.00     0.081 A 
ATOM     15  C   UNL d   1      14.002  12.037  -0.045  0.00  0.00     0.146 A 
ATOM     16  C   UNL d   1      14.977  11.803  -0.068  0.00  0.00     0.146 A 
ENDBRANCH   6   7
ENDBRANCH   4   6
BRANCH   2  17
ATOM     17  C   UNL d   1      14.930  16.245  -2.817  0.00  0.00     0.043 A 
ATOM     18  C   UNL d   1      14.368  15.705  -3.096  0.00  0.00     0.004 A 
ATOM     19  C   UNL d   1      14.196  15.664  -3.894  0.00  0.00     0.000 A 
ATOM     20  C   UNL d   1      14.585  16.165  -4.427  0.00  0.00     0.000 A 
ATOM     21  C   UNL d   1      15.147  16.705  -4.148  0.00  0.00     0.000 A 
ATOM     22  C   UNL d   1      15.316  16.742  -3.348  0.00  0.00     0.004 A 
ENDBRANCH   2  17
TORSDOF 3
ENDMDL
MODEL 2
REMARK VINA RESULT:      39.6      3.033      5.519
REMARK  3 active torsions:
REMARK  status: ('A' for Active; 'I' for Inactive)
REMARK    1  A    between atoms: C_13  and  C_2 
REMARK    2  A    between atoms: C_10  and  C_4 
REMARK    3  A    between atoms: N_7  and  C_10 
ROOT
ATOM      1  N   UNL d   1      14.233  11.779  -3.043  0.00  0.00    -0.121 NA
ATOM      2  C   UNL d   1      13.757  12.088  -2.449  0.00  0.00     0.204 A 
ATOM      3  O   UNL d   1      13.151  12.517  -2.804  0.00  0.00    -0.267 OA
ATOM      4  C   UNL d   1      13.250  12.475  -3.625  0.00  0.00     0.222 A 
ATOM      5  N   UNL d   1      13.923  12.016  -3.772  0.00  0.00    -0.119 NA
ENDROOT
BRANCH   4   6
ATOM      6  C   UNL d   1      12.769  12.824  -4.196  0.00  0.00     0.127 C 
BRANCH   6   7
ATOM      7  N   UNL d   1      12.997  13.532  -4.550  0.00  0.00    -0.300 N 
ATOM      8  C   UNL d   1      13.357  13.517  -5.291  0.00  0.00     0.081 A 
ATOM      9  C   UNL d   1      13.586  14.216  -5.648  0.00  0.00     0.053 A 
ATOM     10  C   UNL d   1      13.457  14.937  -5.267  0.00  0.00     0.239 A 
ATOM     11  C   UNL d   1      13.094  14.950  -4.520  0.00  0.00     0.053 A 
ATOM     12  O   UNL d   1      13.305  15.634  -4.842  0.00  0.00    -0.298 OA
ATOM     13  O   UNL d   1      13.820  14.973  -6.005  0.00  0.00    -0.298 OA
ATOM     14  C   UNL d   1      12.866  14.242  -4.165  0.00  0.00     0.081 A 
ATOM     15  C   UNL d   1      13.587  16.243  -5.322  0.00  0.00     0.146 A 
ATOM     16  C   UNL d   1      13.946  15.777  -6.134  0.00  0.00     0.146 A 
ENDBRANCH   6   7
ENDBRANCH   4   6
BRANCH   2  17
ATOM     17  C   UNL d   1      13.869  11.985  -1.636  0.00  0.00     0.043 A 
ATOM     18  C   UNL d   1      13.213  11.916  -1.136  0.00  0.00     0.004 A 
ATOM     19  C   UNL d   1      13.316  11.814  -0.332  0.00  0.00     0.000 A 
ATOM     20  C   UNL d   1      14.081  11.779  -0.014  0.00  0.00     0.000 A 
ATOM     21  C   UNL d   1      14.737  11.848  -0.515  0.00  0.00     0.000 A 
ATOM     22  C   UNL d   1      14.629  11.950  -1.320  0.00  0.00     0.004 A 
ENDBRANCH   2  17
TORSDOF 3
ENDMDL
