MODEL 1
REMARK VINA RESULT:      -4.9      0.000      0.000
REMARK  3 active torsions:
REMARK  status: ('A' for Active; 'I' for Inactive)
REMARK    1  A    between atoms: C_6  and  C_1 
REMARK    2  A    between atoms: O_9  and  C_6 
REMARK    3  A    between atoms: C_12  and  O_9 
ROOT
ATOM      1  C   UNL d   1      57.373  -0.626  31.071  0.00  0.00     0.182 A 
ATOM      2  C   UNL d   1      57.394  -0.009  31.638  0.00  0.00     0.133 A 
ATOM      3  O   UNL d   1      56.843  -1.207  31.346  0.00  0.00    -0.300 OA
ATOM      4  C   UNL d   1      56.879  -0.213  32.255  0.00  0.00     0.044 A 
ATOM      5  C   UNL d   1      56.536  -0.952  32.079  0.00  0.00     0.102 A 
ATOM      6  N   UNL d   1      57.846   0.680  31.590  0.00  0.00    -0.146 N 
ATOM      7  C   UNL d   1      56.673   0.167  32.949  0.00  0.00     0.004 A 
ATOM      8  C   UNL d   1      56.001  -1.285  32.604  0.00  0.00     0.025 A 
ATOM      9  C   UNL d   1      56.137  -0.169  33.471  0.00  0.00     0.000 A 
ATOM     10  C   UNL d   1      55.797  -0.904  33.296  0.00  0.00     0.002 A 
ENDROOT
BRANCH   1  11
ATOM     11  C   UNL d   1      57.800  -0.656  30.367  0.00  0.00     0.325 C 
ATOM     12  O   UNL d   1      57.771  -0.022  29.850  0.00  0.00    -0.257 OA
BRANCH  11  13
ATOM     13  O   UNL d   1      58.252  -1.320  30.186  0.00  0.00    -0.269 OA
BRANCH  13  14
ATOM     14  C   UNL d   1      58.632  -1.370  29.456  0.00  0.00     0.126 C 
ATOM     15  C   UNL d   1      58.998  -2.074  29.229  0.00  0.00     0.029 C 
ENDBRANCH  13  14
ENDBRANCH  11  13
ENDBRANCH   1  11
TORSDOF 3
ENDMDL
MODEL 2
REMARK VINA RESULT:      -3.8      1.465      2.177
REMARK  3 active torsions:
REMARK  status: ('A' for Active; 'I' for Inactive)
REMARK    1  A    between atoms: C_6  and  C_1 
REMARK    2  A    between atoms: O_9  and  C_6 
REMARK    3  A    between atoms: C_12  and  O_9 
ROOT
ATOM      1  C   UNL d   1      56.360  -0.037  32.540  0.00  0.00     0.182 A 
ATOM      2  C   UNL d   1      56.637   0.175  33.301  0.00  0.00     0.133 A 
ATOM      3  O   UNL d   1      55.527  -0.008  32.554  0.00  0.00    -0.300 OA
ATOM      4  C   UNL d   1      55.977   0.333  33.778  0.00  0.00     0.044 A 
ATOM      5  C   UNL d   1      55.288   0.222  33.320  0.00  0.00     0.102 A 
ATOM      6  N   UNL d   1      57.427   0.218  33.536  0.00  0.00    -0.146 N 
ATOM      7  C   UNL d   1      55.903   0.561  34.559  0.00  0.00     0.004 A 
ATOM      8  C   UNL d   1      54.553   0.343  33.660  0.00  0.00     0.025 A 
ATOM      9  C   UNL d   1      55.165   0.682  34.896  0.00  0.00     0.000 A 
ATOM     10  C   UNL d   1      54.481   0.571  34.441  0.00  0.00     0.002 A 
ENDROOT
BRANCH   1  11
ATOM     11  C   UNL d   1      56.825  -0.240  31.890  0.00  0.00     0.325 C 
ATOM     12  O   UNL d   1      57.080  -1.013  31.801  0.00  0.00    -0.257 OA
BRANCH  11  13
ATOM     13  O   UNL d   1      57.030   0.332  31.335  0.00  0.00    -0.269 OA
BRANCH  13  14
ATOM     14  C   UNL d   1      57.540   0.138  30.716  0.00  0.00     0.126 C 
ATOM     15  C   UNL d   1      57.636   0.658  30.083  0.00  0.00     0.029 C 
ENDBRANCH  13  14
ENDBRANCH  11  13
ENDBRANCH   1  11
TORSDOF 3
ENDMDL
MODEL 3
REMARK VINA RESULT:      -3.6      1.270      3.327
REMARK  3 active torsions:
REMARK  status: ('A' for Active; 'I' for Inactive)
REMARK    1  A    between atoms: C_6  and  C_1 
REMARK    2  A    between atoms: O_9  and  C_6 
REMARK    3  A    between atoms: C_12  and  O_9 
ROOT
ATOM      1  C   UNL d   1      57.433   0.107  31.214  0.00  0.00     0.182 A 
ATOM      2  C   UNL d   1      58.203   0.410  31.344  0.00  0.00     0.133 A 
ATOM      3  O   UNL d   1      57.373  -0.097  30.408  0.00  0.00    -0.300 OA
ATOM      4  C   UNL d   1      58.610   0.392  30.622  0.00  0.00     0.044 A 
ATOM      5  C   UNL d   1      58.101   0.080  30.040  0.00  0.00     0.102 A 
ATOM      6  N   UNL d   1      58.503   0.680  32.065  0.00  0.00    -0.146 N 
ATOM      7  C   UNL d   1      59.367   0.615  30.412  0.00  0.00     0.004 A 
ATOM      8  C   UNL d   1      58.368   0.001  29.270  0.00  0.00     0.025 A 
ATOM      9  C   UNL d   1      59.632   0.535  29.639  0.00  0.00     0.000 A 
ATOM     10  C   UNL d   1      59.125   0.224  29.060  0.00  0.00     0.002 A 
ENDROOT
BRANCH   1  11
ATOM     11  C   UNL d   1      56.839   0.022  31.779  0.00  0.00     0.325 C 
ATOM     12  O   UNL d   1      56.418   0.680  32.023  0.00  0.00    -0.257 OA
BRANCH  11  13
ATOM     13  O   UNL d   1      56.671  -0.719  32.094  0.00  0.00    -0.269 OA
BRANCH  13  14
ATOM     14  C   UNL d   1      56.063  -0.803  32.644  0.00  0.00     0.126 C 
ATOM     15  C   UNL d   1      55.874  -1.549  32.941  0.00  0.00     0.029 C 
ENDBRANCH  13  14
ENDBRANCH  11  13
ENDBRANCH   1  11
TORSDOF 3
ENDMDL
MODEL 4
REMARK VINA RESULT:      -3.0      1.409      3.875
REMARK  3 active torsions:
REMARK  status: ('A' for Active; 'I' for Inactive)
REMARK    1  A    between atoms: C_6  and  C_1 
REMARK    2  A    between atoms: O_9  and  C_6 
REMARK    3  A    between atoms: C_12  and  O_9 
ROOT
ATOM      1  C   UNL d   1      58.435  -0.698  29.735  0.00  0.00     0.182 A 
ATOM      2  C   UNL d   1      59.210  -0.635  29.426  0.00  0.00     0.133 A 
ATOM      3  O   UNL d   1      58.187  -1.488  29.644  0.00  0.00    -0.300 OA
ATOM      4  C   UNL d   1      59.435  -1.383  29.148  0.00  0.00     0.044 A 
ATOM      5  C   UNL d   1      58.806  -1.914  29.281  0.00  0.00     0.102 A 
ATOM      6  N   UNL d   1      59.670   0.050  29.402  0.00  0.00    -0.146 N 
ATOM      7  C   UNL d   1      60.119  -1.657  28.794  0.00  0.00     0.004 A 
ATOM      8  C   UNL d   1      58.884  -2.698  29.056  0.00  0.00     0.025 A 
ATOM      9  C   UNL d   1      60.194  -2.443  28.570  0.00  0.00     0.000 A 
ATOM     10  C   UNL d   1      59.568  -2.970  28.702  0.00  0.00     0.002 A 
ENDROOT
BRANCH   1  11
ATOM     11  C   UNL d   1      57.992  -0.089  30.070  0.00  0.00     0.325 C 
ATOM     12  O   UNL d   1      57.743   0.534  29.601  0.00  0.00    -0.257 OA
BRANCH  11  13
ATOM     13  O   UNL d   1      57.803  -0.108  30.871  0.00  0.00    -0.269 OA
BRANCH  13  14
ATOM     14  C   UNL d   1      57.234   0.409  31.170  0.00  0.00     0.126 C 
ATOM     15  C   UNL d   1      57.012   0.364  31.963  0.00  0.00     0.029 C 
ENDBRANCH  13  14
ENDBRANCH  11  13
ENDBRANCH   1  11
TORSDOF 3
ENDMDL
