MODEL 1
REMARK VINA RESULT:      -5.0      0.000      0.000
REMARK  2 active torsions:
REMARK  status: ('A' for Active; 'I' for Inactive)
REMARK    1  A    between atoms: C_11  and  N_1 
REMARK    2  A    between atoms: C_16  and  C_11 
ROOT
ATOM      1  C   UNL d   1     -41.256-122.219 -51.356  0.00  0.00     0.086 C 
ENDROOT
BRANCH   1   2
ATOM      2  N   UNL d   1     -41.783-122.488 -50.785  0.00  0.00    -0.240 N 
ATOM      3  C   UNL d   1     -41.718-123.197 -50.369  0.00  0.00     0.267 A 
ATOM      4  C   UNL d   1     -42.364-123.246 -49.852  0.00  0.00     0.061 A 
ATOM      5  O   UNL d   1     -41.123-123.755 -50.448  0.00  0.00    -0.267 OA
ATOM      6  C   UNL d   1     -42.587-123.817 -49.311  0.00  0.00     0.005 A 
ATOM      7  C   UNL d   1     -42.823-122.570 -49.953  0.00  0.00     0.061 A 
ATOM      8  C   UNL d   1     -43.273-123.712 -48.866  0.00  0.00     0.000 A 
ATOM      9  C   UNL d   1     -43.732-123.039 -48.965  0.00  0.00     0.000 A 
ATOM     10  C   UNL d   1     -43.502-122.465 -49.514  0.00  0.00     0.005 A 
ATOM     11  C   UNL d   1     -42.462-122.103 -50.529  0.00  0.00     0.267 A 
ATOM     12  O   UNL d   1     -42.741-121.370 -50.802  0.00  0.00    -0.267 OA
ENDBRANCH   1   2
BRANCH   1  13
ATOM     13  C   UNL d   1     -41.331-122.463 -52.149  0.00  0.00     0.018 A 
ATOM     14  C   UNL d   1     -41.607-121.931 -52.714  0.00  0.00     0.003 A 
ATOM     15  C   UNL d   1     -41.680-122.182 -53.513  0.00  0.00     0.018 A 
ATOM     16  C   UNL d   1     -41.934-121.790 -54.193  0.00  0.00     0.019 A 
ATOM     17  C   UNL d   1     -41.475-122.957 -53.721  0.00  0.00     0.064 A 
ATOM     18  C   UNL d   1     -41.890-122.314 -54.829  0.00  0.00     0.064 A 
ATOM     19  C   UNL d   1     -42.091-122.148 -55.612  0.00  0.00     0.019 C 
ATOM     20  N   UNL d   1     -41.606-123.032 -54.532  0.00  0.00    -0.304 N 
ATOM     21  C   UNL d   1     -41.475-123.722 -54.985  0.00  0.00     0.099 C 
ATOM     22  C   UNL d   1     -41.199-123.486 -53.149  0.00  0.00     0.018 A 
ATOM     23  C   UNL d   1     -41.126-123.244 -52.367  0.00  0.00     0.003 A 
ENDBRANCH   1  13
TORSDOF 2
ENDMDL
MODEL 2
REMARK VINA RESULT:      -4.2      1.070      4.403
REMARK  2 active torsions:
REMARK  status: ('A' for Active; 'I' for Inactive)
REMARK    1  A    between atoms: C_11  and  N_1 
REMARK    2  A    between atoms: C_16  and  C_11 
ROOT
ATOM      1  C   UNL d   1     -41.122-122.284 -52.176  0.00  0.00     0.086 C 
ENDROOT
BRANCH   1   2
ATOM      2  N   UNL d   1     -41.443-122.344 -52.930  0.00  0.00    -0.240 N 
ATOM      3  C   UNL d   1     -41.445-123.024 -53.397  0.00  0.00     0.267 A 
ATOM      4  C   UNL d   1     -41.823-122.838 -54.111  0.00  0.00     0.061 A 
ATOM      5  O   UNL d   1     -41.131-123.754 -53.196  0.00  0.00    -0.267 OA
ATOM      6  C   UNL d   1     -41.984-123.287 -54.776  0.00  0.00     0.005 A 
ATOM      7  C   UNL d   1     -42.051-122.047 -54.081  0.00  0.00     0.061 A 
ATOM      8  C   UNL d   1     -42.376-122.943 -55.415  0.00  0.00     0.000 A 
ATOM      9  C   UNL d   1     -42.604-122.155 -55.387  0.00  0.00     0.000 A 
ATOM     10  C   UNL d   1     -42.438-121.706 -54.712  0.00  0.00     0.005 A 
ATOM     11  C   UNL d   1     -41.815-121.744 -53.350  0.00  0.00     0.267 A 
ATOM     12  O   UNL d   1     -41.935-120.966 -53.089  0.00  0.00    -0.267 OA
ENDBRANCH   1   2
BRANCH   1  13
ATOM     13  C   UNL d   1     -41.597-122.410 -51.503  0.00  0.00     0.018 A 
ATOM     14  C   UNL d   1     -41.346-122.936 -50.920  0.00  0.00     0.003 A 
ATOM     15  C   UNL d   1     -41.828-123.059 -50.244  0.00  0.00     0.018 A 
ATOM     16  C   UNL d   1     -41.734-123.538 -49.579  0.00  0.00     0.019 A 
ATOM     17  C   UNL d   1     -42.546-122.654 -50.171  0.00  0.00     0.064 A 
ATOM     18  C   UNL d   1     -42.388-123.437 -49.087  0.00  0.00     0.064 A 
ATOM     19  C   UNL d   1     -42.517-123.812 -48.364  0.00  0.00     0.019 C 
ATOM     20  N   UNL d   1     -42.886-122.891 -49.457  0.00  0.00    -0.304 N 
ATOM     21  C   UNL d   1     -43.618-122.623 -49.153  0.00  0.00     0.099 C 
ATOM     22  C   UNL d   1     -42.794-122.128 -50.759  0.00  0.00     0.018 A 
ATOM     23  C   UNL d   1     -42.324-122.004 -51.422  0.00  0.00     0.003 A 
ENDBRANCH   1  13
TORSDOF 2
ENDMDL
