MODEL 1
REMARK VINA RESULT:      11.1      0.000      0.000
REMARK  1 active torsions:
REMARK  status: ('A' for Active; 'I' for Inactive)
REMARK    1  A    between atoms: N_2  and  C_1 
ROOT
ATOM      1  C   UNL d   1     -58.472 -98.772 -43.785  0.00  0.00     0.148 A 
ATOM      2  C   UNL d   1     -57.673 -98.778 -43.505  0.00  0.00     0.051 A 
ATOM      3  C   UNL d   1     -58.613 -98.762 -44.598  0.00  0.00     0.127 A 
ATOM      4  C   UNL d   1     -57.046 -98.772 -44.034  0.00  0.00     0.121 A 
ATOM      5  C   UNL d   1     -57.956 -98.756 -45.131  0.00  0.00     0.049 A 
ATOM      6  C   UNL d   1     -57.188 -98.761 -44.846  0.00  0.00     0.121 A 
ATOM      7  O   UNL d   1     -56.206 -98.775 -43.911  0.00  0.00    -0.299 OA
ATOM      8  O   UNL d   1     -56.438 -98.757 -45.246  0.00  0.00    -0.299 OA
ATOM      9  C   UNL d   1     -55.860 -98.766 -44.653  0.00  0.00     0.304 A 
ATOM     10  N   UNL d   1     -59.438 -98.757 -44.848  0.00  0.00    -0.146 N 
ENDROOT
BRANCH   1  11
ATOM     11  N   UNL d   1     -59.162 -98.778 -43.271  0.00  0.00    -0.112 N 
ATOM     12  O   UNL d   1     -59.936 -98.805 -43.585  0.00  0.00    -0.532 OA
ATOM     13  O   UNL d   1     -59.071 -98.755 -42.418  0.00  0.00    -0.532 OA
ENDBRANCH   1  11
TORSDOF 1
ENDMDL
MODEL 2
REMARK VINA RESULT:      13.0      1.117      2.643
REMARK  1 active torsions:
REMARK  status: ('A' for Active; 'I' for Inactive)
REMARK    1  A    between atoms: N_2  and  C_1 
ROOT
ATOM      1  C   UNL d   1     -57.621 -98.788 -44.548  0.00  0.00     0.148 A 
ATOM      2  C   UNL d   1     -57.776 -98.799 -43.716  0.00  0.00     0.051 A 
ATOM      3  C   UNL d   1     -58.255 -98.767 -45.075  0.00  0.00     0.127 A 
ATOM      4  C   UNL d   1     -58.546 -98.788 -43.435  0.00  0.00     0.121 A 
ATOM      5  C   UNL d   1     -59.045 -98.756 -44.771  0.00  0.00     0.049 A 
ATOM      6  C   UNL d   1     -59.180 -98.767 -43.963  0.00  0.00     0.121 A 
ATOM      7  O   UNL d   1     -58.859 -98.795 -42.646  0.00  0.00    -0.299 OA
ATOM      8  O   UNL d   1     -59.900 -98.761 -43.512  0.00  0.00    -0.299 OA
ATOM      9  C   UNL d   1     -59.674 -98.778 -42.715  0.00  0.00     0.304 A 
ATOM     10  N   UNL d   1     -58.061 -98.756 -45.914  0.00  0.00    -0.146 N 
ENDROOT
BRANCH   1  11
ATOM     11  N   UNL d   1     -56.831 -98.797 -44.891  0.00  0.00    -0.112 N 
ATOM     12  O   UNL d   1     -56.717 -98.757 -45.717  0.00  0.00    -0.532 OA
ATOM     13  O   UNL d   1     -56.138 -98.849 -44.388  0.00  0.00    -0.532 OA
ENDBRANCH   1  11
TORSDOF 1
ENDMDL
