MODEL 1
REMARK VINA RESULT:      94.2      0.000      0.000
REMARK  4 active torsions:
REMARK  status: ('A' for Active; 'I' for Inactive)
REMARK    1  A    between atoms: N_3  and  S_1 
REMARK    2  A    between atoms: C_6  and  S_1 
REMARK       I    between atoms: C_2  and  N_4 
REMARK       I    between atoms: N_5  and  C_2 
REMARK    3  A    between atoms: C_14  and  N_5 
REMARK    4  A    between atoms: C_15  and  N_5 
ROOT
ATOM      1  C   UNL d   1      13.341  14.556  -5.314  0.00  0.00     0.339 C 
ATOM      2  N   UNL d   1      13.800  16.969  -5.620  0.00  0.00    -0.226 N 
ATOM      3  N   UNL d   1      13.497  15.373  -5.418  0.00  0.00    -0.254 N 
ATOM      4  N   UNL d   1      13.478  14.185  -4.597  0.00  0.00    -0.260 N 
ATOM      5  C   UNL d   1      13.500  16.522  -6.258  0.00  0.00     0.111 A 
ATOM      6  C   UNL d   1      13.943  16.611  -4.893  0.00  0.00     0.111 A 
ATOM      7  O   UNL d   1      13.044  14.122  -5.953  0.00  0.00    -0.245 OA
ATOM      8  C   UNL d   1      13.792  15.815  -4.792  0.00  0.00     0.104 A 
ATOM      9  C   UNL d   1      13.349  15.726  -6.156  0.00  0.00     0.104 A 
ENDROOT
BRANCH   4  10
ATOM     10  C   UNL d   1      13.781  14.633  -3.952  0.00  0.00     0.068 A 
ATOM     11  C   UNL d   1      13.247  14.947  -3.391  0.00  0.00     0.018 A 
ATOM     12  C   UNL d   1      13.537  15.392  -2.750  0.00  0.00     0.002 A 
ATOM     13  C   UNL d   1      14.362  15.519  -2.675  0.00  0.00     0.000 A 
ATOM     14  C   UNL d   1      14.891  15.202  -3.240  0.00  0.00     0.002 A 
ATOM     15  C   UNL d   1      14.594  14.754  -3.885  0.00  0.00     0.018 A 
ENDBRANCH   4  10
BRANCH   4  16
ATOM     16  C   UNL d   1      13.323  13.393  -4.509  0.00  0.00     0.068 A 
ATOM     17  C   UNL d   1      13.518  12.865  -5.117  0.00  0.00     0.018 A 
ATOM     18  C   UNL d   1      13.364  12.067  -5.032  0.00  0.00     0.002 A 
ATOM     19  C   UNL d   1      13.015  11.789  -4.340  0.00  0.00     0.000 A 
ATOM     20  C   UNL d   1      12.822  12.315  -3.737  0.00  0.00     0.002 A 
ATOM     21  C   UNL d   1      12.978  13.112  -3.826  0.00  0.00     0.018 A 
ENDBRANCH   4  16
BRANCH   2  22
ATOM     22  S   UNL d   1      13.953  17.773  -5.722  0.00  0.00     0.271 S 
ATOM     23  O   UNL d   1      14.390  18.185  -5.158  0.00  0.00    -0.200 OA
ATOM     24  O   UNL d   1      13.670  18.166  -6.388  0.00  0.00    -0.200 OA
BRANCH  22  25
ATOM     25  C   UNL d   1      14.106  18.577  -5.824  0.00  0.00     0.104 A 
ATOM     26  C   UNL d   1      13.548  19.059  -6.207  0.00  0.00     0.013 A 
ATOM     27  C   UNL d   1      13.701  19.863  -6.310  0.00  0.00     0.001 A 
ATOM     28  C   UNL d   1      14.413  20.186  -6.029  0.00  0.00     0.000 A 
ATOM     29  C   UNL d   1      14.963  19.701  -5.649  0.00  0.00     0.001 A 
ATOM     30  C   UNL d   1      14.566  20.990  -6.131  0.00  0.00     0.000 C 
ATOM     31  C   UNL d   1      14.811  18.902  -5.547  0.00  0.00     0.013 A 
ENDBRANCH  22  25
ENDBRANCH   2  22
TORSDOF 4
ENDMDL
