MODEL 1
REMARK VINA RESULT:      30.0      0.000      0.000
REMARK  2 active torsions:
REMARK  status: ('A' for Active; 'I' for Inactive)
REMARK    1  A    between atoms: C_6  and  C_1 
REMARK    2  A    between atoms: C_7  and  C_5 
ROOT
ATOM      1  C   UNL d   1     -55.521-102.367 -36.790  0.00  0.00     0.169 A 
ATOM      2  C   UNL d   1     -55.762-102.876 -37.400  0.00  0.00     0.048 A 
ATOM      3  N   UNL d   1     -54.907-101.517 -37.740  0.00  0.00    -0.148 NA
ATOM      4  N   UNL d   1     -55.092-101.686 -36.959  0.00  0.00    -0.142 NA
ATOM      5  C   UNL d   1     -55.145-102.022 -38.349  0.00  0.00     0.105 A 
ENDROOT
BRANCH   5   6
ATOM      6  C   UNL d   1     -55.062-102.029 -39.169  0.00  0.00     0.019 A 
ATOM      7  C   UNL d   1     -54.991-101.316 -39.577  0.00  0.00     0.002 A 
ATOM      8  C   UNL d   1     -54.907-101.323 -40.396  0.00  0.00     0.000 A 
ATOM      9  C   UNL d   1     -54.833-100.583 -40.825  0.00  0.00     0.000 C 
ATOM     10  C   UNL d   1     -54.895-102.043 -40.807  0.00  0.00     0.000 A 
ATOM     11  C   UNL d   1     -54.967-102.751 -40.391  0.00  0.00     0.000 A 
ATOM     12  C   UNL d   1     -54.812-102.048 -41.628  0.00  0.00     0.000 C 
ATOM     13  C   UNL d   1     -55.050-102.746 -39.576  0.00  0.00     0.002 A 
ENDBRANCH   5   6
BRANCH   1  14
ATOM     14  C   UNL d   1     -55.715-102.549 -36.007  0.00  0.00     0.231 C 
ATOM     15  O   UNL d   1     -55.149-102.464 -35.416  0.00  0.00    -0.643 OA
ATOM     16  O   UNL d   1     -56.468-102.813 -35.820  0.00  0.00    -0.643 OA
ENDBRANCH   1  14
TORSDOF 2
ENDMDL
MODEL 2
REMARK VINA RESULT:      30.8      2.994      4.267
REMARK  2 active torsions:
REMARK  status: ('A' for Active; 'I' for Inactive)
REMARK    1  A    between atoms: C_6  and  C_1 
REMARK    2  A    between atoms: C_7  and  C_5 
ROOT
ATOM      1  C   UNL d   1     -54.804-101.856 -40.798  0.00  0.00     0.169 A 
ATOM      2  C   UNL d   1     -54.844-101.095 -41.127  0.00  0.00     0.048 A 
ATOM      3  N   UNL d   1     -54.712-102.415 -42.094  0.00  0.00    -0.148 NA
ATOM      4  N   UNL d   1     -54.738-102.519 -41.280  0.00  0.00    -0.142 NA
ATOM      5  C   UNL d   1     -54.751-101.659 -42.425  0.00  0.00     0.105 A 
ENDROOT
BRANCH   5   6
ATOM      6  C   UNL d   1     -54.741-101.355 -43.191  0.00  0.00     0.019 A 
ATOM      7  C   UNL d   1     -54.739-101.872 -43.834  0.00  0.00     0.002 A 
ATOM      8  C   UNL d   1     -54.729-101.569 -44.599  0.00  0.00     0.000 A 
ATOM      9  C   UNL d   1     -54.726-102.102 -45.272  0.00  0.00     0.000 C 
ATOM     10  C   UNL d   1     -54.721-100.748 -44.721  0.00  0.00     0.000 A 
ATOM     11  C   UNL d   1     -54.724-100.240 -44.073  0.00  0.00     0.000 A 
ATOM     12  C   UNL d   1     -54.711-100.446 -45.490  0.00  0.00     0.000 C 
ATOM     13  C   UNL d   1     -54.734-100.539 -43.311  0.00  0.00     0.002 A 
ENDBRANCH   5   6
BRANCH   1  14
ATOM     14  C   UNL d   1     -54.832-101.946 -39.976  0.00  0.00     0.231 C 
ATOM     15  O   UNL d   1     -54.712-101.294 -39.489  0.00  0.00    -0.643 OA
ATOM     16  O   UNL d   1     -54.977-102.683 -39.648  0.00  0.00    -0.643 OA
ENDBRANCH   1  14
TORSDOF 2
ENDMDL
MODEL 3
REMARK VINA RESULT:      31.7      2.995      4.145
REMARK  2 active torsions:
REMARK  status: ('A' for Active; 'I' for Inactive)
REMARK    1  A    between atoms: C_6  and  C_1 
REMARK    2  A    between atoms: C_7  and  C_5 
ROOT
ATOM      1  C   UNL d   1     -54.867-101.851 -40.806  0.00  0.00     0.169 A 
ATOM      2  C   UNL d   1     -54.920-101.092 -41.136  0.00  0.00     0.048 A 
ATOM      3  N   UNL d   1     -54.755-102.410 -42.101  0.00  0.00    -0.148 NA
ATOM      4  N   UNL d   1     -54.784-102.513 -41.288  0.00  0.00    -0.142 NA
ATOM      5  C   UNL d   1     -54.808-101.655 -42.434  0.00  0.00     0.105 A 
ENDROOT
BRANCH   5   6
ATOM      6  C   UNL d   1     -54.799-101.351 -43.199  0.00  0.00     0.019 A 
ATOM      7  C   UNL d   1     -54.761-100.535 -43.312  0.00  0.00     0.002 A 
ATOM      8  C   UNL d   1     -54.752-100.231 -44.077  0.00  0.00     0.000 A 
ATOM      9  C   UNL d   1     -54.713 -99.382 -44.200  0.00  0.00     0.000 C 
ATOM     10  C   UNL d   1     -54.782-100.743 -44.729  0.00  0.00     0.000 A 
ATOM     11  C   UNL d   1     -54.820-101.556 -44.606  0.00  0.00     0.000 A 
ATOM     12  C   UNL d   1     -54.773-100.435 -45.495  0.00  0.00     0.000 C 
ATOM     13  C   UNL d   1     -54.829-101.861 -43.847  0.00  0.00     0.002 A 
ENDBRANCH   5   6
BRANCH   1  14
ATOM     14  C   UNL d   1     -54.898-101.941 -39.984  0.00  0.00     0.231 C 
ATOM     15  O   UNL d   1     -54.861-101.279 -39.499  0.00  0.00    -0.643 OA
ATOM     16  O   UNL d   1     -54.965-102.689 -39.655  0.00  0.00    -0.643 OA
ENDBRANCH   1  14
TORSDOF 2
ENDMDL
