MODEL 1
REMARK VINA RESULT:      39.7      0.000      0.000
REMARK  8 active torsions:
REMARK  status: ('A' for Active; 'I' for Inactive)
REMARK       I    between atoms: N_3  and  C_1 
REMARK    1  A    between atoms: C_11  and  C_1 
REMARK    2  A    between atoms: C_7  and  N_3 
REMARK    3  A    between atoms: C_5  and  O_8 
REMARK    4  A    between atoms: C_12  and  C_7 
REMARK    5  A    between atoms: O_8  and  C_15 
REMARK    6  A    between atoms: C_9  and  C_12 
REMARK    7  A    between atoms: C_19  and  C_11 
REMARK    8  A    between atoms: C_15  and  C_19 
ROOT
ATOM      1  C   UNL d   1     -47.862  29.141  35.267  0.00  0.00     0.328 C 
ATOM      2  O   UNL d   1     -47.979  28.881  36.041  0.00  0.00    -0.251 OA
ATOM      3  N   UNL d   1     -47.626  29.924  35.125  0.00  0.00    -0.362 NA
ENDROOT
BRANCH   1   4
ATOM      4  C   UNL d   1     -47.978  28.624  34.636  0.00  0.00     0.078 C 
BRANCH   4   5
ATOM      5  C   UNL d   1     -48.710  28.575  34.272  0.00  0.00     0.033 C 
BRANCH   5   6
ATOM      6  C   UNL d   1     -49.037  27.840  34.093  0.00  0.00     0.123 C 
BRANCH   6   7
ATOM      7  O   UNL d   1     -49.516  27.750  33.428  0.00  0.00    -0.305 OA
BRANCH   7   8
ATOM      8  C   UNL d   1     -50.059  27.132  33.388  0.00  0.00     0.100 A 
ATOM      9  C   UNL d   1     -49.796  26.344  33.384  0.00  0.00     0.025 A 
ATOM     10  C   UNL d   1     -50.347  25.729  33.344  0.00  0.00     0.002 A 
ATOM     11  C   UNL d   1     -50.082  24.949  33.340  0.00  0.00     0.000 C 
ATOM     12  C   UNL d   1     -51.155  25.891  33.307  0.00  0.00     0.000 A 
ATOM     13  C   UNL d   1     -51.420  26.670  33.311  0.00  0.00     0.002 A 
ATOM     14  C   UNL d   1     -50.875  27.296  33.351  0.00  0.00     0.025 A 
ENDBRANCH   7   8
ENDBRANCH   6   7
ENDBRANCH   5   6
ENDBRANCH   4   5
ENDBRANCH   1   4
BRANCH   3  15
ATOM     15  C   UNL d   1     -47.393  30.699  34.985  0.00  0.00     0.165 C 
BRANCH  15  16
ATOM     16  C   UNL d   1     -47.952  31.306  34.989  0.00  0.00     0.035 C 
BRANCH  16  17
ATOM     17  C   UNL d   1     -47.838  31.967  34.518  0.00  0.00     0.003 A 
ATOM     18  C   UNL d   1     -47.124  32.390  34.546  0.00  0.00     0.000 A 
ATOM     19  C   UNL d   1     -47.017  33.053  34.070  0.00  0.00     0.000 A 
ATOM     20  C   UNL d   1     -47.619  33.300  33.564  0.00  0.00     0.000 A 
ATOM     21  C   UNL d   1     -48.334  32.877  33.536  0.00  0.00     0.000 A 
ATOM     22  C   UNL d   1     -48.441  32.214  34.012  0.00  0.00     0.000 A 
ENDBRANCH  16  17
ENDBRANCH  15  16
ENDBRANCH   3  15
TORSDOF 8
ENDMDL
MODEL 2
REMARK VINA RESULT:      40.4      1.391      6.306
REMARK  8 active torsions:
REMARK  status: ('A' for Active; 'I' for Inactive)
REMARK       I    between atoms: N_3  and  C_1 
REMARK    1  A    between atoms: C_11  and  C_1 
REMARK    2  A    between atoms: C_7  and  N_3 
REMARK    3  A    between atoms: C_5  and  O_8 
REMARK    4  A    between atoms: C_12  and  C_7 
REMARK    5  A    between atoms: O_8  and  C_15 
REMARK    6  A    between atoms: C_9  and  C_12 
REMARK    7  A    between atoms: C_19  and  C_11 
REMARK    8  A    between atoms: C_15  and  C_19 
ROOT
ATOM      1  C   UNL d   1     -49.646  27.166  34.477  0.00  0.00     0.328 C 
ATOM      2  O   UNL d   1     -49.966  27.179  35.238  0.00  0.00    -0.251 OA
ATOM      3  N   UNL d   1     -49.997  26.696  33.889  0.00  0.00    -0.362 NA
ENDROOT
BRANCH   1   4
ATOM      4  C   UNL d   1     -48.981  27.619  34.301  0.00  0.00     0.078 C 
BRANCH   4   5
ATOM      5  C   UNL d   1     -48.903  28.375  34.607  0.00  0.00     0.033 C 
BRANCH   5   6
ATOM      6  C   UNL d   1     -48.160  28.665  34.815  0.00  0.00     0.123 C 
BRANCH   6   7
ATOM      7  O   UNL d   1     -48.059  29.077  35.522  0.00  0.00    -0.305 OA
BRANCH   7   8
ATOM      8  C   UNL d   1     -47.739  29.836  35.518  0.00  0.00     0.100 A 
ATOM      9  C   UNL d   1     -47.948  30.374  34.921  0.00  0.00     0.025 A 
ATOM     10  C   UNL d   1     -47.623  31.135  34.924  0.00  0.00     0.002 A 
ATOM     11  C   UNL d   1     -47.832  31.666  34.330  0.00  0.00     0.000 C 
ATOM     12  C   UNL d   1     -47.094  31.363  35.514  0.00  0.00     0.000 A 
ATOM     13  C   UNL d   1     -46.884  30.833  36.108  0.00  0.00     0.002 A 
ATOM     14  C   UNL d   1     -47.205  30.066  36.114  0.00  0.00     0.025 A 
ENDBRANCH   7   8
ENDBRANCH   6   7
ENDBRANCH   5   6
ENDBRANCH   4   5
ENDBRANCH   1   4
BRANCH   3  15
ATOM     15  C   UNL d   1     -50.344  26.231  33.308  0.00  0.00     0.165 C 
BRANCH  15  16
ATOM     16  C   UNL d   1     -51.147  26.047  33.352  0.00  0.00     0.035 C 
BRANCH  16  17
ATOM     17  C   UNL d   1     -51.388  25.264  33.337  0.00  0.00     0.003 A 
ATOM     18  C   UNL d   1     -50.830  24.649  33.331  0.00  0.00     0.000 A 
ATOM     19  C   UNL d   1     -51.078  23.865  33.316  0.00  0.00     0.000 A 
ATOM     20  C   UNL d   1     -51.883  23.687  33.306  0.00  0.00     0.000 A 
ATOM     21  C   UNL d   1     -52.442  24.302  33.312  0.00  0.00     0.000 A 
ATOM     22  C   UNL d   1     -52.193  25.086  33.327  0.00  0.00     0.000 A 
ENDBRANCH  16  17
ENDBRANCH  15  16
ENDBRANCH   3  15
TORSDOF 8
ENDMDL
MODEL 3
REMARK VINA RESULT:      41.3      0.963      5.841
REMARK  8 active torsions:
REMARK  status: ('A' for Active; 'I' for Inactive)
REMARK       I    between atoms: N_3  and  C_1 
REMARK    1  A    between atoms: C_11  and  C_1 
REMARK    2  A    between atoms: C_7  and  N_3 
REMARK    3  A    between atoms: C_5  and  O_8 
REMARK    4  A    between atoms: C_12  and  C_7 
REMARK    5  A    between atoms: O_8  and  C_15 
REMARK    6  A    between atoms: C_9  and  C_12 
REMARK    7  A    between atoms: C_19  and  C_11 
REMARK    8  A    between atoms: C_15  and  C_19 
ROOT
ATOM      1  C   UNL d   1     -48.566  28.289  35.107  0.00  0.00     0.328 C 
ATOM      2  O   UNL d   1     -48.801  28.246  35.897  0.00  0.00    -0.251 OA
ATOM      3  N   UNL d   1     -48.931  27.804  34.541  0.00  0.00    -0.362 NA
ENDROOT
BRANCH   1   4
ATOM      4  C   UNL d   1     -47.971  28.811  34.881  0.00  0.00     0.078 C 
BRANCH   4   5
ATOM      5  C   UNL d   1     -47.769  29.441  35.364  0.00  0.00     0.033 C 
BRANCH   5   6
ATOM      6  C   UNL d   1     -47.492  30.145  35.036  0.00  0.00     0.123 C 
BRANCH   6   7
ATOM      7  O   UNL d   1     -47.886  30.853  35.181  0.00  0.00    -0.305 OA
BRANCH   7   8
ATOM      8  C   UNL d   1     -47.738  31.515  34.714  0.00  0.00     0.100 A 
ATOM      9  C   UNL d   1     -48.346  32.054  34.546  0.00  0.00     0.025 A 
ATOM     10  C   UNL d   1     -48.190  32.716  34.076  0.00  0.00     0.002 A 
ATOM     11  C   UNL d   1     -48.796  33.249  33.913  0.00  0.00     0.000 C 
ATOM     12  C   UNL d   1     -47.434  32.845  33.772  0.00  0.00     0.000 A 
ATOM     13  C   UNL d   1     -46.827  32.313  33.935  0.00  0.00     0.002 A 
ATOM     14  C   UNL d   1     -46.974  31.645  34.406  0.00  0.00     0.025 A 
ENDBRANCH   7   8
ENDBRANCH   6   7
ENDBRANCH   5   6
ENDBRANCH   4   5
ENDBRANCH   1   4
BRANCH   3  15
ATOM     15  C   UNL d   1     -49.293  27.324  33.981  0.00  0.00     0.165 C 
BRANCH  15  16
ATOM     16  C   UNL d   1     -50.103  27.392  33.840  0.00  0.00     0.035 C 
BRANCH  16  17
ATOM     17  C   UNL d   1     -50.543  26.724  33.663  0.00  0.00     0.003 A 
ATOM     18  C   UNL d   1     -51.364  26.774  33.550  0.00  0.00     0.000 A 
ATOM     19  C   UNL d   1     -51.800  26.100  33.373  0.00  0.00     0.000 A 
ATOM     20  C   UNL d   1     -51.422  25.369  33.308  0.00  0.00     0.000 A 
ATOM     21  C   UNL d   1     -50.601  25.317  33.422  0.00  0.00     0.000 A 
ATOM     22  C   UNL d   1     -50.166  25.993  33.598  0.00  0.00     0.000 A 
ENDBRANCH  16  17
ENDBRANCH  15  16
ENDBRANCH   3  15
TORSDOF 8
ENDMDL
