MODEL 1
REMARK VINA RESULT:      39.8      0.000      0.000
REMARK  4 active torsions:
REMARK  status: ('A' for Active; 'I' for Inactive)
REMARK    1  A    between atoms: N_2  and  C_1 
REMARK       I    between atoms: C_3  and  N_2 
REMARK    2  A    between atoms: C_6  and  C_3 
REMARK    3  A    between atoms: C_11  and  C_7 
REMARK    4  A    between atoms: C_8  and  C_11 
ROOT
ATOM      1  C   UNL d   1     -56.366 -99.164 -44.189  0.00  0.00     0.197 A 
ATOM      2  N   UNL d   1     -55.724 -98.756 -44.455  0.00  0.00    -0.219 NA
ATOM      3  S   UNL d   1     -56.098 -99.885 -43.868  0.00  0.00    -0.047 SA
ATOM      4  C   UNL d   1     -55.287 -99.903 -43.945  0.00  0.00     0.051 A 
ATOM      5  C   UNL d   1     -55.039 -99.204 -44.311  0.00  0.00     0.108 A 
ENDROOT
BRANCH   4   6
ATOM      6  C   UNL d   1     -54.711-100.444 -43.744  0.00  0.00     0.009 C 
BRANCH   6   7
ATOM      7  C   UNL d   1     -54.760-101.224 -44.061  0.00  0.00     0.012 A 
ATOM      8  C   UNL d   1     -54.773-101.871 -43.557  0.00  0.00     0.058 A 
ATOM      9  C   UNL d   1     -54.822-102.655 -43.872  0.00  0.00     0.012 A 
ATOM     10 CL   UNL d   1     -54.738-101.767 -42.734  0.00  0.00    -0.082 Cl
ATOM     11  C   UNL d   1     -54.857-102.772 -44.671  0.00  0.00     0.012 A 
ATOM     12  C   UNL d   1     -54.845-102.124 -45.195  0.00  0.00     0.058 A 
ATOM     13  C   UNL d   1     -54.796-101.349 -44.876  0.00  0.00     0.012 A 
ATOM     14 CL   UNL d   1     -54.883-102.281 -46.025  0.00  0.00    -0.082 Cl
ENDBRANCH   6   7
ENDBRANCH   4   6
BRANCH   1  15
ATOM     15  N   UNL d   1     -57.163 -98.903 -44.231  0.00  0.00    -0.182 NA
ATOM     16  C   UNL d   1     -57.775 -99.427 -44.369  0.00  0.00     0.287 C 
ATOM     17  O   UNL d   1     -57.601-100.214 -44.468  0.00  0.00    -0.265 OA
BRANCH  16  18
ATOM     18  C   UNL d   1     -58.536 -99.168 -44.408  0.00  0.00     0.087 A 
ATOM     19  S   UNL d   1     -59.096 -99.009 -43.822  0.00  0.00    -0.082 SA
ATOM     20  C   UNL d   1     -59.784 -98.755 -44.209  0.00  0.00     0.036 A 
ATOM     21  C   UNL d   1     -59.654 -98.759 -44.974  0.00  0.00     0.008 A 
ATOM     22  C   UNL d   1     -58.871 -99.016 -45.120  0.00  0.00     0.012 A 
ENDBRANCH  16  18
ENDBRANCH   1  15
TORSDOF 4
ENDMDL
MODEL 2
REMARK VINA RESULT:      39.9      0.650      1.404
REMARK  4 active torsions:
REMARK  status: ('A' for Active; 'I' for Inactive)
REMARK    1  A    between atoms: N_2  and  C_1 
REMARK       I    between atoms: C_3  and  N_2 
REMARK    2  A    between atoms: C_6  and  C_3 
REMARK    3  A    between atoms: C_11  and  C_7 
REMARK    4  A    between atoms: C_8  and  C_11 
ROOT
ATOM      1  C   UNL d   1     -56.526 -99.139 -44.063  0.00  0.00     0.197 A 
ATOM      2  N   UNL d   1     -56.074 -98.755 -44.610  0.00  0.00    -0.219 NA
ATOM      3  S   UNL d   1     -56.094 -99.796 -43.787  0.00  0.00    -0.047 SA
ATOM      4  C   UNL d   1     -55.377 -99.800 -44.175  0.00  0.00     0.051 A 
ATOM      5  C   UNL d   1     -55.350 -99.155 -44.693  0.00  0.00     0.108 A 
ENDROOT
BRANCH   4   6
ATOM      6  C   UNL d   1     -54.724-100.287 -44.151  0.00  0.00     0.009 C 
BRANCH   6   7
ATOM      7  C   UNL d   1     -54.792-101.038 -43.775  0.00  0.00     0.012 A 
ATOM      8  C   UNL d   1     -54.934-101.710 -44.224  0.00  0.00     0.058 A 
ATOM      9  C   UNL d   1     -55.003-102.465 -43.849  0.00  0.00     0.012 A 
ATOM     10 CL   UNL d   1     -55.012-101.659 -45.049  0.00  0.00    -0.082 Cl
ATOM     11  C   UNL d   1     -54.930-102.531 -43.046  0.00  0.00     0.012 A 
ATOM     12  C   UNL d   1     -54.786-101.857 -42.578  0.00  0.00     0.058 A 
ATOM     13  C   UNL d   1     -54.719-101.110 -42.957  0.00  0.00     0.012 A 
ATOM     14 CL   UNL d   1     -54.715-101.959 -41.741  0.00  0.00    -0.082 Cl
ENDBRANCH   6   7
ENDBRANCH   4   6
BRANCH   1  15
ATOM     15  N   UNL d   1     -57.297 -98.911 -43.820  0.00  0.00    -0.182 NA
ATOM     16  C   UNL d   1     -57.954 -99.357 -44.017  0.00  0.00     0.287 C 
ATOM     17  O   UNL d   1     -57.850-100.032 -44.457  0.00  0.00    -0.265 OA
BRANCH  16  18
ATOM     18  C   UNL d   1     -58.689 -99.131 -43.779  0.00  0.00     0.087 A 
ATOM     19  S   UNL d   1     -59.015 -99.016 -43.030  0.00  0.00    -0.082 SA
ATOM     20  C   UNL d   1     -59.802 -98.782 -43.144  0.00  0.00     0.036 A 
ATOM     21  C   UNL d   1     -59.946 -98.757 -43.906  0.00  0.00     0.008 A 
ATOM     22  C   UNL d   1     -59.255 -98.974 -44.324  0.00  0.00     0.012 A 
ENDBRANCH  16  18
ENDBRANCH   1  15
TORSDOF 4
ENDMDL
