MODEL 1
REMARK VINA RESULT:      -1.1      0.000      0.000
REMARK  9 active torsions:
REMARK  status: ('A' for Active; 'I' for Inactive)
REMARK       I    between atoms: C_5  and  N_1 
REMARK    1  A    between atoms: C_6  and  N_1 
REMARK    2  A    between atoms: C_7  and  C_3 
REMARK    3  A    between atoms: C_8  and  C_4 
REMARK    4  A    between atoms: C_17  and  C_5 
REMARK    5  A    between atoms: N_9  and  C_6 
REMARK    6  A    between atoms: N_14  and  N_9 
REMARK       I    between atoms: C_10  and  N_14 
REMARK    7  A    between atoms: C_20  and  C_10 
REMARK    8  A    between atoms: C_16  and  C_21 
REMARK    9  A    between atoms: C_21  and  C_20 
ROOT
ATOM      1  C   UNL d   1      58.015  -0.422  30.817  0.00  0.00     0.064 C 
ENDROOT
BRANCH   1   2
ATOM      2  C   UNL d   1      57.583   0.271  30.885  0.00  0.00     0.297 C 
ATOM      3  N   UNL d   1      57.555   0.682  31.595  0.00  0.00    -0.103 NA
ATOM      4  O   UNL d   1      57.175   0.548  30.224  0.00  0.00    -0.264 OA
BRANCH   3   5
ATOM      5  N   UNL d   1      57.959   0.411  32.258  0.00  0.00    -0.114 NA
BRANCH   5   6
ATOM      6  C   UNL d   1      57.721   0.583  33.007  0.00  0.00     0.243 C 
ATOM      7  S   UNL d   1      58.267   0.682  33.607  0.00  0.00    -0.035 SA
BRANCH   6   8
ATOM      8  N   UNL d   1      56.916   0.660  33.165  0.00  0.00    -0.177 NA
ATOM      9  C   UNL d   1      56.607   0.364  33.865  0.00  0.00     0.281 C 
ATOM     10  O   UNL d   1      57.085  -0.009  34.415  0.00  0.00    -0.265 OA
BRANCH   9  11
ATOM     11  C   UNL d   1      55.807   0.446  34.011  0.00  0.00     0.058 A 
ATOM     12  C   UNL d   1      55.523   0.544  34.781  0.00  0.00     0.005 A 
ATOM     13  C   UNL d   1      54.716   0.627  34.938  0.00  0.00     0.000 A 
ATOM     14  C   UNL d   1      54.176   0.613  34.305  0.00  0.00     0.000 A 
ATOM     15  C   UNL d   1      54.447   0.516  33.532  0.00  0.00     0.000 A 
ATOM     16  C   UNL d   1      55.258   0.434  33.391  0.00  0.00     0.005 A 
ENDBRANCH   9  11
ENDBRANCH   6   8
ENDBRANCH   5   6
ENDBRANCH   3   5
ENDBRANCH   1   2
BRANCH   1  17
ATOM     17  C   UNL d   1      57.797  -0.983  30.258  0.00  0.00     0.005 C 
BRANCH  17  18
ATOM     18  C   UNL d   1      58.372  -1.397  29.823  0.00  0.00    -0.000 A 
ATOM     19  C   UNL d   1      59.054  -1.010  29.581  0.00  0.00    -0.001 A 
ATOM     20  C   UNL d   1      59.631  -1.404  29.151  0.00  0.00     0.016 A 
ATOM     21  C   UNL d   1      59.525  -2.195  28.960  0.00  0.00     0.188 A 
ATOM     22  C   UNL d   1      58.840  -2.604  29.197  0.00  0.00     0.016 A 
ATOM     23  O   UNL d   1      60.113  -2.610  28.518  0.00  0.00    -0.287 OA
ATOM     24  C   UNL d   1      58.266  -2.189  29.631  0.00  0.00    -0.001 A 
BRANCH  20  25
ATOM     25  C   UNL d   1      60.313  -1.017  28.909  0.00  0.00     0.022 C 
ATOM     26  C   UNL d   1      59.871  -0.358  28.665  0.00  0.00     0.004 C 
ATOM     27  C   UNL d   1      60.780  -1.676  29.152  0.00  0.00     0.004 C 
ATOM     28  C   UNL d   1      61.024  -0.629  28.665  0.00  0.00     0.004 C 
ENDBRANCH  20  25
BRANCH  22  29
ATOM     29  C   UNL d   1      58.715  -3.396  29.016  0.00  0.00     0.022 C 
ATOM     30  C   UNL d   1      59.278  -3.615  29.572  0.00  0.00     0.004 C 
ATOM     31  C   UNL d   1      58.149  -3.178  28.456  0.00  0.00     0.004 C 
ATOM     32  C   UNL d   1      58.582  -4.187  28.827  0.00  0.00     0.004 C 
ENDBRANCH  22  29
ENDBRANCH  17  18
ENDBRANCH   1  17
TORSDOF 9
ENDMDL
MODEL 2
REMARK VINA RESULT:       0.8      1.644      5.941
REMARK  9 active torsions:
REMARK  status: ('A' for Active; 'I' for Inactive)
REMARK       I    between atoms: C_5  and  N_1 
REMARK    1  A    between atoms: C_6  and  N_1 
REMARK    2  A    between atoms: C_7  and  C_3 
REMARK    3  A    between atoms: C_8  and  C_4 
REMARK    4  A    between atoms: C_17  and  C_5 
REMARK    5  A    between atoms: N_9  and  C_6 
REMARK    6  A    between atoms: N_14  and  N_9 
REMARK       I    between atoms: C_10  and  N_14 
REMARK    7  A    between atoms: C_20  and  C_10 
REMARK    8  A    between atoms: C_16  and  C_21 
REMARK    9  A    between atoms: C_21  and  C_20 
ROOT
ATOM      1  C   UNL d   1      58.498   0.184  31.912  0.00  0.00     0.064 C 
ENDROOT
BRANCH   1   2
ATOM      2  C   UNL d   1      59.205   0.445  31.590  0.00  0.00     0.297 C 
ATOM      3  N   UNL d   1      59.313   0.473  30.777  0.00  0.00    -0.103 NA
ATOM      4  O   UNL d   1      59.808   0.681  32.102  0.00  0.00    -0.264 OA
BRANCH   3   5
ATOM      5  N   UNL d   1      58.717   0.240  30.262  0.00  0.00    -0.114 NA
BRANCH   5   6
ATOM      6  C   UNL d   1      58.870  -0.021  29.517  0.00  0.00     0.243 C 
ATOM      7  S   UNL d   1      59.164   0.488  28.947  0.00  0.00    -0.035 SA
BRANCH   6   8
ATOM      8  N   UNL d   1      58.726  -0.810  29.330  0.00  0.00    -0.177 NA
ATOM      9  C   UNL d   1      59.353  -1.306  29.143  0.00  0.00     0.281 C 
ATOM     10  O   UNL d   1      60.124  -1.031  29.138  0.00  0.00    -0.265 OA
BRANCH   9  11
ATOM     11  C   UNL d   1      59.198  -2.088  28.959  0.00  0.00     0.058 A 
ATOM     12  C   UNL d   1      58.428  -2.344  28.805  0.00  0.00     0.005 A 
ATOM     13  C   UNL d   1      58.263  -3.131  28.619  0.00  0.00     0.000 A 
ATOM     14  C   UNL d   1      58.887  -3.680  28.585  0.00  0.00     0.000 A 
ATOM     15  C   UNL d   1      59.661  -3.437  28.736  0.00  0.00     0.000 A 
ATOM     16  C   UNL d   1      59.810  -2.645  28.922  0.00  0.00     0.005 A 
ENDBRANCH   9  11
ENDBRANCH   6   8
ENDBRANCH   5   6
ENDBRANCH   3   5
ENDBRANCH   1   2
BRANCH   1  17
ATOM     17  C   UNL d   1      58.077   0.674  32.418  0.00  0.00     0.005 C 
BRANCH  17  18
ATOM     18  C   UNL d   1      57.489   0.367  32.920  0.00  0.00    -0.000 A 
ATOM     19  C   UNL d   1      56.923  -0.142  32.614  0.00  0.00    -0.001 A 
ATOM     20  C   UNL d   1      56.335  -0.455  33.094  0.00  0.00     0.016 A 
ATOM     21  C   UNL d   1      56.314  -0.256  33.890  0.00  0.00     0.188 A 
ATOM     22  C   UNL d   1      56.880   0.259  34.217  0.00  0.00     0.016 A 
ATOM     23  O   UNL d   1      55.714  -0.572  34.393  0.00  0.00    -0.287 OA
ATOM     24  C   UNL d   1      57.467   0.566  33.716  0.00  0.00    -0.001 A 
BRANCH  20  25
ATOM     25  C   UNL d   1      55.769  -0.964  32.788  0.00  0.00     0.022 C 
ATOM     26  C   UNL d   1      56.342  -1.550  32.659  0.00  0.00     0.004 C 
ATOM     27  C   UNL d   1      55.171  -0.381  32.911  0.00  0.00     0.004 C 
ATOM     28  C   UNL d   1      55.175  -1.478  32.475  0.00  0.00     0.004 C 
ENDBRANCH  20  25
BRANCH  22  29
ATOM     29  C   UNL d   1      56.876   0.471  35.012  0.00  0.00     0.022 C 
ATOM     30  C   UNL d   1      56.059   0.548  34.990  0.00  0.00     0.004 C 
ATOM     31  C   UNL d   1      57.697   0.394  35.036  0.00  0.00     0.004 C 
ATOM     32  C   UNL d   1      56.883   0.682  35.808  0.00  0.00     0.004 C 
ENDBRANCH  22  29
ENDBRANCH  17  18
ENDBRANCH   1  17
TORSDOF 9
ENDMDL
