MODEL 1
REMARK VINA RESULT:       0.4      0.000      0.000
REMARK  6 active torsions:
REMARK  status: ('A' for Active; 'I' for Inactive)
REMARK    1  A    between atoms: N_15  and  C_1 
REMARK    2  A    between atoms: C_21  and  N_6 
REMARK    3  A    between atoms: C_16  and  C_8 
REMARK    4  A    between atoms: C_9  and  S_17 
REMARK       I    between atoms: C_20  and  N_15 
REMARK    5  A    between atoms: S_17  and  C_23 
REMARK    6  A    between atoms: C_23  and  C_20 
ROOT
ATOM      1  C   UNL d   1      32.992  18.847 -21.850  0.00  0.00     0.099 C 
ENDROOT
BRANCH   1   2
ATOM      2  S   UNL d   1      33.239  19.687 -21.989  0.00  0.00    -0.064 SA
BRANCH   2   3
ATOM      3  C   UNL d   1      33.111  20.429 -21.576  0.00  0.00     0.096 A 
ATOM      4  N   UNL d   1      33.078  21.131 -22.005  0.00  0.00    -0.285 N 
ATOM      5  C   UNL d   1      32.952  21.859 -21.600  0.00  0.00     0.150 A 
ATOM      6  C   UNL d   1      33.132  21.849 -23.259  0.00  0.00     0.084 A 
ATOM      7  N   UNL d   1      32.917  22.574 -22.027  0.00  0.00    -0.227 NA
ATOM      8  C   UNL d   1      32.864  21.861 -20.781  0.00  0.00     0.056 A 
ATOM      9  C   UNL d   1      33.006  22.576 -22.855  0.00  0.00     0.099 A 
ATOM     10  C   UNL d   1      32.973  23.278 -23.284  0.00  0.00     0.021 A 
ATOM     11  C   UNL d   1      33.061  23.276 -24.104  0.00  0.00     0.002 A 
ATOM     12  C   UNL d   1      33.185  22.559 -24.501  0.00  0.00     0.002 A 
ATOM     13  C   UNL d   1      33.220  21.846 -24.080  0.00  0.00     0.019 A 
ATOM     14  C   UNL d   1      32.898  21.143 -20.350  0.00  0.00     0.006 A 
ATOM     15  C   UNL d   1      33.022  20.432 -20.755  0.00  0.00     0.025 A 
ATOM     16  C   UNL d   1      32.810  21.150 -19.538  0.00  0.00     0.000 C 
BRANCH   8  17
ATOM     17  C   UNL d   1      32.740  22.572 -20.375  0.00  0.00     0.125 C 
ATOM     18  N   UNL d   1      33.198  22.705 -19.697  0.00  0.00    -0.146 N 
ENDBRANCH   8  17
ENDBRANCH   2   3
ENDBRANCH   1   2
BRANCH   1  19
ATOM     19  C   UNL d   1      32.725  18.357 -22.528  0.00  0.00     0.286 C 
ATOM     20  N   UNL d   1      31.956  17.924 -22.479  0.00  0.00    -0.201 NA
ATOM     21  O   UNL d   1      33.217  18.293 -23.258  0.00  0.00    -0.265 OA
BRANCH  20  22
ATOM     22  C   UNL d   1      31.681  17.428 -23.159  0.00  0.00     0.160 A 
ATOM     23  C   UNL d   1      30.961  17.256 -23.484  0.00  0.00     0.298 A 
ATOM     24  N   UNL d   1      30.920  16.764 -24.126  0.00  0.00    -0.209 N 
ATOM     25  O   UNL d   1      30.295  17.570 -23.171  0.00  0.00    -0.263 OA
ATOM     26  N   UNL d   1      31.585  16.448 -24.442  0.00  0.00    -0.238 N 
ATOM     27  C   UNL d   1      32.306  16.623 -24.115  0.00  0.00     0.104 A 
ATOM     28  C   UNL d   1      31.544  15.961 -25.078  0.00  0.00     0.120 C 
ATOM     29  C   UNL d   1      33.137  16.396 -24.292  0.00  0.00     0.022 C 
BRANCH  24  30
ATOM     30  C   UNL d   1      30.199  16.592 -24.450  0.00  0.00     0.085 A 
ATOM     31  C   UNL d   1      29.714  17.191 -24.680  0.00  0.00     0.019 A 
ATOM     32  C   UNL d   1      28.994  17.018 -25.004  0.00  0.00     0.002 A 
ATOM     33  C   UNL d   1      28.771  16.245 -25.093  0.00  0.00     0.000 A 
ATOM     34  C   UNL d   1      29.268  15.660 -24.857  0.00  0.00     0.002 A 
ATOM     35  C   UNL d   1      29.981  15.835 -24.537  0.00  0.00     0.019 A 
ENDBRANCH  24  30
ENDBRANCH  20  22
ENDBRANCH   1  19
TORSDOF 6
ENDMDL
MODEL 2
REMARK VINA RESULT:       3.0      1.344      6.521
REMARK  6 active torsions:
REMARK  status: ('A' for Active; 'I' for Inactive)
REMARK    1  A    between atoms: N_15  and  C_1 
REMARK    2  A    between atoms: C_21  and  N_6 
REMARK    3  A    between atoms: C_16  and  C_8 
REMARK    4  A    between atoms: C_9  and  S_17 
REMARK       I    between atoms: C_20  and  N_15 
REMARK    5  A    between atoms: S_17  and  C_23 
REMARK    6  A    between atoms: C_23  and  C_20 
ROOT
ATOM      1  C   UNL d   1      31.718  19.254 -22.526  0.00  0.00     0.099 C 
ENDROOT
BRANCH   1   2
ATOM      2  S   UNL d   1      32.016  18.855 -23.259  0.00  0.00    -0.064 SA
BRANCH   2   3
ATOM      3  C   UNL d   1      31.975  18.055 -23.569  0.00  0.00     0.096 A 
ATOM      4  N   UNL d   1      31.281  17.796 -23.929  0.00  0.00    -0.285 N 
ATOM      5  C   UNL d   1      31.240  17.011 -24.233  0.00  0.00     0.150 A 
ATOM      6  C   UNL d   1      29.921  18.025 -24.365  0.00  0.00     0.084 A 
ATOM      7  N   UNL d   1      30.542  16.741 -24.600  0.00  0.00    -0.227 NA
ATOM      8  C   UNL d   1      31.893  16.513 -24.167  0.00  0.00     0.056 A 
ATOM      9  C   UNL d   1      29.881  17.242 -24.668  0.00  0.00     0.099 A 
ATOM     10  C   UNL d   1      29.187  16.982 -25.029  0.00  0.00     0.021 A 
ATOM     11  C   UNL d   1      28.534  17.482 -25.095  0.00  0.00     0.002 A 
ATOM     12  C   UNL d   1      28.575  18.253 -24.796  0.00  0.00     0.002 A 
ATOM     13  C   UNL d   1      29.268  18.525 -24.431  0.00  0.00     0.019 A 
ATOM     14  C   UNL d   1      32.595  16.783 -23.800  0.00  0.00     0.006 A 
ATOM     15  C   UNL d   1      32.628  17.555 -23.503  0.00  0.00     0.025 A 
ATOM     16  C   UNL d   1      33.241  16.285 -23.736  0.00  0.00     0.000 C 
BRANCH   8  17
ATOM     17  C   UNL d   1      31.861  15.740 -24.464  0.00  0.00     0.125 C 
ATOM     18  N   UNL d   1      32.403  15.541 -25.058  0.00  0.00    -0.146 N 
ENDBRANCH   8  17
ENDBRANCH   2   3
ENDBRANCH   1   2
BRANCH   1  19
ATOM     19  C   UNL d   1      32.125  19.973 -22.229  0.00  0.00     0.286 C 
ATOM     20  N   UNL d   1      31.649  20.639 -21.896  0.00  0.00    -0.201 NA
ATOM     21  O   UNL d   1      33.005  20.037 -22.260  0.00  0.00    -0.265 OA
BRANCH  20  22
ATOM     22  C   UNL d   1      32.054  21.367 -21.595  0.00  0.00     0.160 A 
ATOM     23  C   UNL d   1      32.205  21.673 -20.862  0.00  0.00     0.298 A 
ATOM     24  N   UNL d   1      32.603  22.375 -20.796  0.00  0.00    -0.209 N 
ATOM     25  O   UNL d   1      31.963  21.282 -20.207  0.00  0.00    -0.263 OA
ATOM     26  N   UNL d   1      32.847  22.769 -21.449  0.00  0.00    -0.238 N 
ATOM     27  C   UNL d   1      32.694  22.460 -22.184  0.00  0.00     0.104 A 
ATOM     28  C   UNL d   1      33.241  23.465 -21.384  0.00  0.00     0.120 C 
ATOM     29  C   UNL d   1      32.864  22.714 -23.008  0.00  0.00     0.022 C 
BRANCH  24  30
ATOM     30  C   UNL d   1      32.754  22.681 -20.062  0.00  0.00     0.085 A 
ATOM     31  C   UNL d   1      32.561  22.254 -19.408  0.00  0.00     0.019 A 
ATOM     32  C   UNL d   1      32.712  22.560 -18.675  0.00  0.00     0.002 A 
ATOM     33  C   UNL d   1      33.056  23.291 -18.610  0.00  0.00     0.000 A 
ATOM     34  C   UNL d   1      33.241  23.701 -19.274  0.00  0.00     0.002 A 
ATOM     35  C   UNL d   1      33.089  23.395 -19.999  0.00  0.00     0.019 A 
ENDBRANCH  24  30
ENDBRANCH  20  22
ENDBRANCH   1  19
TORSDOF 6
ENDMDL
