MODEL 1
REMARK VINA RESULT:      -9.4      0.000      0.000
REMARK  3 active torsions:
REMARK  status: ('A' for Active; 'I' for Inactive)
REMARK    1  A    between atoms: C_12  and  C_5 
REMARK    2  A    between atoms: C_14  and  C_12 
REMARK    3  A    between atoms: C_15  and  C_14 
ROOT
ATOM      1  C   UNL d   1     -46.006  13.075  23.077  0.00  0.00     0.206 A 
ATOM      2  C   UNL d   1     -46.784  13.338  22.989  0.00  0.00     0.063 A 
ATOM      3  C   UNL d   1     -47.259  12.059  23.378  0.00  0.00     0.111 A 
ATOM      4  C   UNL d   1     -46.486  11.798  23.466  0.00  0.00     0.214 A 
ATOM      5  C   UNL d   1     -47.407  12.834  23.138  0.00  0.00     0.018 A 
ATOM      6  O   UNL d   1     -45.859  12.311  23.314  0.00  0.00    -0.268 OA
ATOM      7  N   UNL d   1     -45.509  13.670  22.898  0.00  0.00    -0.123 NA
ATOM      8  N   UNL d   1     -45.940  14.318  22.695  0.00  0.00    -0.146 NA
ATOM      9  C   UNL d   1     -46.735  14.125  22.747  0.00  0.00     0.106 A 
ATOM     10  C   UNL d   1     -47.886  11.545  23.531  0.00  0.00     0.105 C 
ATOM     11  N   UNL d   1     -48.506  11.040  23.681  0.00  0.00    -0.191 NA
ATOM     12  N   UNL d   1     -46.344  11.051  23.697  0.00  0.00    -0.120 N 
ATOM     13  C   UNL d   1     -47.362  14.761  22.546  0.00  0.00     0.023 C 
ENDROOT
BRANCH   5  14
ATOM     14  C   UNL d   1     -48.170  13.092  23.052  0.00  0.00     0.001 C 
BRANCH  14  15
ATOM     15  C   UNL d   1     -48.792  12.927  22.379  0.00  0.00     0.000 C 
BRANCH  15  16
ATOM     16  C   UNL d   1     -49.550  13.246  22.306  0.00  0.00     0.000 A 
ATOM     17  C   UNL d   1     -49.997  13.437  22.990  0.00  0.00     0.000 A 
ATOM     18  C   UNL d   1     -50.743  13.750  22.907  0.00  0.00     0.000 A 
ATOM     19  C   UNL d   1     -51.064  13.882  22.146  0.00  0.00     0.000 A 
ATOM     20  C   UNL d   1     -50.624  13.694  21.473  0.00  0.00     0.000 A 
ATOM     21  C   UNL d   1     -49.866  13.376  21.564  0.00  0.00     0.000 A 
ENDBRANCH  15  16
ENDBRANCH  14  15
ENDBRANCH   5  14
TORSDOF 3
ENDMDL
MODEL 2
REMARK VINA RESULT:      -9.1      0.958      2.109
REMARK  3 active torsions:
REMARK  status: ('A' for Active; 'I' for Inactive)
REMARK    1  A    between atoms: C_12  and  C_5 
REMARK    2  A    between atoms: C_14  and  C_12 
REMARK    3  A    between atoms: C_15  and  C_14 
ROOT
ATOM      1  C   UNL d   1     -45.845  12.547  23.195  0.00  0.00     0.206 A 
ATOM      2  C   UNL d   1     -46.654  12.401  23.272  0.00  0.00     0.063 A 
ATOM      3  C   UNL d   1     -46.931  13.738  22.886  0.00  0.00     0.111 A 
ATOM      4  C   UNL d   1     -46.127  13.883  22.810  0.00  0.00     0.214 A 
ATOM      5  C   UNL d   1     -47.194  12.992  23.118  0.00  0.00     0.018 A 
ATOM      6  O   UNL d   1     -45.584  13.282  22.966  0.00  0.00    -0.268 OA
ATOM      7  N   UNL d   1     -45.444  11.884  23.376  0.00  0.00    -0.123 NA
ATOM      8  N   UNL d   1     -45.968  11.306  23.569  0.00  0.00    -0.146 NA
ATOM      9  C   UNL d   1     -46.725  11.614  23.509  0.00  0.00     0.106 A 
ATOM     10  C   UNL d   1     -47.474  14.339  22.729  0.00  0.00     0.105 C 
ATOM     11  N   UNL d   1     -48.010  14.930  22.575  0.00  0.00    -0.191 NA
ATOM     12  N   UNL d   1     -45.873  14.602  22.586  0.00  0.00    -0.120 N 
ATOM     13  C   UNL d   1     -47.441  11.076  23.698  0.00  0.00     0.023 C 
ENDROOT
BRANCH   5  14
ATOM     14  C   UNL d   1     -47.988  12.849  23.193  0.00  0.00     0.001 C 
BRANCH  14  15
ATOM     15  C   UNL d   1     -48.590  12.455  22.602  0.00  0.00     0.000 C 
BRANCH  15  16
ATOM     16  C   UNL d   1     -49.415  12.484  22.631  0.00  0.00     0.000 A 
ATOM     17  C   UNL d   1     -49.814  12.464  23.369  0.00  0.00     0.000 A 
ATOM     18  C   UNL d   1     -50.626  12.494  23.386  0.00  0.00     0.000 A 
ATOM     19  C   UNL d   1     -51.064  12.544  22.675  0.00  0.00     0.000 A 
ATOM     20  C   UNL d   1     -50.671  12.564  21.949  0.00  0.00     0.000 A 
ATOM     21  C   UNL d   1     -49.844  12.533  21.938  0.00  0.00     0.000 A 
ENDBRANCH  15  16
ENDBRANCH  14  15
ENDBRANCH   5  14
TORSDOF 3
ENDMDL
MODEL 3
REMARK VINA RESULT:      -8.2      1.926      4.016
REMARK  3 active torsions:
REMARK  status: ('A' for Active; 'I' for Inactive)
REMARK    1  A    between atoms: C_12  and  C_5 
REMARK    2  A    between atoms: C_14  and  C_12 
REMARK    3  A    between atoms: C_15  and  C_14 
ROOT
ATOM      1  C   UNL d   1     -50.250  12.104  23.239  0.00  0.00     0.206 A 
ATOM      2  C   UNL d   1     -49.446  12.289  23.247  0.00  0.00     0.063 A 
ATOM      3  C   UNL d   1     -49.737  13.578  22.731  0.00  0.00     0.111 A 
ATOM      4  C   UNL d   1     -50.537  13.394  22.723  0.00  0.00     0.214 A 
ATOM      5  C   UNL d   1     -49.189  13.020  22.995  0.00  0.00     0.018 A 
ATOM      6  O   UNL d   1     -50.791  12.652  22.979  0.00  0.00    -0.268 OA
ATOM      7  N   UNL d   1     -50.349  11.362  23.511  0.00  0.00    -0.123 NA
ATOM      8  N   UNL d   1     -49.629  11.055  23.697  0.00  0.00    -0.146 NA
ATOM      9  C   UNL d   1     -49.058  11.621  23.538  0.00  0.00     0.106 A 
ATOM     10  C   UNL d   1     -49.483  14.319  22.475  0.00  0.00     0.105 C 
ATOM     11  N   UNL d   1     -49.231  15.050  22.223  0.00  0.00    -0.191 NA
ATOM     12  N   UNL d   1     -51.064  13.931  22.469  0.00  0.00    -0.120 N 
ATOM     13  C   UNL d   1     -48.179  11.423  23.698  0.00  0.00     0.023 C 
ENDROOT
BRANCH   5  14
ATOM     14  C   UNL d   1     -48.400  13.202  23.003  0.00  0.00     0.001 C 
BRANCH  14  15
ATOM     15  C   UNL d   1     -47.777  13.220  22.312  0.00  0.00     0.000 C 
BRANCH  15  16
ATOM     16  C   UNL d   1     -46.965  13.365  22.370  0.00  0.00     0.000 A 
ATOM     17  C   UNL d   1     -46.671  13.908  22.938  0.00  0.00     0.000 A 
ATOM     18  C   UNL d   1     -45.871  14.042  22.987  0.00  0.00     0.000 A 
ATOM     19  C   UNL d   1     -45.342  13.644  22.476  0.00  0.00     0.000 A 
ATOM     20  C   UNL d   1     -45.632  13.110  21.917  0.00  0.00     0.000 A 
ATOM     21  C   UNL d   1     -46.447  12.977  21.872  0.00  0.00     0.000 A 
ENDBRANCH  15  16
ENDBRANCH  14  15
ENDBRANCH   5  14
TORSDOF 3
ENDMDL
MODEL 4
REMARK VINA RESULT:      -8.1      2.132      3.747
REMARK  3 active torsions:
REMARK  status: ('A' for Active; 'I' for Inactive)
REMARK    1  A    between atoms: C_12  and  C_5 
REMARK    2  A    between atoms: C_14  and  C_12 
REMARK    3  A    between atoms: C_15  and  C_14 
ROOT
ATOM      1  C   UNL d   1     -50.644  14.367  23.130  0.00  0.00     0.206 A 
ATOM      2  C   UNL d   1     -49.863  14.294  22.874  0.00  0.00     0.063 A 
ATOM      3  C   UNL d   1     -49.896  12.906  23.171  0.00  0.00     0.111 A 
ATOM      4  C   UNL d   1     -50.673  12.979  23.425  0.00  0.00     0.214 A 
ATOM      5  C   UNL d   1     -49.490  13.569  22.894  0.00  0.00     0.018 A 
ATOM      6  O   UNL d   1     -51.046  13.715  23.403  0.00  0.00    -0.268 OA
ATOM      7  N   UNL d   1     -50.873  15.125  23.053  0.00  0.00    -0.123 NA
ATOM      8  N   UNL d   1     -50.261  15.553  22.753  0.00  0.00    -0.146 NA
ATOM      9  C   UNL d   1     -49.626  15.047  22.637  0.00  0.00     0.106 A 
ATOM     10  C   UNL d   1     -49.523  12.171  23.194  0.00  0.00     0.105 C 
ATOM     11  N   UNL d   1     -49.154  11.447  23.215  0.00  0.00    -0.191 NA
ATOM     12  N   UNL d   1     -51.064  12.341  23.692  0.00  0.00    -0.120 N 
ATOM     13  C   UNL d   1     -48.846  15.384  22.297  0.00  0.00     0.023 C 
ENDROOT
BRANCH   5  14
ATOM     14  C   UNL d   1     -48.724  13.497  22.643  0.00  0.00     0.001 C 
BRANCH  14  15
ATOM     15  C   UNL d   1     -47.949  13.292  23.118  0.00  0.00     0.000 C 
BRANCH  15  16
ATOM     16  C   UNL d   1     -47.169  13.332  22.847  0.00  0.00     0.000 A 
ATOM     17  C   UNL d   1     -46.951  12.965  22.125  0.00  0.00     0.000 A 
ATOM     18  C   UNL d   1     -46.181  13.010  21.869  0.00  0.00     0.000 A 
ATOM     19  C   UNL d   1     -45.608  13.419  22.320  0.00  0.00     0.000 A 
ATOM     20  C   UNL d   1     -45.822  13.780  23.031  0.00  0.00     0.000 A 
ATOM     21  C   UNL d   1     -46.607  13.731  23.287  0.00  0.00     0.000 A 
ENDBRANCH  15  16
ENDBRANCH  14  15
ENDBRANCH   5  14
TORSDOF 3
ENDMDL
