MODEL 1
REMARK VINA RESULT:      -7.5      0.000      0.000
REMARK  4 active torsions:
REMARK  status: ('A' for Active; 'I' for Inactive)
REMARK    1  A    between atoms: C_5  and  N_1 
REMARK    2  A    between atoms: C_7  and  C_3 
REMARK    3  A    between atoms: C_10  and  C_4 
REMARK    4  A    between atoms: N_11  and  C_5 
ROOT
ATOM      1  N   UNL d   1     -49.178  12.943  22.825  0.00  0.00    -0.203 N 
ATOM      2  N   UNL d   1     -48.423  12.599  22.814  0.00  0.00    -0.163 NA
ATOM      3  C   UNL d   1     -49.093  13.761  22.780  0.00  0.00     0.088 A 
ATOM      4  C   UNL d   1     -47.865  13.219  22.762  0.00  0.00     0.103 A 
ATOM      5  C   UNL d   1     -48.280  13.931  22.741  0.00  0.00     0.040 A 
ENDROOT
BRANCH   3   6
ATOM      6  C   UNL d   1     -49.682  14.345  22.772  0.00  0.00     0.028 A 
ATOM      7  C   UNL d   1     -49.705  14.907  23.363  0.00  0.00     0.059 A 
ATOM      8 CL   UNL d   1     -49.362  14.867  23.698  0.00  0.00    -0.082 Cl
ATOM      9  C   UNL d   1     -50.289  15.492  23.362  0.00  0.00     0.011 A 
ATOM     10  C   UNL d   1     -50.850  15.512  22.765  0.00  0.00     0.001 A 
ATOM     11  C   UNL d   1     -50.816  14.935  22.170  0.00  0.00     0.000 A 
ATOM     12  C   UNL d   1     -50.239  14.367  22.183  0.00  0.00     0.002 A 
ENDBRANCH   3   6
BRANCH   1  13
ATOM     13  C   UNL d   1     -49.904  12.512  22.873  0.00  0.00     0.222 C 
ATOM     14  S   UNL d   1     -50.287  12.292  22.170  0.00  0.00    -0.037 SA
BRANCH  13  15
ATOM     15  N   UNL d   1     -50.223  12.318  23.617  0.00  0.00    -0.214 NA
ATOM     16  C   UNL d   1     -50.693  11.625  23.698  0.00  0.00     0.122 C 
ENDBRANCH  13  15
ENDBRANCH   1  13
BRANCH   4  17
ATOM     17  C   UNL d   1     -47.058  13.121  22.737  0.00  0.00     0.019 A 
ATOM     18  C   UNL d   1     -46.612  13.583  22.221  0.00  0.00     0.002 A 
ATOM     19  C   UNL d   1     -45.792  13.493  22.186  0.00  0.00     0.000 A 
ATOM     20  C   UNL d   1     -45.415  12.941  22.667  0.00  0.00     0.000 A 
ATOM     21  C   UNL d   1     -45.854  12.480  23.181  0.00  0.00     0.000 A 
ATOM     22  C   UNL d   1     -46.673  12.570  23.215  0.00  0.00     0.002 A 
ENDBRANCH   4  17
TORSDOF 4
ENDMDL
MODEL 2
REMARK VINA RESULT:      -7.3      1.262      2.113
REMARK  4 active torsions:
REMARK  status: ('A' for Active; 'I' for Inactive)
REMARK    1  A    between atoms: C_5  and  N_1 
REMARK    2  A    between atoms: C_7  and  C_3 
REMARK    3  A    between atoms: C_10  and  C_4 
REMARK    4  A    between atoms: N_11  and  C_5 
ROOT
ATOM      1  N   UNL d   1     -48.663  14.086  22.810  0.00  0.00    -0.203 N 
ATOM      2  N   UNL d   1     -47.838  14.173  22.787  0.00  0.00    -0.163 NA
ATOM      3  C   UNL d   1     -48.843  13.284  22.753  0.00  0.00     0.088 A 
ATOM      4  C   UNL d   1     -47.506  13.409  22.715  0.00  0.00     0.103 A 
ATOM      5  C   UNL d   1     -48.127  12.866  22.694  0.00  0.00     0.040 A 
ENDROOT
BRANCH   3   6
ATOM      6  C   UNL d   1     -49.587  12.917  22.751  0.00  0.00     0.028 A 
ATOM      7  C   UNL d   1     -49.791  12.410  23.357  0.00  0.00     0.059 A 
ATOM      8 CL   UNL d   1     -49.456  12.349  23.696  0.00  0.00    -0.082 Cl
ATOM      9  C   UNL d   1     -50.531  12.040  23.361  0.00  0.00     0.011 A 
ATOM     10  C   UNL d   1     -51.064  12.181  22.756  0.00  0.00     0.001 A 
ATOM     11  C   UNL d   1     -50.844  12.698  22.146  0.00  0.00     0.000 A 
ATOM     12  C   UNL d   1     -50.117  13.054  22.153  0.00  0.00     0.002 A 
ENDBRANCH   3   6
BRANCH   1  13
ATOM     13  C   UNL d   1     -49.214  14.723  22.880  0.00  0.00     0.222 C 
ATOM     14  S   UNL d   1     -49.532  15.056  22.188  0.00  0.00    -0.037 SA
BRANCH  13  15
ATOM     15  N   UNL d   1     -49.429  15.006  23.632  0.00  0.00    -0.214 NA
ATOM     16  C   UNL d   1     -49.858  15.727  23.697  0.00  0.00     0.122 C 
ENDBRANCH  13  15
ENDBRANCH   1  13
BRANCH   4  17
ATOM     17  C   UNL d   1     -46.711  13.248  22.673  0.00  0.00     0.019 A 
ATOM     18  C   UNL d   1     -46.401  12.632  23.126  0.00  0.00     0.002 A 
ATOM     19  C   UNL d   1     -45.595  12.457  23.093  0.00  0.00     0.000 A 
ATOM     20  C   UNL d   1     -45.095  12.897  22.608  0.00  0.00     0.000 A 
ATOM     21  C   UNL d   1     -45.398  13.509  22.157  0.00  0.00     0.000 A 
ATOM     22  C   UNL d   1     -46.204  13.683  22.191  0.00  0.00     0.002 A 
ENDBRANCH   4  17
TORSDOF 4
ENDMDL
MODEL 3
REMARK VINA RESULT:      -6.5      1.157      3.694
REMARK  4 active torsions:
REMARK  status: ('A' for Active; 'I' for Inactive)
REMARK    1  A    between atoms: C_5  and  N_1 
REMARK    2  A    between atoms: C_7  and  C_3 
REMARK    3  A    between atoms: C_10  and  C_4 
REMARK    4  A    between atoms: N_11  and  C_5 
ROOT
ATOM      1  N   UNL d   1     -48.573  12.972  22.987  0.00  0.00    -0.203 N 
ATOM      2  N   UNL d   1     -49.311  13.344  23.061  0.00  0.00    -0.163 NA
ATOM      3  C   UNL d   1     -47.992  13.552  22.927  0.00  0.00     0.088 A 
ATOM      4  C   UNL d   1     -49.179  14.169  23.046  0.00  0.00     0.103 A 
ATOM      5  C   UNL d   1     -48.367  14.293  22.963  0.00  0.00     0.040 A 
ENDROOT
BRANCH   3   6
ATOM      6  C   UNL d   1     -47.172  13.461  22.844  0.00  0.00     0.028 A 
ATOM      7  C   UNL d   1     -46.795  13.758  22.184  0.00  0.00     0.059 A 
ATOM      8 CL   UNL d   1     -47.080  13.979  21.866  0.00  0.00    -0.082 Cl
ATOM      9  C   UNL d   1     -45.977  13.671  22.094  0.00  0.00     0.011 A 
ATOM     10  C   UNL d   1     -45.539  13.284  22.669  0.00  0.00     0.001 A 
ATOM     11  C   UNL d   1     -45.935  12.987  23.335  0.00  0.00     0.000 A 
ATOM     12  C   UNL d   1     -46.736  13.079  23.411  0.00  0.00     0.002 A 
ENDBRANCH   3   6
BRANCH   1  13
ATOM     13  C   UNL d   1     -48.453  12.135  22.976  0.00  0.00     0.222 C 
ATOM     14  S   UNL d   1     -48.348  11.736  23.697  0.00  0.00    -0.037 SA
BRANCH  13  15
ATOM     15  N   UNL d   1     -48.441  11.726  22.251  0.00  0.00    -0.214 NA
ATOM     16  C   UNL d   1     -48.762  10.949  22.209  0.00  0.00     0.122 C 
ENDBRANCH  13  15
ENDBRANCH   1  13
BRANCH   4  17
ATOM     17  C   UNL d   1     -49.758  14.735  23.104  0.00  0.00     0.019 A 
ATOM     18  C   UNL d   1     -50.414  14.694  22.605  0.00  0.00     0.002 A 
ATOM     19  C   UNL d   1     -51.010  15.263  22.653  0.00  0.00     0.000 A 
ATOM     20  C   UNL d   1     -50.953  15.876  23.200  0.00  0.00     0.000 A 
ATOM     21  C   UNL d   1     -50.305  15.922  23.697  0.00  0.00     0.000 A 
ATOM     22  C   UNL d   1     -49.710  15.353  23.649  0.00  0.00     0.002 A 
ENDBRANCH   4  17
TORSDOF 4
ENDMDL
MODEL 4
REMARK VINA RESULT:      -6.0      9.854     10.466
REMARK  4 active torsions:
REMARK  status: ('A' for Active; 'I' for Inactive)
REMARK    1  A    between atoms: C_5  and  N_1 
REMARK    2  A    between atoms: C_7  and  C_3 
REMARK    3  A    between atoms: C_10  and  C_4 
REMARK    4  A    between atoms: N_11  and  C_5 
ROOT
ATOM      1  N   UNL d   1     -38.976  14.250  18.609  0.00  0.00    -0.203 N 
ATOM      2  N   UNL d   1     -38.784  14.124  19.406  0.00  0.00    -0.163 NA
ATOM      3  C   UNL d   1     -39.561  14.828  18.569  0.00  0.00     0.088 A 
ATOM      4  C   UNL d   1     -39.263  14.634  19.864  0.00  0.00     0.103 A 
ATOM      5  C   UNL d   1     -39.739  15.066  19.346  0.00  0.00     0.040 A 
ENDROOT
BRANCH   3   6
ATOM      6  C   UNL d   1     -39.935  15.146  17.899  0.00  0.00     0.028 A 
ATOM      7  C   UNL d   1     -40.724  14.991  17.764  0.00  0.00     0.059 A 
ATOM      8 CL   UNL d   1     -40.939  14.714  18.092  0.00  0.00    -0.082 Cl
ATOM      9  C   UNL d   1     -41.103  15.305  17.098  0.00  0.00     0.011 A 
ATOM     10  C   UNL d   1     -40.687  15.773  16.570  0.00  0.00     0.001 A 
ATOM     11  C   UNL d   1     -39.884  15.921  16.720  0.00  0.00     0.000 A 
ATOM     12  C   UNL d   1     -39.525  15.609  17.375  0.00  0.00     0.002 A 
ENDBRANCH   3   6
BRANCH   1  13
ATOM     13  C   UNL d   1     -38.621  13.846  17.956  0.00  0.00     0.222 C 
ATOM     14  S   UNL d   1     -37.961  14.188  17.584  0.00  0.00    -0.037 SA
BRANCH  13  15
ATOM     15  N   UNL d   1     -38.934  13.119  17.698  0.00  0.00    -0.214 NA
ATOM     16  C   UNL d   1     -38.421  12.547  17.354  0.00  0.00     0.122 C 
ENDBRANCH  13  15
ENDBRANCH   1  13
BRANCH   4  17
ATOM     17  C   UNL d   1     -39.248  14.685  20.674  0.00  0.00     0.019 A 
ATOM     18  C   UNL d   1     -39.018  15.392  21.030  0.00  0.00     0.002 A 
ATOM     19  C   UNL d   1     -38.999  15.457  21.853  0.00  0.00     0.000 A 
ATOM     20  C   UNL d   1     -39.211  14.815  22.324  0.00  0.00     0.000 A 
ATOM     21  C   UNL d   1     -39.441  14.111  21.976  0.00  0.00     0.000 A 
ATOM     22  C   UNL d   1     -39.459  14.047  21.153  0.00  0.00     0.002 A 
ENDBRANCH   4  17
TORSDOF 4
ENDMDL
MODEL 5
REMARK VINA RESULT:      -5.8      8.628     10.339
REMARK  4 active torsions:
REMARK  status: ('A' for Active; 'I' for Inactive)
REMARK    1  A    between atoms: C_5  and  N_1 
REMARK    2  A    between atoms: C_7  and  C_3 
REMARK    3  A    between atoms: C_10  and  C_4 
REMARK    4  A    between atoms: N_11  and  C_5 
ROOT
ATOM      1  N   UNL d   1     -38.756  14.162  20.043  0.00  0.00    -0.203 N 
ATOM      2  N   UNL d   1     -38.349  13.850  19.391  0.00  0.00    -0.163 NA
ATOM      3  C   UNL d   1     -39.472  14.472  19.781  0.00  0.00     0.088 A 
ATOM      4  C   UNL d   1     -38.826  13.972  18.715  0.00  0.00     0.103 A 
ATOM      5  C   UNL d   1     -39.515  14.355  18.959  0.00  0.00     0.040 A 
ENDROOT
BRANCH   3   6
ATOM      6  C   UNL d   1     -40.071  14.843  20.219  0.00  0.00     0.028 A 
ATOM      7  C   UNL d   1     -40.803  14.490  20.286  0.00  0.00     0.059 A 
ATOM      8 CL   UNL d   1     -40.851  14.069  20.059  0.00  0.00    -0.082 Cl
ATOM      9  C   UNL d   1     -41.405  14.854  20.722  0.00  0.00     0.011 A 
ATOM     10  C   UNL d   1     -41.268  15.574  21.090  0.00  0.00     0.001 A 
ATOM     11  C   UNL d   1     -40.519  15.922  21.014  0.00  0.00     0.000 A 
ATOM     12  C   UNL d   1     -39.939  15.555  20.585  0.00  0.00     0.002 A 
ENDBRANCH   3   6
BRANCH   1  13
ATOM     13  C   UNL d   1     -38.471  14.155  20.839  0.00  0.00     0.222 C 
ATOM     14  S   UNL d   1     -38.020  14.799  21.109  0.00  0.00    -0.037 SA
BRANCH  13  15
ATOM     15  N   UNL d   1     -38.643  13.511  21.337  0.00  0.00    -0.214 NA
ATOM     16  C   UNL d   1     -38.098  13.297  21.941  0.00  0.00     0.122 C 
ENDBRANCH  13  15
ENDBRANCH   1  13
BRANCH   4  17
ATOM     17  C   UNL d   1     -38.631  13.747  17.959  0.00  0.00     0.019 A 
ATOM     18  C   UNL d   1     -38.550  14.324  17.375  0.00  0.00     0.002 A 
ATOM     19  C   UNL d   1     -38.352  14.108  16.603  0.00  0.00     0.000 A 
ATOM     20  C   UNL d   1     -38.233  13.316  16.412  0.00  0.00     0.000 A 
ATOM     21  C   UNL d   1     -38.312  12.740  16.987  0.00  0.00     0.000 A 
ATOM     22  C   UNL d   1     -38.511  12.956  17.759  0.00  0.00     0.002 A 
ENDBRANCH   4  17
TORSDOF 4
ENDMDL
MODEL 6
REMARK VINA RESULT:      -5.6      8.380     10.298
REMARK  4 active torsions:
REMARK  status: ('A' for Active; 'I' for Inactive)
REMARK    1  A    between atoms: C_5  and  N_1 
REMARK    2  A    between atoms: C_7  and  C_3 
REMARK    3  A    between atoms: C_10  and  C_4 
REMARK    4  A    between atoms: N_11  and  C_5 
ROOT
ATOM      1  N   UNL d   1     -40.058  14.537  19.995  0.00  0.00    -0.203 N 
ATOM      2  N   UNL d   1     -40.112  14.478  19.169  0.00  0.00    -0.163 NA
ATOM      3  C   UNL d   1     -39.303  14.304  20.225  0.00  0.00     0.088 A 
ATOM      4  C   UNL d   1     -39.374  14.204  18.887  0.00  0.00     0.103 A 
ATOM      5  C   UNL d   1     -38.879  14.098  19.539  0.00  0.00     0.040 A 
ENDROOT
BRANCH   3   6
ATOM      6  C   UNL d   1     -38.980  14.266  20.988  0.00  0.00     0.028 A 
ATOM      7  C   UNL d   1     -38.367  14.764  21.195  0.00  0.00     0.059 A 
ATOM      8 CL   UNL d   1     -38.220  15.064  20.849  0.00  0.00    -0.082 Cl
ATOM      9  C   UNL d   1     -38.040  14.731  21.954  0.00  0.00     0.011 A 
ATOM     10  C   UNL d   1     -38.330  14.198  22.504  0.00  0.00     0.001 A 
ATOM     11  C   UNL d   1     -38.953  13.698  22.281  0.00  0.00     0.000 A 
ATOM     12  C   UNL d   1     -39.265  13.739  21.535  0.00  0.00     0.002 A 
ENDBRANCH   3   6
BRANCH   1  13
ATOM     13  C   UNL d   1     -40.684  14.794  20.503  0.00  0.00     0.222 C 
ATOM     14  S   UNL d   1     -41.203  14.227  20.817  0.00  0.00    -0.037 SA
BRANCH  13  15
ATOM     15  N   UNL d   1     -40.770  15.602  20.679  0.00  0.00    -0.214 NA
ATOM     16  C   UNL d   1     -41.534  15.909  20.854  0.00  0.00     0.122 C 
ENDBRANCH  13  15
ENDBRANCH   1  13
BRANCH   4  17
ATOM     17  C   UNL d   1     -39.193  14.071  18.107  0.00  0.00     0.019 A 
ATOM     18  C   UNL d   1     -38.953  13.318  17.871  0.00  0.00     0.002 A 
ATOM     19  C   UNL d   1     -38.766  13.169  17.081  0.00  0.00     0.000 A 
ATOM     20  C   UNL d   1     -38.817  13.772  16.523  0.00  0.00     0.000 A 
ATOM     21  C   UNL d   1     -39.053  14.521  16.751  0.00  0.00     0.000 A 
ATOM     22  C   UNL d   1     -39.241  14.670  17.541  0.00  0.00     0.002 A 
ENDBRANCH   4  17
TORSDOF 4
ENDMDL
MODEL 7
REMARK VINA RESULT:      -5.1      2.205      3.156
REMARK  4 active torsions:
REMARK  status: ('A' for Active; 'I' for Inactive)
REMARK    1  A    between atoms: C_5  and  N_1 
REMARK    2  A    between atoms: C_7  and  C_3 
REMARK    3  A    between atoms: C_10  and  C_4 
REMARK    4  A    between atoms: N_11  and  C_5 
ROOT
ATOM      1  N   UNL d   1     -46.919  12.817  22.801  0.00  0.00    -0.203 N 
ATOM      2  N   UNL d   1     -46.118  12.600  22.832  0.00  0.00    -0.163 NA
ATOM      3  C   UNL d   1     -47.375  12.164  23.008  0.00  0.00     0.088 A 
ATOM      4  C   UNL d   1     -46.084  11.798  23.063  0.00  0.00     0.103 A 
ATOM      5  C   UNL d   1     -46.858  11.533  23.170  0.00  0.00     0.040 A 
ENDROOT
BRANCH   3   6
ATOM      6  C   UNL d   1     -48.201  12.101  23.059  0.00  0.00     0.028 A 
ATOM      7  C   UNL d   1     -48.607  11.649  22.515  0.00  0.00     0.059 A 
ATOM      8 CL   UNL d   1     -48.336  11.435  22.180  0.00  0.00    -0.082 Cl
ATOM      9  C   UNL d   1     -49.431  11.582  22.559  0.00  0.00     0.011 A 
ATOM     10  C   UNL d   1     -49.844  11.969  23.152  0.00  0.00     0.001 A 
ATOM     11  C   UNL d   1     -49.418  12.425  23.698  0.00  0.00     0.000 A 
ATOM     12  C   UNL d   1     -48.612  12.483  23.644  0.00  0.00     0.002 A 
ENDBRANCH   3   6
BRANCH   1  13
ATOM     13  C   UNL d   1     -47.203  13.585  22.591  0.00  0.00     0.222 C 
ATOM     14  S   UNL d   1     -47.422  13.729  21.802  0.00  0.00    -0.037 SA
BRANCH  13  15
ATOM     15  N   UNL d   1     -47.260  14.180  23.170  0.00  0.00    -0.214 NA
ATOM     16  C   UNL d   1     -47.270  14.988  22.934  0.00  0.00     0.122 C 
ENDBRANCH  13  15
ENDBRANCH   1  13
BRANCH   4  17
ATOM     17  C   UNL d   1     -45.401  11.368  23.160  0.00  0.00     0.019 A 
ATOM     18  C   UNL d   1     -45.424  10.666  23.592  0.00  0.00     0.002 A 
ATOM     19  C   UNL d   1     -44.737  10.221  23.698  0.00  0.00     0.000 A 
ATOM     20  C   UNL d   1     -44.025  10.475  23.373  0.00  0.00     0.000 A 
ATOM     21  C   UNL d   1     -43.997  11.170  22.943  0.00  0.00     0.000 A 
ATOM     22  C   UNL d   1     -44.684  11.616  22.837  0.00  0.00     0.002 A 
ENDBRANCH   4  17
TORSDOF 4
ENDMDL
