MODEL 1
REMARK VINA RESULT:      12.6      0.000      0.000
REMARK  2 active torsions:
REMARK  status: ('A' for Active; 'I' for Inactive)
REMARK    1  A    between atoms: O_3  and  C_1 
REMARK       I    between atoms: N_6  and  C_1 
REMARK    2  A    between atoms: C_5  and  O_3 
ROOT
ATOM      1  C   UNL d   1      46.434 -18.403  43.391  0.00  0.00     0.105 A 
ATOM      2  C   UNL d   1      46.537 -19.210  43.513  0.00  0.00     0.030 A 
ATOM      3  C   UNL d   1      46.333 -17.889  44.045  0.00  0.00     0.122 A 
ATOM      4  N   UNL d   1      46.431 -18.094  42.620  0.00  0.00    -0.242 NA
ATOM      5  C   UNL d   1      46.540 -19.516  44.282  0.00  0.00     0.059 A 
ATOM      6  C   UNL d   1      46.336 -18.193  44.807  0.00  0.00     0.027 A 
ATOM      7  C   UNL d   1      46.439 -19.002  44.936  0.00  0.00     0.013 A 
ATOM      8 CL   UNL d   1      46.643 -20.330  44.410  0.00  0.00    -0.082 Cl
ATOM      9  C   UNL d   1      46.636 -19.716  42.869  0.00  0.00     0.004 A 
ATOM     10  C   UNL d   1      46.530 -18.600  41.976  0.00  0.00     0.099 A 
ATOM     11  C   UNL d   1      46.633 -19.415  42.103  0.00  0.00     0.021 A 
ENDROOT
BRANCH   3  12
ATOM     12  O   UNL d   1      46.229 -17.070  43.924  0.00  0.00    -0.257 OA
BRANCH  12  13
ATOM     13  C   UNL d   1      45.721 -16.629  44.418  0.00  0.00     0.378 C 
ATOM     14  N   UNL d   1      45.709 -15.812  44.384  0.00  0.00    -0.249 N 
ATOM     15  C   UNL d   1      45.205 -15.381  44.875  0.00  0.00     0.104 C 
ATOM     16  C   UNL d   1      46.203 -15.414  43.855  0.00  0.00     0.104 C 
ATOM     17  O   UNL d   1      45.220 -17.032  44.954  0.00  0.00    -0.237 OA
ENDBRANCH  12  13
ENDBRANCH   3  12
TORSDOF 2
ENDMDL
MODEL 2
REMARK VINA RESULT:      15.1      2.908      5.042
REMARK  2 active torsions:
REMARK  status: ('A' for Active; 'I' for Inactive)
REMARK    1  A    between atoms: O_3  and  C_1 
REMARK       I    between atoms: N_6  and  C_1 
REMARK    2  A    between atoms: C_5  and  O_3 
ROOT
ATOM      1  C   UNL d   1      45.264 -13.627  43.932  0.00  0.00     0.105 A 
ATOM      2  C   UNL d   1      45.605 -12.891  44.067  0.00  0.00     0.030 A 
ATOM      3  C   UNL d   1      45.577 -14.310  44.304  0.00  0.00     0.122 A 
ATOM      4  N   UNL d   1      44.609 -13.698  43.426  0.00  0.00    -0.242 NA
ATOM      5  C   UNL d   1      46.257 -12.823  44.570  0.00  0.00     0.059 A 
ATOM      6  C   UNL d   1      46.224 -14.241  44.804  0.00  0.00     0.027 A 
ATOM      7  C   UNL d   1      46.570 -13.505  44.943  0.00  0.00     0.013 A 
ATOM      8 CL   UNL d   1      46.604 -12.081  44.710  0.00  0.00    -0.082 Cl
ATOM      9  C   UNL d   1      45.296 -12.219  43.700  0.00  0.00     0.004 A 
ATOM     10  C   UNL d   1      44.300 -13.026  43.060  0.00  0.00     0.099 A 
ATOM     11  C   UNL d   1      44.647 -12.284  43.198  0.00  0.00     0.021 A 
ENDROOT
BRANCH   3  12
ATOM     12  O   UNL d   1      45.233 -15.057  44.168  0.00  0.00    -0.257 OA
BRANCH  12  13
ATOM     13  C   UNL d   1      45.704 -15.747  44.163  0.00  0.00     0.378 C 
ATOM     14  N   UNL d   1      45.459 -16.424  44.550  0.00  0.00    -0.249 N 
ATOM     15  C   UNL d   1      45.929 -17.102  44.542  0.00  0.00     0.104 C 
ATOM     16  C   UNL d   1      44.738 -16.431  44.952  0.00  0.00     0.104 C 
ATOM     17  O   UNL d   1      46.435 -15.740  43.755  0.00  0.00    -0.237 OA
ENDBRANCH  12  13
ENDBRANCH   3  12
TORSDOF 2
ENDMDL
