MODEL 1
REMARK VINA RESULT:      -8.9      0.000      0.000
REMARK  4 active torsions:
REMARK  status: ('A' for Active; 'I' for Inactive)
REMARK    1  A    between atoms: N_14  and  S_1 
REMARK    2  A    between atoms: C_5  and  C_17 
REMARK    3  A    between atoms: C_18  and  N_14 
REMARK    4  A    between atoms: C_17  and  C_18 
ROOT
ATOM      1  N   UNL d   1      52.810  32.673  52.980  0.00  0.00    -0.208 NA
ATOM      2  C   UNL d   1      52.841  31.847  52.903  0.00  0.00     0.279 A 
ATOM      3  C   UNL d   1      53.242  33.054  53.581  0.00  0.00     0.085 A 
ATOM      4  C   UNL d   1      53.301  31.402  53.424  0.00  0.00     0.059 A 
ATOM      5  C   UNL d   1      53.734  31.778  54.026  0.00  0.00     0.006 A 
ATOM      6  C   UNL d   1      53.700  32.602  54.098  0.00  0.00     0.018 A 
ATOM      7  C   UNL d   1      53.210  33.876  53.656  0.00  0.00     0.019 A 
ATOM      8  C   UNL d   1      54.131  32.983  54.699  0.00  0.00     0.002 A 
ATOM      9  C   UNL d   1      53.639  34.250  54.253  0.00  0.00     0.002 A 
ATOM     10  C   UNL d   1      54.099  33.804  54.774  0.00  0.00     0.000 A 
ATOM     11  O   UNL d   1      52.411  31.473  52.306  0.00  0.00    -0.265 OA
ATOM     12  C   UNL d   1      54.529  34.179  55.371  0.00  0.00     0.000 C 
ATOM     13  C   UNL d   1      53.607  35.071  54.327  0.00  0.00     0.000 C 
ENDROOT
BRANCH   4  14
ATOM     14  C   UNL d   1      53.333  30.580  53.350  0.00  0.00     0.026 C 
BRANCH  14  15
ATOM     15  C   UNL d   1      53.322  30.107  54.025  0.00  0.00     0.112 C 
BRANCH  15  16
ATOM     16  N   UNL d   1      53.145  29.304  53.960  0.00  0.00    -0.160 NA
BRANCH  16  17
ATOM     17  S   UNL d   1      53.274  28.794  54.606  0.00  0.00     0.266 S 
ATOM     18  O   UNL d   1      52.508  29.093  54.710  0.00  0.00    -0.203 OA
ATOM     19  O   UNL d   1      53.197  28.353  55.296  0.00  0.00    -0.203 OA
ATOM     20  C   UNL d   1      54.041  28.510  54.478  0.00  0.00     0.165 C 
ENDBRANCH  16  17
ENDBRANCH  15  16
ENDBRANCH  14  15
ENDBRANCH   4  14
TORSDOF 4
ENDMDL
MODEL 2
REMARK VINA RESULT:      -8.5      2.354      4.215
REMARK  4 active torsions:
REMARK  status: ('A' for Active; 'I' for Inactive)
REMARK    1  A    between atoms: N_14  and  S_1 
REMARK    2  A    between atoms: C_5  and  C_17 
REMARK    3  A    between atoms: C_18  and  N_14 
REMARK    4  A    between atoms: C_17  and  C_18 
ROOT
ATOM      1  N   UNL d   1      52.536  31.597  52.574  0.00  0.00    -0.208 NA
ATOM      2  C   UNL d   1      52.801  32.373  52.698  0.00  0.00     0.279 A 
ATOM      3  C   UNL d   1      52.806  30.979  53.062  0.00  0.00     0.085 A 
ATOM      4  C   UNL d   1      53.334  32.534  53.308  0.00  0.00     0.059 A 
ATOM      5  C   UNL d   1      53.607  31.920  53.798  0.00  0.00     0.006 A 
ATOM      6  C   UNL d   1      53.339  31.147  53.669  0.00  0.00     0.018 A 
ATOM      7  C   UNL d   1      52.541  30.207  52.936  0.00  0.00     0.019 A 
ATOM      8  C   UNL d   1      53.609  30.529  54.157  0.00  0.00     0.002 A 
ATOM      9  C   UNL d   1      52.810  29.597  53.422  0.00  0.00     0.002 A 
ATOM     10  C   UNL d   1      53.344  29.758  54.032  0.00  0.00     0.000 A 
ATOM     11  O   UNL d   1      52.531  32.983  52.212  0.00  0.00    -0.265 OA
ATOM     12  C   UNL d   1      53.614  29.148  54.517  0.00  0.00     0.000 C 
ATOM     13  C   UNL d   1      52.545  28.826  53.297  0.00  0.00     0.000 C 
ENDROOT
BRANCH   4  14
ATOM     14  C   UNL d   1      53.599  33.306  53.433  0.00  0.00     0.026 C 
BRANCH  14  15
ATOM     15  C   UNL d   1      53.398  33.700  54.129  0.00  0.00     0.112 C 
BRANCH  15  16
ATOM     16  N   UNL d   1      53.749  34.425  54.305  0.00  0.00    -0.160 NA
BRANCH  16  17
ATOM     17  S   UNL d   1      53.410  34.925  54.879  0.00  0.00     0.266 S 
ATOM     18  O   UNL d   1      53.967  34.465  55.287  0.00  0.00    -0.203 OA
ATOM     19  O   UNL d   1      53.215  35.311  55.579  0.00  0.00    -0.203 OA
ATOM     20  C   UNL d   1      52.862  35.371  54.449  0.00  0.00     0.165 C 
ENDBRANCH  16  17
ENDBRANCH  15  16
ENDBRANCH  14  15
ENDBRANCH   4  14
TORSDOF 4
ENDMDL
MODEL 3
REMARK VINA RESULT:      -8.3      1.402      1.956
REMARK  4 active torsions:
REMARK  status: ('A' for Active; 'I' for Inactive)
REMARK    1  A    between atoms: N_14  and  S_1 
REMARK    2  A    between atoms: C_5  and  C_17 
REMARK    3  A    between atoms: C_18  and  N_14 
REMARK    4  A    between atoms: C_17  and  C_18 
ROOT
ATOM      1  N   UNL d   1      53.697  33.377  53.542  0.00  0.00    -0.208 NA
ATOM      2  C   UNL d   1      53.975  32.595  53.524  0.00  0.00     0.279 A 
ATOM      3  C   UNL d   1      52.901  33.544  53.367  0.00  0.00     0.085 A 
ATOM      4  C   UNL d   1      53.459  31.979  53.332  0.00  0.00     0.059 A 
ATOM      5  C   UNL d   1      52.662  32.141  53.156  0.00  0.00     0.006 A 
ATOM      6  C   UNL d   1      52.391  32.922  53.175  0.00  0.00     0.018 A 
ATOM      7  C   UNL d   1      52.628  34.322  53.385  0.00  0.00     0.019 A 
ATOM      8  C   UNL d   1      51.595  33.089  53.000  0.00  0.00     0.002 A 
ATOM      9  C   UNL d   1      51.837  34.483  53.211  0.00  0.00     0.002 A 
ATOM     10  C   UNL d   1      51.322  33.868  53.018  0.00  0.00     0.000 A 
ATOM     11  O   UNL d   1      54.765  32.434  53.699  0.00  0.00    -0.265 OA
ATOM     12  C   UNL d   1      50.531  34.029  52.844  0.00  0.00     0.000 C 
ATOM     13  C   UNL d   1      51.564  35.262  53.229  0.00  0.00     0.000 C 
ENDROOT
BRANCH   4  14
ATOM     14  C   UNL d   1      53.732  31.201  53.313  0.00  0.00     0.026 C 
BRANCH  14  15
ATOM     15  C   UNL d   1      53.282  30.600  53.656  0.00  0.00     0.112 C 
BRANCH  15  16
ATOM     16  N   UNL d   1      53.540  29.818  53.609  0.00  0.00    -0.160 NA
BRANCH  16  17
ATOM     17  S   UNL d   1      53.177  29.230  54.075  0.00  0.00     0.266 S 
ATOM     18  O   UNL d   1      52.751  29.242  53.363  0.00  0.00    -0.203 OA
ATOM     19  O   UNL d   1      52.688  28.631  54.358  0.00  0.00    -0.203 OA
ATOM     20  C   UNL d   1      53.617  29.239  54.776  0.00  0.00     0.165 C 
ENDBRANCH  16  17
ENDBRANCH  15  16
ENDBRANCH  14  15
ENDBRANCH   4  14
TORSDOF 4
ENDMDL
MODEL 4
REMARK VINA RESULT:      -8.3      2.586      4.473
REMARK  4 active torsions:
REMARK  status: ('A' for Active; 'I' for Inactive)
REMARK    1  A    between atoms: N_14  and  S_1 
REMARK    2  A    between atoms: C_5  and  C_17 
REMARK    3  A    between atoms: C_18  and  N_14 
REMARK    4  A    between atoms: C_17  and  C_18 
ROOT
ATOM      1  N   UNL d   1      53.747  32.107  54.115  0.00  0.00    -0.208 NA
ATOM      2  C   UNL d   1      53.452  32.822  53.814  0.00  0.00     0.279 A 
ATOM      3  C   UNL d   1      53.457  31.381  53.830  0.00  0.00     0.085 A 
ATOM      4  C   UNL d   1      52.869  32.813  53.228  0.00  0.00     0.059 A 
ATOM      5  C   UNL d   1      52.577  32.089  52.940  0.00  0.00     0.006 A 
ATOM      6  C   UNL d   1      52.875  31.380  53.245  0.00  0.00     0.018 A 
ATOM      7  C   UNL d   1      53.752  30.671  54.132  0.00  0.00     0.019 A 
ATOM      8  C   UNL d   1      52.585  30.654  52.959  0.00  0.00     0.002 A 
ATOM      9  C   UNL d   1      53.462  29.953  53.846  0.00  0.00     0.002 A 
ATOM     10  C   UNL d   1      52.880  29.944  53.261  0.00  0.00     0.000 A 
ATOM     11  O   UNL d   1      53.741  33.540  54.099  0.00  0.00    -0.265 OA
ATOM     12  C   UNL d   1      52.590  29.226  52.975  0.00  0.00     0.000 C 
ATOM     13  C   UNL d   1      53.757  29.243  54.148  0.00  0.00     0.000 C 
ENDROOT
BRANCH   4  14
ATOM     14  C   UNL d   1      52.575  33.522  52.927  0.00  0.00     0.026 C 
BRANCH  14  15
ATOM     15  C   UNL d   1      51.768  33.597  52.769  0.00  0.00     0.112 C 
BRANCH  15  16
ATOM     16  N   UNL d   1      51.473  34.309  52.475  0.00  0.00    -0.160 NA
BRANCH  16  17
ATOM     17  S   UNL d   1      50.657  34.393  52.328  0.00  0.00     0.266 S 
ATOM     18  O   UNL d   1      51.006  34.285  51.583  0.00  0.00    -0.203 OA
ATOM     19  O   UNL d   1      49.917  34.450  51.973  0.00  0.00    -0.203 OA
ATOM     20  C   UNL d   1      50.334  34.499  53.082  0.00  0.00     0.165 C 
ENDBRANCH  16  17
ENDBRANCH  15  16
ENDBRANCH  14  15
ENDBRANCH   4  14
TORSDOF 4
ENDMDL
MODEL 5
REMARK VINA RESULT:      -7.5      2.759      3.664
REMARK  4 active torsions:
REMARK  status: ('A' for Active; 'I' for Inactive)
REMARK    1  A    between atoms: N_14  and  S_1 
REMARK    2  A    between atoms: C_5  and  C_17 
REMARK    3  A    between atoms: C_18  and  N_14 
REMARK    4  A    between atoms: C_17  and  C_18 
ROOT
ATOM      1  N   UNL d   1      51.998  32.784  52.282  0.00  0.00    -0.208 NA
ATOM      2  C   UNL d   1      52.617  32.541  52.778  0.00  0.00     0.279 A 
ATOM      3  C   UNL d   1      51.459  33.365  52.538  0.00  0.00     0.085 A 
ATOM      4  C   UNL d   1      52.699  32.876  53.529  0.00  0.00     0.059 A 
ATOM      5  C   UNL d   1      52.163  33.456  53.789  0.00  0.00     0.006 A 
ATOM      6  C   UNL d   1      51.548  33.695  53.290  0.00  0.00     0.018 A 
ATOM      7  C   UNL d   1      50.844  33.605  52.042  0.00  0.00     0.019 A 
ATOM      8  C   UNL d   1      51.009  34.276  53.545  0.00  0.00     0.002 A 
ATOM      9  C   UNL d   1      50.312  34.181  52.299  0.00  0.00     0.002 A 
ATOM     10  C   UNL d   1      50.394  34.516  53.050  0.00  0.00     0.000 A 
ATOM     11  O   UNL d   1      53.149  31.965  52.521  0.00  0.00    -0.265 OA
ATOM     12  C   UNL d   1      49.862  35.092  53.307  0.00  0.00     0.000 C 
ATOM     13  C   UNL d   1      49.697  34.421  51.804  0.00  0.00     0.000 C 
ENDROOT
BRANCH   4  14
ATOM     14  C   UNL d   1      53.314  32.636  54.024  0.00  0.00     0.026 C 
BRANCH  14  15
ATOM     15  C   UNL d   1      53.776  33.201  54.408  0.00  0.00     0.112 C 
BRANCH  15  16
ATOM     16  N   UNL d   1      54.431  32.964  54.848  0.00  0.00    -0.160 NA
BRANCH  16  17
ATOM     17  S   UNL d   1      54.928  33.534  55.199  0.00  0.00     0.266 S 
ATOM     18  O   UNL d   1      54.490  33.209  55.823  0.00  0.00    -0.203 OA
ATOM     19  O   UNL d   1      55.317  34.030  55.728  0.00  0.00    -0.203 OA
ATOM     20  C   UNL d   1      55.351  33.843  54.558  0.00  0.00     0.165 C 
ENDBRANCH  16  17
ENDBRANCH  15  16
ENDBRANCH  14  15
ENDBRANCH   4  14
TORSDOF 4
ENDMDL
MODEL 6
REMARK VINA RESULT:      -7.3      2.678      4.131
REMARK  4 active torsions:
REMARK  status: ('A' for Active; 'I' for Inactive)
REMARK    1  A    between atoms: N_14  and  S_1 
REMARK    2  A    between atoms: C_5  and  C_17 
REMARK    3  A    between atoms: C_18  and  N_14 
REMARK    4  A    between atoms: C_17  and  C_18 
ROOT
ATOM      1  N   UNL d   1      52.989  32.486  53.401  0.00  0.00    -0.208 NA
ATOM      2  C   UNL d   1      52.374  32.675  52.876  0.00  0.00     0.279 A 
ATOM      3  C   UNL d   1      53.296  33.066  53.913  0.00  0.00     0.085 A 
ATOM      4  C   UNL d   1      52.066  33.441  52.861  0.00  0.00     0.059 A 
ATOM      5  C   UNL d   1      52.370  34.024  53.371  0.00  0.00     0.006 A 
ATOM      6  C   UNL d   1      52.983  33.830  53.892  0.00  0.00     0.018 A 
ATOM      7  C   UNL d   1      53.907  32.875  54.434  0.00  0.00     0.019 A 
ATOM      8  C   UNL d   1      53.290  34.410  54.404  0.00  0.00     0.002 A 
ATOM      9  C   UNL d   1      54.209  33.453  54.940  0.00  0.00     0.002 A 
ATOM     10  C   UNL d   1      53.901  34.219  54.925  0.00  0.00     0.000 A 
ATOM     11  O   UNL d   1      52.072  32.097  52.370  0.00  0.00    -0.265 OA
ATOM     12  C   UNL d   1      54.203  34.797  55.431  0.00  0.00     0.000 C 
ATOM     13  C   UNL d   1      54.820  33.263  55.461  0.00  0.00     0.000 C 
ENDROOT
BRANCH   4  14
ATOM     14  C   UNL d   1      51.455  33.632  52.340  0.00  0.00     0.026 C 
BRANCH  14  15
ATOM     15  C   UNL d   1      50.813  34.077  52.606  0.00  0.00     0.112 C 
BRANCH  15  16
ATOM     16  N   UNL d   1      50.324  34.455  52.061  0.00  0.00    -0.160 NA
BRANCH  16  17
ATOM     17  S   UNL d   1      49.550  34.676  52.278  0.00  0.00     0.266 S 
ATOM     18  O   UNL d   1      49.487  34.379  51.506  0.00  0.00    -0.203 OA
ATOM     19  O   UNL d   1      48.740  34.821  52.289  0.00  0.00    -0.203 OA
ATOM     20  C   UNL d   1      49.640  34.967  53.048  0.00  0.00     0.165 C 
ENDBRANCH  16  17
ENDBRANCH  15  16
ENDBRANCH  14  15
ENDBRANCH   4  14
TORSDOF 4
ENDMDL
