MODEL 1
REMARK VINA RESULT:      -3.5      0.000      0.000
REMARK  5 active torsions:
REMARK  status: ('A' for Active; 'I' for Inactive)
REMARK    1  A    between atoms: C_5  and  S_1 
REMARK    2  A    between atoms: C_12  and  S_1 
REMARK    3  A    between atoms: C_2  and  N_6 
REMARK    4  A    between atoms: C_13  and  C_4 
REMARK    5  A    between atoms: C_7  and  C_5 
REMARK       I    between atoms: N_6  and  C_7 
ROOT
ATOM      1  N   UNL d   1      32.440  17.525 -23.653  0.00  0.00    -0.182 NA
ATOM      2  C   UNL d   1      31.779  17.361 -24.116  0.00  0.00     0.293 C 
ATOM      3  O   UNL d   1      31.365  17.958 -24.495  0.00  0.00    -0.264 OA
ENDROOT
BRANCH   1   4
ATOM      4  C   UNL d   1      32.692  18.303 -23.566  0.00  0.00     0.197 A 
ATOM      5  N   UNL d   1      32.613  18.765 -22.876  0.00  0.00    -0.221 NA
ATOM      6  C   UNL d   1      32.942  19.517 -23.029  0.00  0.00     0.090 A 
ATOM      7  C   UNL d   1      33.224  19.510 -23.823  0.00  0.00     0.058 A 
ATOM      8  S   UNL d   1      33.066  18.759 -24.143  0.00  0.00    -0.046 SA
BRANCH   6   9
ATOM      9  C   UNL d   1      32.982  20.150 -22.501  0.00  0.00     0.018 A 
ATOM     10  C   UNL d   1      32.809  20.030 -21.714  0.00  0.00     0.004 A 
ATOM     11  C   UNL d   1      32.847  20.650 -21.183  0.00  0.00     0.030 A 
ATOM     12  C   UNL d   1      33.061  21.403 -21.446  0.00  0.00     0.140 A 
ATOM     13  C   UNL d   1      33.237  21.529 -22.244  0.00  0.00     0.030 A 
ATOM     14  F   UNL d   1      33.101  22.036 -20.913  0.00  0.00    -0.204 F 
ATOM     15  C   UNL d   1      33.196  20.896 -22.773  0.00  0.00     0.004 A 
ENDBRANCH   6   9
ENDBRANCH   1   4
BRANCH   2  16
ATOM     16  C   UNL d   1      31.525  16.576 -24.204  0.00  0.00     0.161 C 
BRANCH  16  17
ATOM     17  S   UNL d   1      30.752  16.364 -23.992  0.00  0.00     0.215 S 
ATOM     18  O   UNL d   1      31.024  16.165 -23.223  0.00  0.00    -0.217 OA
ATOM     19  O   UNL d   1      30.489  16.562 -24.752  0.00  0.00    -0.217 OA
BRANCH  17  20
ATOM     20  C   UNL d   1      29.980  16.152 -23.779  0.00  0.00     0.088 A 
ATOM     21  C   UNL d   1      29.850  15.677 -23.126  0.00  0.00     0.011 A 
ATOM     22  C   UNL d   1      29.078  15.465 -22.914  0.00  0.00     0.001 A 
ATOM     23  C   UNL d   1      28.446  15.735 -23.363  0.00  0.00     0.000 A 
ATOM     24  C   UNL d   1      28.576  16.209 -24.017  0.00  0.00     0.001 A 
ATOM     25  C   UNL d   1      29.340  16.422 -24.230  0.00  0.00     0.011 A 
ENDBRANCH  17  20
ENDBRANCH  16  17
ENDBRANCH   2  16
TORSDOF 5
ENDMDL
MODEL 2
REMARK VINA RESULT:      -3.2      0.780      1.067
REMARK  5 active torsions:
REMARK  status: ('A' for Active; 'I' for Inactive)
REMARK    1  A    between atoms: C_5  and  S_1 
REMARK    2  A    between atoms: C_12  and  S_1 
REMARK    3  A    between atoms: C_2  and  N_6 
REMARK    4  A    between atoms: C_13  and  C_4 
REMARK    5  A    between atoms: C_7  and  C_5 
REMARK       I    between atoms: N_6  and  C_7 
ROOT
ATOM      1  N   UNL d   1      32.927  17.907 -23.065  0.00  0.00    -0.182 NA
ATOM      2  C   UNL d   1      32.434  17.643 -23.671  0.00  0.00     0.293 C 
ATOM      3  O   UNL d   1      32.029  18.170 -24.151  0.00  0.00    -0.264 OA
ENDROOT
BRANCH   1   4
ATOM      4  C   UNL d   1      33.016  18.715 -22.937  0.00  0.00     0.197 A 
ATOM      5  N   UNL d   1      32.929  19.103 -22.203  0.00  0.00    -0.221 NA
ATOM      6  C   UNL d   1      33.067  19.918 -22.324  0.00  0.00     0.090 A 
ATOM      7  C   UNL d   1      33.240  20.024 -23.142  0.00  0.00     0.058 A 
ATOM      8  S   UNL d   1      33.205  19.279 -23.509  0.00  0.00    -0.046 SA
BRANCH   6   9
ATOM      9  C   UNL d   1      33.039  20.509 -21.748  0.00  0.00     0.018 A 
ATOM     10  C   UNL d   1      32.849  21.271 -21.963  0.00  0.00     0.004 A 
ATOM     11  C   UNL d   1      32.819  21.863 -21.400  0.00  0.00     0.030 A 
ATOM     12  C   UNL d   1      32.983  21.687 -20.610  0.00  0.00     0.140 A 
ATOM     13  C   UNL d   1      33.176  20.914 -20.389  0.00  0.00     0.030 A 
ATOM     14  F   UNL d   1      32.954  22.282 -20.035  0.00  0.00    -0.204 F 
ATOM     15  C   UNL d   1      33.203  20.323 -20.965  0.00  0.00     0.004 A 
ENDBRANCH   6   9
ENDBRANCH   1   4
BRANCH   2  16
ATOM     16  C   UNL d   1      32.344  16.829 -23.800  0.00  0.00     0.161 C 
BRANCH  16  17
ATOM     17  S   UNL d   1      31.586  16.499 -23.854  0.00  0.00     0.215 S 
ATOM     18  O   UNL d   1      31.654  16.227 -23.063  0.00  0.00    -0.217 OA
ATOM     19  O   UNL d   1      31.525  16.769 -24.635  0.00  0.00    -0.217 OA
BRANCH  17  20
ATOM     20  C   UNL d   1      30.829  16.168 -23.909  0.00  0.00     0.088 A 
ATOM     21  C   UNL d   1      30.383  16.051 -23.233  0.00  0.00     0.011 A 
ATOM     22  C   UNL d   1      29.626  15.720 -23.287  0.00  0.00     0.001 A 
ATOM     23  C   UNL d   1      29.326  15.513 -24.022  0.00  0.00     0.000 A 
ATOM     24  C   UNL d   1      29.772  15.631 -24.698  0.00  0.00     0.001 A 
ATOM     25  C   UNL d   1      30.523  15.958 -24.649  0.00  0.00     0.011 A 
ENDBRANCH  17  20
ENDBRANCH  16  17
ENDBRANCH   2  16
TORSDOF 5
ENDMDL
MODEL 3
REMARK VINA RESULT:      -3.2      2.273      5.302
REMARK  5 active torsions:
REMARK  status: ('A' for Active; 'I' for Inactive)
REMARK    1  A    between atoms: C_5  and  S_1 
REMARK    2  A    between atoms: C_12  and  S_1 
REMARK    3  A    between atoms: C_2  and  N_6 
REMARK    4  A    between atoms: C_13  and  C_4 
REMARK    5  A    between atoms: C_7  and  C_5 
REMARK       I    between atoms: N_6  and  C_7 
ROOT
ATOM      1  N   UNL d   1      32.614  18.065 -22.941  0.00  0.00    -0.182 NA
ATOM      2  C   UNL d   1      32.784  18.870 -22.993  0.00  0.00     0.293 C 
ATOM      3  O   UNL d   1      32.509  19.323 -23.619  0.00  0.00    -0.264 OA
ENDROOT
BRANCH   1   4
ATOM      4  C   UNL d   1      32.161  17.707 -23.526  0.00  0.00     0.197 A 
ATOM      5  N   UNL d   1      31.355  17.500 -23.458  0.00  0.00    -0.221 NA
ATOM      6  C   UNL d   1      31.115  17.152 -24.178  0.00  0.00     0.090 A 
ATOM      7  C   UNL d   1      31.785  17.148 -24.689  0.00  0.00     0.058 A 
ATOM      8  S   UNL d   1      32.421  17.491 -24.279  0.00  0.00    -0.046 SA
BRANCH   6   9
ATOM      9  C   UNL d   1      30.362  16.865 -24.356  0.00  0.00     0.018 A 
ATOM     10  C   UNL d   1      29.734  17.382 -24.402  0.00  0.00     0.004 A 
ATOM     11  C   UNL d   1      28.985  17.107 -24.577  0.00  0.00     0.030 A 
ATOM     12  C   UNL d   1      28.863  16.301 -24.708  0.00  0.00     0.140 A 
ATOM     13  C   UNL d   1      29.498  15.773 -24.662  0.00  0.00     0.030 A 
ATOM     14  F   UNL d   1      28.106  16.016 -24.886  0.00  0.00    -0.204 F 
ATOM     15  C   UNL d   1      30.252  16.061 -24.484  0.00  0.00     0.004 A 
ENDBRANCH   6   9
ENDBRANCH   1   4
BRANCH   2  16
ATOM     16  C   UNL d   1      33.241  19.231 -22.403  0.00  0.00     0.161 C 
BRANCH  16  17
ATOM     17  S   UNL d   1      33.028  19.977 -22.112  0.00  0.00     0.215 S 
ATOM     18  O   UNL d   1      33.236  20.318 -22.850  0.00  0.00    -0.217 OA
ATOM     19  O   UNL d   1      32.825  19.636 -21.385  0.00  0.00    -0.217 OA
BRANCH  17  20
ATOM     20  C   UNL d   1      32.816  20.723 -21.821  0.00  0.00     0.088 A 
ATOM     21  C   UNL d   1      32.347  20.784 -21.154  0.00  0.00     0.011 A 
ATOM     22  C   UNL d   1      32.135  21.530 -20.863  0.00  0.00     0.001 A 
ATOM     23  C   UNL d   1      32.398  22.205 -21.248  0.00  0.00     0.000 A 
ATOM     24  C   UNL d   1      32.868  22.144 -21.915  0.00  0.00     0.001 A 
ATOM     25  C   UNL d   1      33.080  21.407 -22.207  0.00  0.00     0.011 A 
ENDBRANCH  17  20
ENDBRANCH  16  17
ENDBRANCH   2  16
TORSDOF 5
ENDMDL
MODEL 4
REMARK VINA RESULT:      -1.6      2.003      3.171
REMARK  5 active torsions:
REMARK  status: ('A' for Active; 'I' for Inactive)
REMARK    1  A    between atoms: C_5  and  S_1 
REMARK    2  A    between atoms: C_12  and  S_1 
REMARK    3  A    between atoms: C_2  and  N_6 
REMARK    4  A    between atoms: C_13  and  C_4 
REMARK    5  A    between atoms: C_7  and  C_5 
REMARK       I    between atoms: N_6  and  C_7 
ROOT
ATOM      1  N   UNL d   1      33.117  19.713 -21.605  0.00  0.00    -0.182 NA
ATOM      2  C   UNL d   1      33.199  19.503 -22.398  0.00  0.00     0.293 C 
ATOM      3  O   UNL d   1      33.241  20.073 -22.987  0.00  0.00    -0.264 OA
ENDROOT
BRANCH   1   4
ATOM      4  C   UNL d   1      33.076  20.507 -21.397  0.00  0.00     0.197 A 
ATOM      5  N   UNL d   1      33.016  20.803 -20.618  0.00  0.00    -0.221 NA
ATOM      6  C   UNL d   1      32.990  21.636 -20.660  0.00  0.00     0.090 A 
ATOM      7  C   UNL d   1      33.035  21.848 -21.474  0.00  0.00     0.058 A 
ATOM      8  S   UNL d   1      33.087  21.147 -21.918  0.00  0.00    -0.046 SA
BRANCH   6   9
ATOM      9  C   UNL d   1      32.931  22.156 -20.021  0.00  0.00     0.018 A 
ATOM     10  C   UNL d   1      33.237  21.942 -19.298  0.00  0.00     0.004 A 
ATOM     11  C   UNL d   1      33.184  22.449 -18.660  0.00  0.00     0.030 A 
ATOM     12  C   UNL d   1      32.816  23.183 -18.749  0.00  0.00     0.140 A 
ATOM     13  C   UNL d   1      32.504  23.404 -19.482  0.00  0.00     0.030 A 
ATOM     14  F   UNL d   1      32.759  23.702 -18.106  0.00  0.00    -0.204 F 
ATOM     15  C   UNL d   1      32.563  22.884 -20.121  0.00  0.00     0.004 A 
ENDBRANCH   6   9
ENDBRANCH   1   4
BRANCH   2  16
ATOM     16  C   UNL d   1      33.241  18.703 -22.608  0.00  0.00     0.161 C 
BRANCH  16  17
ATOM     17  S   UNL d   1      32.702  18.388 -23.153  0.00  0.00     0.215 S 
ATOM     18  O   UNL d   1      32.190  18.185 -22.521  0.00  0.00    -0.217 OA
ATOM     19  O   UNL d   1      33.211  18.591 -23.774  0.00  0.00    -0.217 OA
BRANCH  17  20
ATOM     20  C   UNL d   1      32.163  18.073 -23.699  0.00  0.00     0.088 A 
ATOM     21  C   UNL d   1      31.781  17.368 -23.537  0.00  0.00     0.011 A 
ATOM     22  C   UNL d   1      31.242  17.054 -24.082  0.00  0.00     0.001 A 
ATOM     23  C   UNL d   1      31.095  17.454 -24.783  0.00  0.00     0.000 A 
ATOM     24  C   UNL d   1      31.477  18.159 -24.945  0.00  0.00     0.001 A 
ATOM     25  C   UNL d   1      32.011  18.474 -24.407  0.00  0.00     0.011 A 
ENDBRANCH  17  20
ENDBRANCH  16  17
ENDBRANCH   2  16
TORSDOF 5
ENDMDL
