MODEL 1
REMARK VINA RESULT:      18.0      0.000      0.000
REMARK  3 active torsions:
REMARK  status: ('A' for Active; 'I' for Inactive)
REMARK    1  A    between atoms: C_10  and  C_1 
REMARK    2  A    between atoms: C_8  and  N_5 
REMARK    3  A    between atoms: N_9  and  C_10 
ROOT
ATOM      1  C   UNL d   1      45.856 -17.249  44.755  0.00  0.00     0.084 C 
ENDROOT
BRANCH   1   2
ATOM      2  N   UNL d   1      45.786 -16.430  44.666  0.00  0.00    -0.300 N 
ATOM      3  C   UNL d   1      45.074 -16.103  44.417  0.00  0.00     0.100 A 
ATOM      4  C   UNL d   1      45.001 -15.281  44.326  0.00  0.00     0.101 A 
ATOM      5  N   UNL d   1      45.646 -14.794  44.488  0.00  0.00    -0.286 N 
ATOM      6  C   UNL d   1      46.372 -15.121  44.742  0.00  0.00     0.101 A 
ATOM      7  C   UNL d   1      46.437 -15.953  44.830  0.00  0.00     0.100 A 
BRANCH   5   8
ATOM      8  C   UNL d   1      45.592 -13.979  44.404  0.00  0.00     0.148 A 
ATOM      9  N   UNL d   1      46.131 -13.496  44.829  0.00  0.00    -0.227 NA
ATOM     10  C   UNL d   1      46.083 -12.666  44.749  0.00  0.00     0.101 A 
ATOM     11  C   UNL d   1      45.511 -12.335  44.257  0.00  0.00     0.021 A 
ATOM     12  C   UNL d   1      44.982 -12.820  43.840  0.00  0.00     0.005 A 
ATOM     13  C   UNL d   1      45.024 -13.638  43.914  0.00  0.00     0.037 A 
ENDBRANCH   5   8
ENDBRANCH   1   2
BRANCH   1  14
ATOM     14  C   UNL d   1      46.021 -17.729  44.099  0.00  0.00     0.059 A 
ATOM     15  C   UNL d   1      46.152 -18.551  44.206  0.00  0.00     0.214 A 
ATOM     16  C   UNL d   1      46.314 -19.010  43.545  0.00  0.00     0.121 A 
ATOM     17  O   UNL d   1      46.118 -18.882  44.955  0.00  0.00    -0.285 OA
ATOM     18  N   UNL d   1      46.444 -19.817  43.645  0.00  0.00    -0.241 NA
ATOM     19  C   UNL d   1      46.349 -18.680  42.800  0.00  0.00     0.032 A 
ATOM     20  C   UNL d   1      46.612 -20.308  42.984  0.00  0.00     0.099 A 
ATOM     21  C   UNL d   1      46.646 -19.974  42.232  0.00  0.00     0.021 A 
ATOM     22  C   UNL d   1      46.514 -19.157  42.136  0.00  0.00     0.004 A 
ATOM     23  C   UNL d   1      46.221 -17.879  42.689  0.00  0.00     0.059 A 
ATOM     24  C   UNL d   1      46.053 -17.390  43.358  0.00  0.00     0.016 A 
ATOM     25 CL   UNL d   1      46.256 -17.544  41.933  0.00  0.00    -0.082 Cl
ENDBRANCH   1  14
TORSDOF 3
ENDMDL
