MODEL 1
REMARK VINA RESULT:      26.6      0.000      0.000
REMARK  2 active torsions:
REMARK  status: ('A' for Active; 'I' for Inactive)
REMARK    1  A    between atoms: C_13  and  N_5 
REMARK    2  A    between atoms: C_19  and  C_12 
ROOT
ATOM      1  C   UNL d   1      46.111 -18.097  43.588  0.00  0.00     0.170 A 
ATOM      2  C   UNL d   1      46.189 -18.895  43.545  0.00  0.00     0.093 A 
ATOM      3  N   UNL d   1      46.415 -18.816  42.178  0.00  0.00    -0.256 N 
ATOM      4  C   UNL d   1      46.342 -19.268  42.840  0.00  0.00     0.176 A 
ATOM      5  N   UNL d   1      45.960 -17.737  44.288  0.00  0.00    -0.212 N 
ATOM      6  N   UNL d   1      46.186 -17.657  42.912  0.00  0.00    -0.206 NA
ATOM      7  N   UNL d   1      46.419 -20.062  42.807  0.00  0.00    -0.128 NA
ATOM      8  N   UNL d   1      45.887 -18.189  44.955  0.00  0.00    -0.162 NA
ATOM      9  C   UNL d   1      46.336 -18.018  42.220  0.00  0.00     0.187 A 
ATOM     10  N   UNL d   1      46.643 -19.969  41.440  0.00  0.00    -0.128 NA
ATOM     11  C   UNL d   1      45.964 -18.984  44.921  0.00  0.00     0.127 A 
ATOM     12  C   UNL d   1      46.566 -19.175  41.477  0.00  0.00     0.172 A 
ENDROOT
BRANCH   5  13
ATOM     13  C   UNL d   1      45.881 -16.916  44.323  0.00  0.00     0.085 A 
ATOM     14  C   UNL d   1      45.188 -16.583  44.600  0.00  0.00     0.019 A 
ATOM     15  C   UNL d   1      45.111 -15.749  44.633  0.00  0.00     0.002 A 
ATOM     16  C   UNL d   1      44.374 -15.384  44.928  0.00  0.00     0.000 C 
ATOM     17  C   UNL d   1      45.738 -15.261  44.386  0.00  0.00     0.000 A 
ATOM     18  C   UNL d   1      46.444 -15.611  44.103  0.00  0.00     0.002 A 
ATOM     19  C   UNL d   1      45.662 -14.396  44.419  0.00  0.00     0.000 C 
ATOM     20  C   UNL d   1      46.519 -16.432  44.071  0.00  0.00     0.019 A 
ENDBRANCH   5  13
BRANCH  12  21
ATOM     21  C   UNL d   1      46.640 -18.736  40.807  0.00  0.00     0.039 C 
ATOM     22  C   UNL d   1      46.624 -19.093  40.093  0.00  0.00     0.003 C 
ENDBRANCH  12  21
TORSDOF 2
ENDMDL
