MODEL 1
REMARK VINA RESULT:      -4.3      0.000      0.000
REMARK  4 active torsions:
REMARK  status: ('A' for Active; 'I' for Inactive)
REMARK    1  A    between atoms: C_3  and  C_1 
REMARK    2  A    between atoms: C_2  and  C_3 
REMARK    3  A    between atoms: C_6  and  C_2 
REMARK    4  A    between atoms: C_16  and  C_6 
ROOT
ATOM      1  C   UNL d   1      58.807  -0.570  29.599  0.00  0.00     0.119 A 
ATOM      2  C   UNL d   1      58.742   0.231  29.434  0.00  0.00     0.119 A 
ATOM      3  O   UNL d   1      59.419  -0.876  29.140  0.00  0.00    -0.300 OA
ATOM      4  O   UNL d   1      59.314   0.423  28.873  0.00  0.00    -0.300 OA
ATOM      5  C   UNL d   1      59.728  -0.254  28.693  0.00  0.00     0.304 A 
ATOM      6  C   UNL d   1      58.304  -0.917  30.141  0.00  0.00     0.026 A 
ATOM      7  C   UNL d   1      57.729  -0.463  30.526  0.00  0.00     0.002 A 
ATOM      8  C   UNL d   1      58.175   0.682  29.812  0.00  0.00     0.026 A 
ATOM      9  C   UNL d   1      57.665   0.330  30.363  0.00  0.00     0.002 A 
ENDROOT
BRANCH   7  10
ATOM     10  C   UNL d   1      57.212  -0.803  31.079  0.00  0.00     0.003 C 
BRANCH  10  11
ATOM     11  C   UNL d   1      56.982  -0.374  31.749  0.00  0.00     0.044 C 
BRANCH  11  12
ATOM     12  C   UNL d   1      56.535  -0.742  32.343  0.00  0.00     0.213 C 
ATOM     13  O   UNL d   1      56.427  -1.551  32.332  0.00  0.00    -0.285 OA
BRANCH  12  14
ATOM     14  C   UNL d   1      56.195  -0.289  32.950  0.00  0.00     0.120 A 
ATOM     15  N   UNL d   1      55.407  -0.069  32.910  0.00  0.00    -0.241 NA
ATOM     16  C   UNL d   1      55.229   0.374  33.587  0.00  0.00     0.099 A 
ATOM     17  C   UNL d   1      55.916   0.420  34.039  0.00  0.00     0.022 A 
ATOM     18  C   UNL d   1      56.507   0.018  33.655  0.00  0.00     0.024 A 
ENDBRANCH  12  14
ENDBRANCH  11  12
ENDBRANCH  10  11
ENDBRANCH   7  10
TORSDOF 4
ENDMDL
MODEL 2
REMARK VINA RESULT:      -3.8      1.339      2.039
REMARK  4 active torsions:
REMARK  status: ('A' for Active; 'I' for Inactive)
REMARK    1  A    between atoms: C_3  and  C_1 
REMARK    2  A    between atoms: C_2  and  C_3 
REMARK    3  A    between atoms: C_6  and  C_2 
REMARK    4  A    between atoms: C_16  and  C_6 
ROOT
ATOM      1  C   UNL d   1      60.086  -1.190  29.062  0.00  0.00     0.119 A 
ATOM      2  C   UNL d   1      59.827  -1.917  28.787  0.00  0.00     0.119 A 
ATOM      3  O   UNL d   1      60.898  -1.141  28.926  0.00  0.00    -0.300 OA
ATOM      4  O   UNL d   1      60.477  -2.321  28.480  0.00  0.00    -0.300 OA
ATOM      5  C   UNL d   1      61.132  -1.845  28.565  0.00  0.00     0.304 A 
ATOM      6  C   UNL d   1      59.557  -0.667  29.399  0.00  0.00     0.026 A 
ATOM      7  C   UNL d   1      58.756  -0.871  29.464  0.00  0.00     0.002 A 
ATOM      8  C   UNL d   1      59.038  -2.121  28.850  0.00  0.00     0.026 A 
ATOM      9  C   UNL d   1      58.499  -1.591  29.192  0.00  0.00     0.002 A 
ENDROOT
BRANCH   7  10
ATOM     10  C   UNL d   1      58.208  -0.350  29.804  0.00  0.00     0.003 C 
BRANCH  10  11
ATOM     11  C   UNL d   1      57.923  -0.491  30.570  0.00  0.00     0.044 C 
BRANCH  11  12
ATOM     12  C   UNL d   1      57.356   0.016  30.900  0.00  0.00     0.213 C 
ATOM     13  O   UNL d   1      57.107   0.676  30.488  0.00  0.00    -0.285 OA
BRANCH  12  14
ATOM     14  C   UNL d   1      57.039  -0.145  31.650  0.00  0.00     0.120 A 
ATOM     15  N   UNL d   1      56.534  -0.782  31.756  0.00  0.00    -0.241 NA
ATOM     16  C   UNL d   1      56.310  -0.802  32.554  0.00  0.00     0.099 A 
ATOM     17  C   UNL d   1      56.683  -0.172  32.931  0.00  0.00     0.022 A 
ATOM     18  C   UNL d   1      57.128   0.231  32.384  0.00  0.00     0.024 A 
ENDBRANCH  12  14
ENDBRANCH  11  12
ENDBRANCH  10  11
ENDBRANCH   7  10
TORSDOF 4
ENDMDL
MODEL 3
REMARK VINA RESULT:      -3.5      8.653      9.680
REMARK  4 active torsions:
REMARK  status: ('A' for Active; 'I' for Inactive)
REMARK    1  A    between atoms: C_3  and  C_1 
REMARK    2  A    between atoms: C_2  and  C_3 
REMARK    3  A    between atoms: C_6  and  C_2 
REMARK    4  A    between atoms: C_16  and  C_6 
ROOT
ATOM      1  C   UNL d   1      60.001  -6.563  35.856  0.00  0.00     0.119 A 
ATOM      2  C   UNL d   1      60.771  -6.638  36.127  0.00  0.00     0.119 A 
ATOM      3  O   UNL d   1      59.795  -5.766  35.891  0.00  0.00    -0.300 OA
ATOM      4  O   UNL d   1      61.044  -5.888  36.330  0.00  0.00    -0.300 OA
ATOM      5  C   UNL d   1      60.447  -5.354  36.185  0.00  0.00     0.304 A 
ATOM      6  C   UNL d   1      59.586  -7.224  35.614  0.00  0.00     0.026 A 
ATOM      7  C   UNL d   1      59.942  -7.972  35.641  0.00  0.00     0.002 A 
ATOM      8  C   UNL d   1      61.125  -7.374  36.155  0.00  0.00     0.026 A 
ATOM      9  C   UNL d   1      60.705  -8.046  35.909  0.00  0.00     0.002 A 
ENDROOT
BRANCH   7  10
ATOM     10  C   UNL d   1      59.532  -8.651  35.398  0.00  0.00     0.003 C 
BRANCH  10  11
ATOM     11  C   UNL d   1      59.645  -8.950  34.634  0.00  0.00     0.044 C 
BRANCH  11  12
ATOM     12  C   UNL d   1      59.072  -9.446  34.296  0.00  0.00     0.213 C 
ATOM     13  O   UNL d   1      58.521  -9.818  34.769  0.00  0.00    -0.285 OA
BRANCH  12  14
ATOM     14  C   UNL d   1      59.058  -9.566  33.474  0.00  0.00     0.120 A 
ATOM     15  N   UNL d   1      59.752  -9.723  33.067  0.00  0.00    -0.241 NA
ATOM     16  C   UNL d   1      59.564  -9.815  32.266  0.00  0.00     0.099 A 
ATOM     17  C   UNL d   1      58.750  -9.713  32.190  0.00  0.00     0.022 A 
ATOM     18  C   UNL d   1      58.438  -9.561  32.924  0.00  0.00     0.024 A 
ENDBRANCH  12  14
ENDBRANCH  11  12
ENDBRANCH  10  11
ENDBRANCH   7  10
TORSDOF 4
ENDMDL
MODEL 4
REMARK VINA RESULT:      -3.4      9.122      9.627
REMARK  4 active torsions:
REMARK  status: ('A' for Active; 'I' for Inactive)
REMARK    1  A    between atoms: C_3  and  C_1 
REMARK    2  A    between atoms: C_2  and  C_3 
REMARK    3  A    between atoms: C_6  and  C_2 
REMARK    4  A    between atoms: C_16  and  C_6 
ROOT
ATOM      1  C   UNL d   1      58.676  -9.810  31.418  0.00  0.00     0.119 A 
ATOM      2  C   UNL d   1      57.858  -9.807  31.483  0.00  0.00     0.119 A 
ATOM      3  O   UNL d   1      58.867  -9.809  30.616  0.00  0.00    -0.300 OA
ATOM      4  O   UNL d   1      57.541  -9.804  30.722  0.00  0.00    -0.300 OA
ATOM      5  C   UNL d   1      58.159  -9.805  30.192  0.00  0.00     0.304 A 
ATOM      6  C   UNL d   1      59.140  -9.814  32.090  0.00  0.00     0.026 A 
ATOM      7  C   UNL d   1      58.787  -9.814  32.839  0.00  0.00     0.002 A 
ATOM      8  C   UNL d   1      57.507  -9.808  32.221  0.00  0.00     0.026 A 
ATOM      9  C   UNL d   1      57.977  -9.812  32.904  0.00  0.00     0.002 A 
ENDROOT
BRANCH   7  10
ATOM     10  C   UNL d   1      59.247  -9.818  33.530  0.00  0.00     0.003 C 
BRANCH  10  11
ATOM     11  C   UNL d   1      59.403  -9.107  33.925  0.00  0.00     0.044 C 
BRANCH  11  12
ATOM     12  C   UNL d   1      59.849  -9.113  34.625  0.00  0.00     0.213 C 
ATOM     13  O   UNL d   1      60.425  -9.680  34.739  0.00  0.00    -0.285 OA
BRANCH  12  14
ATOM     14  C   UNL d   1      59.711  -8.542  35.212  0.00  0.00     0.120 A 
ATOM     15  N   UNL d   1      60.042  -7.795  35.147  0.00  0.00    -0.241 NA
ATOM     16  C   UNL d   1      59.809  -7.352  35.807  0.00  0.00     0.099 A 
ATOM     17  C   UNL d   1      59.333  -7.837  36.274  0.00  0.00     0.022 A 
ATOM     18  C   UNL d   1      59.271  -8.563  35.915  0.00  0.00     0.024 A 
ENDBRANCH  12  14
ENDBRANCH  11  12
ENDBRANCH  10  11
ENDBRANCH   7  10
TORSDOF 4
ENDMDL
MODEL 5
REMARK VINA RESULT:      -3.1      1.633      4.508
REMARK  4 active torsions:
REMARK  status: ('A' for Active; 'I' for Inactive)
REMARK    1  A    between atoms: C_3  and  C_1 
REMARK    2  A    between atoms: C_2  and  C_3 
REMARK    3  A    between atoms: C_6  and  C_2 
REMARK    4  A    between atoms: C_16  and  C_6 
ROOT
ATOM      1  C   UNL d   1      56.073   0.306  33.043  0.00  0.00     0.119 A 
ATOM      2  C   UNL d   1      55.996  -0.503  33.150  0.00  0.00     0.119 A 
ATOM      3  O   UNL d   1      55.763   0.682  33.708  0.00  0.00    -0.300 OA
ATOM      4  O   UNL d   1      55.639  -0.631  33.882  0.00  0.00    -0.300 OA
ATOM      5  C   UNL d   1      55.496   0.094  34.223  0.00  0.00     0.304 A 
ATOM      6  C   UNL d   1      56.412   0.598  32.360  0.00  0.00     0.026 A 
ATOM      7  C   UNL d   1      56.680   0.078  31.773  0.00  0.00     0.002 A 
ATOM      8  C   UNL d   1      56.259  -1.018  32.573  0.00  0.00     0.026 A 
ATOM      9  C   UNL d   1      56.604  -0.723  31.879  0.00  0.00     0.002 A 
ENDROOT
BRANCH   7  10
ATOM     10  C   UNL d   1      57.026   0.361  31.074  0.00  0.00     0.003 C 
BRANCH  10  11
ATOM     11  C   UNL d   1      57.776   0.093  30.847  0.00  0.00     0.044 C 
BRANCH  11  12
ATOM     12  C   UNL d   1      58.090   0.315  30.112  0.00  0.00     0.213 C 
ATOM     13  O   UNL d   1      57.611   0.671  29.554  0.00  0.00    -0.285 OA
BRANCH  12  14
ATOM     14  C   UNL d   1      58.890   0.177  29.940  0.00  0.00     0.120 A 
ATOM     15  N   UNL d   1      59.115  -0.499  29.536  0.00  0.00    -0.241 NA
ATOM     16  C   UNL d   1      59.938  -0.484  29.447  0.00  0.00     0.099 A 
ATOM     17  C   UNL d   1      60.212   0.208  29.802  0.00  0.00     0.022 A 
ATOM     18  C   UNL d   1      59.576   0.613  30.104  0.00  0.00     0.024 A 
ENDBRANCH  12  14
ENDBRANCH  11  12
ENDBRANCH  10  11
ENDBRANCH   7  10
TORSDOF 4
ENDMDL
MODEL 6
REMARK VINA RESULT:      -3.0      2.381      3.687
REMARK  4 active torsions:
REMARK  status: ('A' for Active; 'I' for Inactive)
REMARK    1  A    between atoms: C_3  and  C_1 
REMARK    2  A    between atoms: C_2  and  C_3 
REMARK    3  A    between atoms: C_6  and  C_2 
REMARK    4  A    between atoms: C_16  and  C_6 
ROOT
ATOM      1  C   UNL d   1      60.337  -3.036  28.502  0.00  0.00     0.119 A 
ATOM      2  C   UNL d   1      59.841  -3.688  28.528  0.00  0.00     0.119 A 
ATOM      3  O   UNL d   1      61.114  -3.308  28.461  0.00  0.00    -0.300 OA
ATOM      4  O   UNL d   1      60.309  -4.366  28.504  0.00  0.00    -0.300 OA
ATOM      5  C   UNL d   1      61.088  -4.133  28.463  0.00  0.00     0.304 A 
ATOM      6  C   UNL d   1      60.024  -2.282  28.518  0.00  0.00     0.026 A 
ATOM      7  C   UNL d   1      59.203  -2.173  28.560  0.00  0.00     0.002 A 
ATOM      8  C   UNL d   1      59.032  -3.584  28.570  0.00  0.00     0.026 A 
ATOM      9  C   UNL d   1      58.712  -2.819  28.586  0.00  0.00     0.002 A 
ENDROOT
BRANCH   7  10
ATOM     10  C   UNL d   1      58.872  -1.413  28.577  0.00  0.00     0.003 C 
BRANCH  10  11
ATOM     11  C   UNL d   1      58.741  -1.035  29.303  0.00  0.00     0.044 C 
BRANCH  11  12
ATOM     12  C   UNL d   1      58.503  -0.241  29.319  0.00  0.00     0.213 C 
ATOM     13  O   UNL d   1      58.515   0.204  28.634  0.00  0.00    -0.285 OA
BRANCH  12  14
ATOM     14  C   UNL d   1      58.252   0.105  30.031  0.00  0.00     0.120 A 
ATOM     15  N   UNL d   1      57.469   0.329  30.127  0.00  0.00    -0.241 NA
ATOM     16  C   UNL d   1      57.386   0.653  30.885  0.00  0.00     0.099 A 
ATOM     17  C   UNL d   1      58.125   0.625  31.248  0.00  0.00     0.022 A 
ATOM     18  C   UNL d   1      58.656   0.291  30.731  0.00  0.00     0.024 A 
ENDBRANCH  12  14
ENDBRANCH  11  12
ENDBRANCH  10  11
ENDBRANCH   7  10
TORSDOF 4
ENDMDL
