MODEL 1
REMARK VINA RESULT:      96.0      0.000      0.000
REMARK  8 active torsions:
REMARK  status: ('A' for Active; 'I' for Inactive)
REMARK    1  A    between atoms: C_14  and  C_1 
REMARK    2  A    between atoms: C_6  and  C_2 
REMARK    3  A    between atoms: C_19  and  C_4 
REMARK       I    between atoms: N_13  and  C_6 
REMARK    4  A    between atoms: C_7  and  S_18 
REMARK    5  A    between atoms: C_26  and  N_13 
REMARK    6  A    between atoms: C_22  and  C_14 
REMARK    7  A    between atoms: S_18  and  C_22 
REMARK    8  A    between atoms: O_31  and  C_27 
ROOT
ATOM      1  C   UNL d   1      43.751 -16.528  38.391  0.00  0.00     0.076 A 
ATOM      2  C   UNL d   1      45.026 -16.996  38.771  0.00  0.00     0.092 A 
ATOM      3  C   UNL d   1      44.566 -16.486  38.335  0.00  0.00     0.018 A 
ATOM      4  C   UNL d   1      44.675 -17.550  39.265  0.00  0.00     0.120 A 
ATOM      5  N   UNL d   1      43.865 -17.594  39.324  0.00  0.00    -0.238 NA
ATOM      6  C   UNL d   1      43.401 -17.082  38.886  0.00  0.00     0.087 A 
ATOM      7  C   UNL d   1      45.841 -16.954  38.715  0.00  0.00     0.103 C 
ATOM      8  N   UNL d   1      46.644 -16.914  38.661  0.00  0.00    -0.191 NA
ATOM      9  C   UNL d   1      42.620 -17.113  38.931  0.00  0.00     0.021 C 
ENDROOT
BRANCH   4  10
ATOM     10  S   UNL d   1      45.140 -18.062  39.703  0.00  0.00    -0.063 SA
BRANCH  10  11
ATOM     11  C   UNL d   1      45.287 -17.911  40.491  0.00  0.00     0.079 C 
BRANCH  11  12
ATOM     12  C   UNL d   1      45.899 -18.286  40.874  0.00  0.00     0.207 C 
ATOM     13  O   UNL d   1      46.642 -18.434  40.450  0.00  0.00    -0.286 OA
BRANCH  12  14
ATOM     14  C   UNL d   1      46.002 -18.573  41.592  0.00  0.00     0.103 A 
ATOM     15  C   UNL d   1      46.184 -19.302  41.891  0.00  0.00     0.303 A 
ATOM     16  O   UNL d   1      46.247 -19.399  42.694  0.00  0.00    -0.273 OA
ATOM     17  O   UNL d   1      46.317 -19.990  41.389  0.00  0.00    -0.259 OA
ATOM     18  C   UNL d   1      46.127 -18.765  43.198  0.00  0.00     0.103 A 
ATOM     19  C   UNL d   1      45.944 -18.036  42.903  0.00  0.00     0.023 A 
ATOM     20  C   UNL d   1      46.194 -18.877  44.029  0.00  0.00     0.025 A 
ATOM     21  C   UNL d   1      45.881 -17.936  42.089  0.00  0.00     0.011 A 
ATOM     22  C   UNL d   1      45.820 -17.382  43.414  0.00  0.00     0.002 A 
ATOM     23  C   UNL d   1      45.884 -17.481  44.233  0.00  0.00     0.000 A 
ATOM     24  C   UNL d   1      46.074 -18.239  44.541  0.00  0.00     0.002 A 
ENDBRANCH  12  14
ENDBRANCH  11  12
ENDBRANCH  10  11
ENDBRANCH   4  10
BRANCH   3  25
ATOM     25  C   UNL d   1      44.916 -15.934  37.843  0.00  0.00     0.001 A 
ATOM     26  C   UNL d   1      44.937 -16.057  37.027  0.00  0.00     0.002 A 
ATOM     27  C   UNL d   1      45.291 -15.498  36.528  0.00  0.00     0.024 A 
ATOM     28  C   UNL d   1      45.623 -14.816  36.847  0.00  0.00     0.094 A 
ATOM     29  C   UNL d   1      45.605 -14.687  37.661  0.00  0.00     0.024 A 
ATOM     30  C   UNL d   1      45.251 -15.246  38.159  0.00  0.00     0.002 A 
BRANCH  28  31
ATOM     31  O   UNL d   1      45.963 -14.284  36.339  0.00  0.00    -0.328 OA
ATOM     32  C   UNL d   1      46.628 -13.758  36.689  0.00  0.00     0.181 C 
ENDBRANCH  28  31
ENDBRANCH   3  25
BRANCH   1  33
ATOM     33  C   UNL d   1      43.092 -15.908  37.864  0.00  0.00     0.281 C 
ATOM     34  N   UNL d   1      42.870 -15.757  37.131  0.00  0.00    -0.208 NA
ATOM     35  O   UNL d   1      42.548 -15.302  38.340  0.00  0.00    -0.265 OA
BRANCH  34  36
ATOM     36  C   UNL d   1      42.300 -15.187  37.009  0.00  0.00     0.085 A 
ATOM     37  C   UNL d   1      42.351 -14.473  37.420  0.00  0.00     0.019 A 
ATOM     38  C   UNL d   1      41.776 -13.882  37.305  0.00  0.00     0.002 A 
ATOM     39  C   UNL d   1      41.148 -14.018  36.771  0.00  0.00     0.000 A 
ATOM     40  C   UNL d   1      41.096 -14.742  36.355  0.00  0.00     0.002 A 
ATOM     41  C   UNL d   1      41.680 -15.323  36.482  0.00  0.00     0.019 A 
ENDBRANCH  34  36
ENDBRANCH   1  33
TORSDOF 8
ENDMDL
MODEL 2
REMARK VINA RESULT:      98.9      0.750      1.077
REMARK  8 active torsions:
REMARK  status: ('A' for Active; 'I' for Inactive)
REMARK    1  A    between atoms: C_14  and  C_1 
REMARK    2  A    between atoms: C_6  and  C_2 
REMARK    3  A    between atoms: C_19  and  C_4 
REMARK       I    between atoms: N_13  and  C_6 
REMARK    4  A    between atoms: C_7  and  S_18 
REMARK    5  A    between atoms: C_26  and  N_13 
REMARK    6  A    between atoms: C_22  and  C_14 
REMARK    7  A    between atoms: S_18  and  C_22 
REMARK    8  A    between atoms: O_31  and  C_27 
ROOT
ATOM      1  C   UNL d   1      43.789 -16.650  38.704  0.00  0.00     0.076 A 
ATOM      2  C   UNL d   1      45.039 -17.217  39.029  0.00  0.00     0.092 A 
ATOM      3  C   UNL d   1      44.598 -16.695  38.589  0.00  0.00     0.018 A 
ATOM      4  C   UNL d   1      44.676 -17.698  39.586  0.00  0.00     0.120 A 
ATOM      5  N   UNL d   1      43.872 -17.657  39.704  0.00  0.00    -0.238 NA
ATOM      6  C   UNL d   1      43.426 -17.131  39.262  0.00  0.00     0.087 A 
ATOM      7  C   UNL d   1      45.847 -17.261  38.914  0.00  0.00     0.103 C 
ATOM      8  N   UNL d   1      46.644 -17.306  38.801  0.00  0.00    -0.191 NA
ATOM      9  C   UNL d   1      42.652 -17.081  39.364  0.00  0.00     0.021 C 
ENDROOT
BRANCH   4  10
ATOM     10  S   UNL d   1      45.121 -18.224  40.029  0.00  0.00    -0.063 SA
BRANCH  10  11
ATOM     11  C   UNL d   1      45.606 -17.951  40.625  0.00  0.00     0.079 C 
BRANCH  11  12
ATOM     12  C   UNL d   1      45.884 -18.460  41.194  0.00  0.00     0.207 C 
ATOM     13  O   UNL d   1      46.124 -19.264  40.970  0.00  0.00    -0.286 OA
BRANCH  12  14
ATOM     14  C   UNL d   1      46.001 -18.409  41.964  0.00  0.00     0.103 A 
ATOM     15  C   UNL d   1      46.097 -17.796  42.484  0.00  0.00     0.303 A 
ATOM     16  O   UNL d   1      46.210 -17.957  43.271  0.00  0.00    -0.273 OA
ATOM     17  O   UNL d   1      46.085 -16.971  42.237  0.00  0.00    -0.259 OA
ATOM     18  C   UNL d   1      46.227 -18.730  43.538  0.00  0.00     0.103 A 
ATOM     19  C   UNL d   1      46.131 -19.344  43.023  0.00  0.00     0.023 A 
ATOM     20  C   UNL d   1      46.345 -18.884  44.357  0.00  0.00     0.025 A 
ATOM     21  C   UNL d   1      46.016 -19.183  42.224  0.00  0.00     0.011 A 
ATOM     22  C   UNL d   1      46.147 -20.139  43.290  0.00  0.00     0.002 A 
ATOM     23  C   UNL d   1      46.263 -20.302  44.093  0.00  0.00     0.000 A 
ATOM     24  C   UNL d   1      46.363 -19.665  44.630  0.00  0.00     0.002 A 
ENDBRANCH  12  14
ENDBRANCH  11  12
ENDBRANCH  10  11
ENDBRANCH   4  10
BRANCH   3  25
ATOM     25  C   UNL d   1      44.960 -16.215  38.034  0.00  0.00     0.001 A 
ATOM     26  C   UNL d   1      45.304 -16.545  37.359  0.00  0.00     0.002 A 
ATOM     27  C   UNL d   1      45.670 -16.059  36.796  0.00  0.00     0.024 A 
ATOM     28  C   UNL d   1      45.692 -15.245  36.909  0.00  0.00     0.094 A 
ATOM     29  C   UNL d   1      45.351 -14.909  37.580  0.00  0.00     0.024 A 
ATOM     30  C   UNL d   1      44.984 -15.395  38.143  0.00  0.00     0.002 A 
BRANCH  28  31
ATOM     31  O   UNL d   1      46.056 -14.791  36.345  0.00  0.00    -0.328 OA
ATOM     32  C   UNL d   1      46.407 -13.993  36.632  0.00  0.00     0.181 C 
ENDBRANCH  28  31
ENDBRANCH   3  25
BRANCH   1  33
ATOM     33  C   UNL d   1      43.153 -16.005  38.178  0.00  0.00     0.281 C 
ATOM     34  N   UNL d   1      42.865 -15.281  38.225  0.00  0.00    -0.208 NA
ATOM     35  O   UNL d   1      42.751 -16.303  37.380  0.00  0.00    -0.265 OA
BRANCH  34  36
ATOM     36  C   UNL d   1      42.361 -15.028  37.636  0.00  0.00     0.085 A 
ATOM     37  C   UNL d   1      41.919 -14.340  37.753  0.00  0.00     0.019 A 
ATOM     38  C   UNL d   1      41.401 -14.071  37.161  0.00  0.00     0.002 A 
ATOM     39  C   UNL d   1      41.330 -14.501  36.448  0.00  0.00     0.000 A 
ATOM     40  C   UNL d   1      41.778 -15.198  36.330  0.00  0.00     0.002 A 
ATOM     41  C   UNL d   1      42.292 -15.454  36.933  0.00  0.00     0.019 A 
ENDBRANCH  34  36
ENDBRANCH   1  33
TORSDOF 8
ENDMDL
