MODEL 1
REMARK VINA RESULT:      -2.5      0.000      0.000
REMARK  3 active torsions:
REMARK  status: ('A' for Active; 'I' for Inactive)
REMARK    1  A    between atoms: C_2  and  N_1 
REMARK    2  A    between atoms: N_8  and  C_3 
REMARK       I    between atoms: C_9  and  N_8 
REMARK    3  A    between atoms: C_10  and  C_9 
ROOT
ATOM      1  N   UNL d   1      58.247  -1.534  29.846  0.00  0.00    -0.189 N 
ATOM      2  C   UNL d   1      58.966  -1.358  29.475  0.00  0.00     0.171 A 
ATOM      3  N   UNL d   1      57.985  -2.261  29.570  0.00  0.00    -0.162 NA
ATOM      4  C   UNL d   1      59.130  -1.991  28.972  0.00  0.00     0.060 A 
ATOM      5  C   UNL d   1      58.541  -2.540  29.025  0.00  0.00     0.105 A 
ATOM      6  C   UNL d   1      58.503  -3.256  28.606  0.00  0.00     0.023 C 
ENDROOT
BRANCH   1   7
ATOM      7  C   UNL d   1      57.837  -1.075  30.405  0.00  0.00     0.197 A 
ATOM      8  N   UNL d   1      57.427  -1.412  31.036  0.00  0.00    -0.221 NA
ATOM      9  C   UNL d   1      57.088  -0.787  31.475  0.00  0.00     0.090 A 
ATOM     10  C   UNL d   1      56.631  -0.765  32.143  0.00  0.00     0.020 A 
ATOM     11  C   UNL d   1      57.305  -0.087  31.093  0.00  0.00     0.050 A 
ATOM     12  C   UNL d   1      56.373  -0.046  32.455  0.00  0.00     0.002 A 
ATOM     13  C   UNL d   1      56.587   0.641  32.078  0.00  0.00     0.001 A 
ATOM     14  C   UNL d   1      57.052   0.630  31.398  0.00  0.00     0.008 A 
ATOM     15  S   UNL d   1      57.763  -0.275  30.440  0.00  0.00    -0.047 SA
ENDBRANCH   1   7
BRANCH   2  16
ATOM     16  N   UNL d   1      59.429  -0.682  29.585  0.00  0.00    -0.189 NA
ATOM     17  C   UNL d   1      60.193  -0.673  29.303  0.00  0.00     0.281 C 
ATOM     18  O   UNL d   1      60.496  -1.332  28.913  0.00  0.00    -0.265 OA
BRANCH  17  19
ATOM     19  C   UNL d   1      60.660   0.001  29.411  0.00  0.00     0.058 A 
ATOM     20  C   UNL d   1      61.133   0.681  29.516  0.00  0.00     0.005 A 
ATOM     21  C   UNL d   1      61.116   0.293  28.788  0.00  0.00     0.005 A 
ENDBRANCH  17  19
ENDBRANCH   2  16
TORSDOF 3
ENDMDL
MODEL 2
REMARK VINA RESULT:      -0.5      2.175      2.997
REMARK  3 active torsions:
REMARK  status: ('A' for Active; 'I' for Inactive)
REMARK    1  A    between atoms: C_2  and  N_1 
REMARK    2  A    between atoms: N_8  and  C_3 
REMARK       I    between atoms: C_9  and  N_8 
REMARK    3  A    between atoms: C_10  and  C_9 
ROOT
ATOM      1  N   UNL d   1      58.412   0.387  32.289  0.00  0.00    -0.189 N 
ATOM      2  C   UNL d   1      58.655   0.555  31.516  0.00  0.00     0.171 A 
ATOM      3  N   UNL d   1      59.069   0.413  32.778  0.00  0.00    -0.162 NA
ATOM      4  C   UNL d   1      59.469   0.682  31.550  0.00  0.00     0.060 A 
ATOM      5  C   UNL d   1      59.726   0.598  32.311  0.00  0.00     0.105 A 
ATOM      6  C   UNL d   1      60.510   0.682  32.572  0.00  0.00     0.023 C 
ENDROOT
BRANCH   1   7
ATOM      7  C   UNL d   1      57.643   0.218  32.556  0.00  0.00     0.197 A 
ATOM      8  N   UNL d   1      57.254  -0.484  32.365  0.00  0.00    -0.221 NA
ATOM      9  C   UNL d   1      56.502  -0.458  32.727  0.00  0.00     0.090 A 
ATOM     10  C   UNL d   1      55.879  -0.975  32.743  0.00  0.00     0.020 A 
ATOM     11  C   UNL d   1      56.457   0.262  33.128  0.00  0.00     0.050 A 
ATOM     12  C   UNL d   1      55.189  -0.794  33.158  0.00  0.00     0.002 A 
ATOM     13  C   UNL d   1      55.147  -0.084  33.551  0.00  0.00     0.001 A 
ATOM     14  C   UNL d   1      55.775   0.449  33.541  0.00  0.00     0.008 A 
ATOM     15  S   UNL d   1      57.161   0.668  33.016  0.00  0.00    -0.047 SA
ENDBRANCH   1   7
BRANCH   2  16
ATOM     16  N   UNL d   1      58.177   0.589  30.841  0.00  0.00    -0.189 NA
ATOM     17  C   UNL d   1      58.496   0.391  30.119  0.00  0.00     0.281 C 
ATOM     18  O   UNL d   1      59.284   0.160  30.065  0.00  0.00    -0.265 OA
BRANCH  17  19
ATOM     19  C   UNL d   1      58.022   0.423  29.442  0.00  0.00     0.058 A 
ATOM     20  C   UNL d   1      57.547   0.454  28.755  0.00  0.00     0.005 A 
ATOM     21  C   UNL d   1      58.326   0.185  28.712  0.00  0.00     0.005 A 
ENDBRANCH  17  19
ENDBRANCH   2  16
TORSDOF 3
ENDMDL
MODEL 3
REMARK VINA RESULT:      -0.2      8.866      9.386
REMARK  3 active torsions:
REMARK  status: ('A' for Active; 'I' for Inactive)
REMARK    1  A    between atoms: C_2  and  N_1 
REMARK    2  A    between atoms: N_8  and  C_3 
REMARK       I    between atoms: C_9  and  N_8 
REMARK    3  A    between atoms: C_10  and  C_9 
ROOT
ATOM      1  N   UNL d   1      59.908  -9.401  32.668  0.00  0.00    -0.189 N 
ATOM      2  C   UNL d   1      59.356  -9.642  32.100  0.00  0.00     0.171 A 
ATOM      3  N   UNL d   1      60.637  -9.317  32.301  0.00  0.00    -0.162 NA
ATOM      4  C   UNL d   1      59.766  -9.700  31.386  0.00  0.00     0.060 A 
ATOM      5  C   UNL d   1      60.541  -9.505  31.502  0.00  0.00     0.105 A 
ATOM      6  C   UNL d   1      61.133  -9.495  30.919  0.00  0.00     0.023 C 
ENDROOT
BRANCH   1   7
ATOM      7  C   UNL d   1      59.778  -9.262  33.477  0.00  0.00     0.197 A 
ATOM      8  N   UNL d   1      59.877  -8.517  33.818  0.00  0.00    -0.221 NA
ATOM      9  C   UNL d   1      59.698  -8.590  34.630  0.00  0.00     0.090 A 
ATOM     10  C   UNL d   1      59.694  -8.061  35.244  0.00  0.00     0.020 A 
ATOM     11  C   UNL d   1      59.496  -9.380  34.758  0.00  0.00     0.050 A 
ATOM     12  C   UNL d   1      59.489  -8.300  36.006  0.00  0.00     0.002 A 
ATOM     13  C   UNL d   1      59.290  -9.078  36.130  0.00  0.00     0.001 A 
ATOM     14  C   UNL d   1      59.291  -9.623  35.512  0.00  0.00     0.008 A 
ATOM     15  S   UNL d   1      59.548  -9.782  34.045  0.00  0.00    -0.047 SA
ENDBRANCH   1   7
BRANCH   2  16
ATOM     16  N   UNL d   1      58.552  -9.794  32.222  0.00  0.00    -0.189 NA
ATOM     17  C   UNL d   1      58.010  -9.518  31.680  0.00  0.00     0.281 C 
ATOM     18  O   UNL d   1      58.263  -9.094  31.022  0.00  0.00    -0.265 OA
BRANCH  17  19
ATOM     19  C   UNL d   1      57.205  -9.668  31.798  0.00  0.00     0.058 A 
ATOM     20  C   UNL d   1      56.391  -9.818  31.912  0.00  0.00     0.005 A 
ATOM     21  C   UNL d   1      56.664  -9.528  31.189  0.00  0.00     0.005 A 
ENDBRANCH  17  19
ENDBRANCH   2  16
TORSDOF 3
ENDMDL
MODEL 4
REMARK VINA RESULT:       0.3      2.793      4.988
REMARK  3 active torsions:
REMARK  status: ('A' for Active; 'I' for Inactive)
REMARK    1  A    between atoms: C_2  and  N_1 
REMARK    2  A    between atoms: N_8  and  C_3 
REMARK       I    between atoms: C_9  and  N_8 
REMARK    3  A    between atoms: C_10  and  C_9 
ROOT
ATOM      1  N   UNL d   1      56.173   0.297  32.872  0.00  0.00    -0.189 N 
ATOM      2  C   UNL d   1      56.332   0.429  33.674  0.00  0.00     0.171 A 
ATOM      3  N   UNL d   1      55.360   0.300  32.766  0.00  0.00    -0.162 NA
ATOM      4  C   UNL d   1      55.601   0.511  34.046  0.00  0.00     0.060 A 
ATOM      5  C   UNL d   1      55.009   0.435  33.502  0.00  0.00     0.105 A 
ATOM      6  C   UNL d   1      54.195   0.482  33.659  0.00  0.00     0.023 C 
ENDROOT
BRANCH   1   7
ATOM      7  C   UNL d   1      56.720   0.178  32.257  0.00  0.00     0.197 A 
ATOM      8  N   UNL d   1      56.747  -0.520  31.819  0.00  0.00    -0.221 NA
ATOM      9  C   UNL d   1      57.359  -0.438  31.257  0.00  0.00     0.090 A 
ATOM     10  C   UNL d   1      57.649  -0.927  30.680  0.00  0.00     0.020 A 
ATOM     11  C   UNL d   1      57.687   0.312  31.373  0.00  0.00     0.050 A 
ATOM     12  C   UNL d   1      58.274  -0.688  30.198  0.00  0.00     0.002 A 
ATOM     13  C   UNL d   1      58.595   0.049  30.313  0.00  0.00     0.001 A 
ATOM     14  C   UNL d   1      58.308   0.555  30.897  0.00  0.00     0.008 A 
ATOM     15  S   UNL d   1      57.288   0.680  31.987  0.00  0.00    -0.047 SA
ENDBRANCH   1   7
BRANCH   2  16
ATOM     16  N   UNL d   1      57.077   0.470  34.032  0.00  0.00    -0.189 NA
ATOM     17  C   UNL d   1      57.125   0.527  34.843  0.00  0.00     0.281 C 
ATOM     18  O   UNL d   1      56.438   0.542  35.297  0.00  0.00    -0.265 OA
BRANCH  17  19
ATOM     19  C   UNL d   1      57.867   0.568  35.206  0.00  0.00     0.058 A 
ATOM     20  C   UNL d   1      58.615   0.611  35.576  0.00  0.00     0.005 A 
ATOM     21  C   UNL d   1      57.923   0.682  36.022  0.00  0.00     0.005 A 
ENDBRANCH  17  19
ENDBRANCH   2  16
TORSDOF 3
ENDMDL
MODEL 5
REMARK VINA RESULT:       0.3      8.969      9.310
REMARK  3 active torsions:
REMARK  status: ('A' for Active; 'I' for Inactive)
REMARK    1  A    between atoms: C_2  and  N_1 
REMARK    2  A    between atoms: N_8  and  C_3 
REMARK       I    between atoms: C_9  and  N_8 
REMARK    3  A    between atoms: C_10  and  C_9 
ROOT
ATOM      1  N   UNL d   1      59.906  -9.731  30.717  0.00  0.00    -0.189 N 
ATOM      2  C   UNL d   1      59.334  -9.780  30.122  0.00  0.00     0.171 A 
ATOM      3  N   UNL d   1      60.646  -9.706  30.364  0.00  0.00    -0.162 NA
ATOM      4  C   UNL d   1      59.743  -9.785  29.405  0.00  0.00     0.060 A 
ATOM      5  C   UNL d   1      60.537  -9.741  29.545  0.00  0.00     0.105 A 
ATOM      6  C   UNL d   1      61.133  -9.731  28.967  0.00  0.00     0.023 C 
ENDROOT
BRANCH   1   7
ATOM      7  C   UNL d   1      59.785  -9.708  31.539  0.00  0.00     0.197 A 
ATOM      8  N   UNL d   1      59.033  -9.750  31.876  0.00  0.00    -0.221 NA
ATOM      9  C   UNL d   1      59.129  -9.711  32.704  0.00  0.00     0.090 A 
ATOM     10  C   UNL d   1      58.605  -9.725  33.322  0.00  0.00     0.020 A 
ATOM     11  C   UNL d   1      59.940  -9.646  32.846  0.00  0.00     0.050 A 
ATOM     12  C   UNL d   1      58.869  -9.676  34.102  0.00  0.00     0.002 A 
ATOM     13  C   UNL d   1      59.668  -9.612  34.239  0.00  0.00     0.001 A 
ATOM     14  C   UNL d   1      60.209  -9.597  33.618  0.00  0.00     0.008 A 
ATOM     15  S   UNL d   1      60.332  -9.645  32.126  0.00  0.00    -0.047 SA
ENDBRANCH   1   7
BRANCH   2  16
ATOM     16  N   UNL d   1      58.514  -9.818  30.223  0.00  0.00    -0.189 NA
ATOM     17  C   UNL d   1      58.028  -9.520  29.641  0.00  0.00     0.281 C 
ATOM     18  O   UNL d   1      58.354  -9.187  28.962  0.00  0.00    -0.265 OA
BRANCH  17  19
ATOM     19  C   UNL d   1      57.207  -9.555  29.737  0.00  0.00     0.058 A 
ATOM     20  C   UNL d   1      56.377  -9.592  29.831  0.00  0.00     0.005 A 
ATOM     21  C   UNL d   1      56.724  -9.759  29.100  0.00  0.00     0.005 A 
ENDBRANCH  17  19
ENDBRANCH   2  16
TORSDOF 3
ENDMDL
