MODEL 1
REMARK VINA RESULT:      -1.0      0.000      0.000
REMARK  5 active torsions:
REMARK  status: ('A' for Active; 'I' for Inactive)
REMARK    1  A    between atoms: N_2  and  C_14 
REMARK    2  A    between atoms: C_17  and  N_4 
REMARK    3  A    between atoms: C_15  and  C_9 
REMARK    4  A    between atoms: C_14  and  O_16 
REMARK    5  A    between atoms: O_16  and  C_15 
ROOT
ATOM      1  C   UNL d   1     -42.515-122.727 -49.454  0.00  0.00     0.114 A 
ATOM      2  C   UNL d   1     -43.169-122.651 -49.951  0.00  0.00     0.044 A 
ATOM      3  N   UNL d   1     -42.773-123.061 -48.750  0.00  0.00    -0.224 N 
ATOM      4  N   UNL d   1     -43.579-123.192 -48.806  0.00  0.00    -0.165 NA
ATOM      5  S   UNL d   1     -41.868-122.443 -49.850  0.00  0.00    -0.062 SA
ATOM      6  C   UNL d   1     -42.104-122.187 -50.594  0.00  0.00     0.094 A 
ATOM      7  C   UNL d   1     -42.919-122.321 -50.649  0.00  0.00     0.015 A 
ATOM      8  C   UNL d   1     -43.830-122.943 -49.542  0.00  0.00     0.103 A 
ATOM      9  C   UNL d   1     -44.595-122.972 -49.832  0.00  0.00     0.022 C 
ENDROOT
BRANCH   6  10
ATOM     10  C   UNL d   1     -41.623-121.860 -51.175  0.00  0.00     0.307 C 
ATOM     11  O   UNL d   1     -41.123-121.227 -50.988  0.00  0.00    -0.258 OA
BRANCH  10  12
ATOM     12  O   UNL d   1     -41.637-122.161 -51.945  0.00  0.00    -0.252 OA
BRANCH  12  13
ATOM     13  C   UNL d   1     -41.764-121.652 -52.585  0.00  0.00     0.216 C 
BRANCH  13  14
ATOM     14  N   UNL d   1     -41.741-121.947 -53.357  0.00  0.00    -0.218 N 
ATOM     15  C   UNL d   1     -41.462-122.684 -53.582  0.00  0.00     0.269 A 
ATOM     16  C   UNL d   1     -41.541-122.752 -54.403  0.00  0.00     0.061 A 
ATOM     17  O   UNL d   1     -41.153-123.265 -53.078  0.00  0.00    -0.267 OA
ATOM     18  C   UNL d   1     -41.357-123.356 -54.932  0.00  0.00     0.005 A 
ATOM     19  C   UNL d   1     -41.872-122.048 -54.682  0.00  0.00     0.061 A 
ATOM     20  C   UNL d   1     -41.502-123.260 -55.733  0.00  0.00     0.000 A 
ATOM     21  C   UNL d   1     -41.833-122.556 -56.011  0.00  0.00     0.000 A 
ATOM     22  C   UNL d   1     -42.020-121.946 -55.489  0.00  0.00     0.005 A 
ATOM     23  C   UNL d   1     -41.999-121.542 -54.034  0.00  0.00     0.269 A 
ATOM     24  O   UNL d   1     -42.318-120.786 -54.059  0.00  0.00    -0.267 OA
ENDBRANCH  13  14
ENDBRANCH  12  13
ENDBRANCH  10  12
ENDBRANCH   6  10
BRANCH   3  25
ATOM     25  C   UNL d   1     -42.300-123.234 -48.096  0.00  0.00     0.083 A 
ATOM     26  C   UNL d   1     -41.596-123.643 -48.204  0.00  0.00     0.019 A 
ATOM     27  C   UNL d   1     -41.123-123.817 -47.550  0.00  0.00     0.002 A 
ATOM     28  C   UNL d   1     -41.354-123.582 -46.791  0.00  0.00     0.000 A 
ATOM     29  C   UNL d   1     -42.069-123.168 -46.689  0.00  0.00     0.002 A 
ATOM     30  C   UNL d   1     -42.542-122.994 -47.338  0.00  0.00     0.019 A 
ENDBRANCH   3  25
TORSDOF 5
ENDMDL
MODEL 2
REMARK VINA RESULT:      -0.6      0.495      1.101
REMARK  5 active torsions:
REMARK  status: ('A' for Active; 'I' for Inactive)
REMARK    1  A    between atoms: N_2  and  C_14 
REMARK    2  A    between atoms: C_17  and  N_4 
REMARK    3  A    between atoms: C_15  and  C_9 
REMARK    4  A    between atoms: C_14  and  O_16 
REMARK    5  A    between atoms: O_16  and  C_15 
ROOT
ATOM      1  C   UNL d   1     -42.462-122.480 -49.415  0.00  0.00     0.114 A 
ATOM      2  C   UNL d   1     -43.147-122.396 -49.866  0.00  0.00     0.044 A 
ATOM      3  N   UNL d   1     -42.685-122.728 -48.665  0.00  0.00    -0.224 N 
ATOM      4  N   UNL d   1     -43.501-122.799 -48.648  0.00  0.00    -0.165 NA
ATOM      5  S   UNL d   1     -41.830-122.286 -49.883  0.00  0.00    -0.062 SA
ATOM      6  C   UNL d   1     -42.107-122.079 -50.629  0.00  0.00     0.094 A 
ATOM      7  C   UNL d   1     -42.931-122.151 -50.609  0.00  0.00     0.015 A 
ATOM      8  C   UNL d   1     -43.792-122.596 -49.384  0.00  0.00     0.103 A 
ATOM      9  C   UNL d   1     -44.579-122.589 -49.612  0.00  0.00     0.022 C 
ENDROOT
BRANCH   6  10
ATOM     10  C   UNL d   1     -41.652-121.845 -51.271  0.00  0.00     0.307 C 
ATOM     11  O   UNL d   1     -41.151-121.189 -51.206  0.00  0.00    -0.258 OA
BRANCH  10  12
ATOM     12  O   UNL d   1     -41.693-122.263 -51.984  0.00  0.00    -0.252 OA
BRANCH  12  13
ATOM     13  C   UNL d   1     -41.416-121.916 -52.683  0.00  0.00     0.216 C 
BRANCH  13  14
ATOM     14  N   UNL d   1     -41.596-122.259 -53.413  0.00  0.00    -0.218 N 
ATOM     15  C   UNL d   1     -41.924-121.873 -54.057  0.00  0.00     0.269 A 
ATOM     16  C   UNL d   1     -42.011-122.421 -54.671  0.00  0.00     0.061 A 
ATOM     17  O   UNL d   1     -42.134-121.072 -54.094  0.00  0.00    -0.267 OA
ATOM     18  C   UNL d   1     -42.304-122.358 -55.438  0.00  0.00     0.005 A 
ATOM     19  C   UNL d   1     -41.732-123.150 -54.397  0.00  0.00     0.061 A 
ATOM     20  C   UNL d   1     -42.321-123.013 -55.929  0.00  0.00     0.000 A 
ATOM     21  C   UNL d   1     -42.042-123.742 -55.655  0.00  0.00     0.000 A 
ATOM     22  C   UNL d   1     -41.747-123.815 -54.890  0.00  0.00     0.005 A 
ATOM     23  C   UNL d   1     -41.472-123.054 -53.613  0.00  0.00     0.269 A 
ATOM     24  O   UNL d   1     -41.154-123.637 -53.129  0.00  0.00    -0.267 OA
ENDBRANCH  13  14
ENDBRANCH  12  13
ENDBRANCH  10  12
ENDBRANCH   6  10
BRANCH   3  25
ATOM     25  C   UNL d   1     -42.175-122.881 -48.035  0.00  0.00     0.083 A 
ATOM     26  C   UNL d   1     -42.107-123.646 -47.745  0.00  0.00     0.019 A 
ATOM     27  C   UNL d   1     -41.597-123.799 -47.115  0.00  0.00     0.002 A 
ATOM     28  C   UNL d   1     -41.155-123.186 -46.776  0.00  0.00     0.000 A 
ATOM     29  C   UNL d   1     -41.229-122.413 -47.074  0.00  0.00     0.002 A 
ATOM     30  C   UNL d   1     -41.736-122.258 -47.701  0.00  0.00     0.019 A 
ENDBRANCH   3  25
TORSDOF 5
ENDMDL
