MODEL 1
REMARK VINA RESULT:      -7.2      0.000      0.000
REMARK  5 active torsions:
REMARK  status: ('A' for Active; 'I' for Inactive)
REMARK    1  A    between atoms: C_12  and  C_3 
REMARK    2  A    between atoms: C_13  and  N_5 
REMARK    3  A    between atoms: C_11  and  C_6 
REMARK    4  A    between atoms: O_24  and  C_12 
REMARK    5  A    between atoms: C_14  and  C_13 
ROOT
ATOM      1  C   UNL d   1     -47.673  14.034  22.827  0.00  0.00     0.080 A 
ATOM      2  C   UNL d   1     -48.460  13.788  22.955  0.00  0.00     0.267 A 
ATOM      3  C   UNL d   1     -46.295  13.718  22.661  0.00  0.00     0.106 A 
ATOM      4  C   UNL d   1     -47.507  14.834  22.742  0.00  0.00     0.108 A 
ATOM      5  N   UNL d   1     -49.072  14.350  22.996  0.00  0.00    -0.271 N 
ATOM      6  C   UNL d   1     -47.066  13.476  22.786  0.00  0.00     0.015 A 
ATOM      7  C   UNL d   1     -46.123  14.524  22.575  0.00  0.00     0.208 A 
ATOM      8  O   UNL d   1     -46.729  15.083  22.615  0.00  0.00    -0.288 OA
ATOM      9  C   UNL d   1     -48.107  15.399  22.782  0.00  0.00     0.043 A 
ATOM     10  C   UNL d   1     -48.889  15.163  22.908  0.00  0.00     0.069 A 
ATOM     11  O   UNL d   1     -48.635  12.977  23.042  0.00  0.00    -0.267 OA
ATOM     12  N   UNL d   1     -45.343  14.768  22.448  0.00  0.00    -0.121 N 
ATOM     13  C   UNL d   1     -49.499  15.732  22.948  0.00  0.00     0.019 C 
ENDROOT
BRANCH   6  14
ATOM     14  C   UNL d   1     -47.240  12.675  22.873  0.00  0.00     0.001 A 
ATOM     15  C   UNL d   1     -47.483  12.235  22.217  0.00  0.00     0.011 A 
ATOM     16  C   UNL d   1     -47.658  11.435  22.298  0.00  0.00     0.058 A 
ATOM     17 CL   UNL d   1     -47.901  11.000  21.637  0.00  0.00    -0.082 Cl
ATOM     18  C   UNL d   1     -47.590  11.071  23.042  0.00  0.00     0.011 A 
ATOM     19  C   UNL d   1     -47.348  11.510  23.697  0.00  0.00     0.001 A 
ATOM     20  C   UNL d   1     -47.173  12.313  23.612  0.00  0.00     0.000 A 
ENDBRANCH   6  14
BRANCH   3  21
ATOM     21  C   UNL d   1     -45.689  13.160  22.620  0.00  0.00     0.299 C 
ATOM     22  O   UNL d   1     -45.396  12.815  23.306  0.00  0.00    -0.259 OA
BRANCH  21  23
ATOM     23  O   UNL d   1     -45.372  12.945  21.887  0.00  0.00    -0.296 OA
ATOM     24  C   UNL d   1     -44.572  12.736  21.819  0.00  0.00     0.185 C 
ENDBRANCH  21  23
ENDBRANCH   3  21
BRANCH   5  25
ATOM     25  C   UNL d   1     -49.852  14.106  23.123  0.00  0.00     0.108 C 
BRANCH  25  26
ATOM     26  C   UNL d   1     -50.305  13.829  22.492  0.00  0.00     0.118 A 
ATOM     27  O   UNL d   1     -50.483  14.244  21.799  0.00  0.00    -0.304 OA
ATOM     28  C   UNL d   1     -50.949  13.761  21.319  0.00  0.00     0.123 A 
ATOM     29  C   UNL d   1     -51.061  13.046  21.715  0.00  0.00     0.029 A 
ATOM     30  C   UNL d   1     -50.663  13.084  22.443  0.00  0.00     0.028 A 
ENDBRANCH  25  26
ENDBRANCH   5  25
TORSDOF 5
ENDMDL
MODEL 2
REMARK VINA RESULT:      -7.1      1.518      4.384
REMARK  5 active torsions:
REMARK  status: ('A' for Active; 'I' for Inactive)
REMARK    1  A    between atoms: C_12  and  C_3 
REMARK    2  A    between atoms: C_13  and  N_5 
REMARK    3  A    between atoms: C_11  and  C_6 
REMARK    4  A    between atoms: O_24  and  C_12 
REMARK    5  A    between atoms: C_14  and  C_13 
ROOT
ATOM      1  C   UNL d   1     -48.070  12.638  22.950  0.00  0.00     0.080 A 
ATOM      2  C   UNL d   1     -47.343  13.036  23.048  0.00  0.00     0.267 A 
ATOM      3  C   UNL d   1     -49.453  12.663  22.610  0.00  0.00     0.106 A 
ATOM      4  C   UNL d   1     -48.114  11.832  23.099  0.00  0.00     0.108 A 
ATOM      5  N   UNL d   1     -46.668  12.618  23.294  0.00  0.00    -0.271 N 
ATOM      6  C   UNL d   1     -48.740  13.053  22.705  0.00  0.00     0.015 A 
ATOM      7  C   UNL d   1     -49.501  11.849  22.759  0.00  0.00     0.208 A 
ATOM      8  O   UNL d   1     -48.832  11.433  23.004  0.00  0.00    -0.288 OA
ATOM      9  C   UNL d   1     -47.450  11.408  23.344  0.00  0.00     0.043 A 
ATOM     10  C   UNL d   1     -46.727  11.795  23.443  0.00  0.00     0.069 A 
ATOM     11  O   UNL d   1     -47.292  13.855  22.898  0.00  0.00    -0.267 OA
ATOM     12  N   UNL d   1     -50.222  11.455  22.662  0.00  0.00    -0.121 N 
ATOM     13  C   UNL d   1     -46.052  11.369  23.691  0.00  0.00     0.019 C 
ENDROOT
BRANCH   6  14
ATOM     14  C   UNL d   1     -48.688  13.863  22.558  0.00  0.00     0.001 A 
ATOM     15  C   UNL d   1     -48.940  14.402  23.131  0.00  0.00     0.011 A 
ATOM     16  C   UNL d   1     -48.890  15.210  22.988  0.00  0.00     0.058 A 
ATOM     17 CL   UNL d   1     -49.143  15.745  23.567  0.00  0.00    -0.082 Cl
ATOM     18  C   UNL d   1     -48.585  15.484  22.265  0.00  0.00     0.011 A 
ATOM     19  C   UNL d   1     -48.334  14.946  21.692  0.00  0.00     0.001 A 
ATOM     20  C   UNL d   1     -48.386  14.135  21.839  0.00  0.00     0.000 A 
ENDBRANCH   6  14
BRANCH   3  21
ATOM     21  C   UNL d   1     -50.121  13.078  22.365  0.00  0.00     0.299 C 
ATOM     22  O   UNL d   1     -50.620  13.426  22.918  0.00  0.00    -0.259 OA
BRANCH  21  23
ATOM     23  O   UNL d   1     -50.294  13.148  21.559  0.00  0.00    -0.296 OA
ATOM     24  C   UNL d   1     -51.064  13.329  21.307  0.00  0.00     0.185 C 
ENDBRANCH  21  23
ENDBRANCH   3  21
BRANCH   5  25
ATOM     25  C   UNL d   1     -45.948  13.012  23.391  0.00  0.00     0.108 C 
BRANCH  25  26
ATOM     26  C   UNL d   1     -45.404  13.036  22.772  0.00  0.00     0.118 A 
ATOM     27  O   UNL d   1     -45.233  13.692  22.298  0.00  0.00    -0.304 OA
ATOM     28  C   UNL d   1     -44.658  13.473  21.748  0.00  0.00     0.123 A 
ATOM     29  C   UNL d   1     -44.471  12.681  21.881  0.00  0.00     0.029 A 
ATOM     30  C   UNL d   1     -44.932  12.405  22.515  0.00  0.00     0.028 A 
ENDBRANCH  25  26
ENDBRANCH   5  25
TORSDOF 5
ENDMDL
MODEL 3
REMARK VINA RESULT:      -6.0      1.188      3.722
REMARK  5 active torsions:
REMARK  status: ('A' for Active; 'I' for Inactive)
REMARK    1  A    between atoms: C_12  and  C_3 
REMARK    2  A    between atoms: C_13  and  N_5 
REMARK    3  A    between atoms: C_11  and  C_6 
REMARK    4  A    between atoms: O_24  and  C_12 
REMARK    5  A    between atoms: C_14  and  C_13 
ROOT
ATOM      1  C   UNL d   1     -47.950  14.004  22.646  0.00  0.00     0.080 A 
ATOM      2  C   UNL d   1     -47.351  13.443  22.802  0.00  0.00     0.267 A 
ATOM      3  C   UNL d   1     -49.297  14.301  22.294  0.00  0.00     0.106 A 
ATOM      4  C   UNL d   1     -47.777  14.805  22.691  0.00  0.00     0.108 A 
ATOM      5  N   UNL d   1     -46.585  13.697  23.002  0.00  0.00    -0.271 N 
ATOM      6  C   UNL d   1     -48.711  13.752  22.447  0.00  0.00     0.015 A 
ATOM      7  C   UNL d   1     -49.127  15.111  22.339  0.00  0.00     0.208 A 
ATOM      8  O   UNL d   1     -48.367  15.363  22.537  0.00  0.00    -0.288 OA
ATOM      9  C   UNL d   1     -47.020  15.066  22.889  0.00  0.00     0.043 A 
ATOM     10  C   UNL d   1     -46.422  14.518  23.045  0.00  0.00     0.069 A 
ATOM     11  O   UNL d   1     -47.520  12.628  22.758  0.00  0.00    -0.267 OA
ATOM     12  N   UNL d   1     -49.720  15.666  22.184  0.00  0.00    -0.121 N 
ATOM     13  C   UNL d   1     -45.654  14.778  23.246  0.00  0.00     0.019 C 
ENDROOT
BRANCH   6  14
ATOM     14  C   UNL d   1     -48.876  12.945  22.404  0.00  0.00     0.001 A 
ATOM     15  C   UNL d   1     -49.171  12.551  23.067  0.00  0.00     0.011 A 
ATOM     16  C   UNL d   1     -49.338  11.746  23.029  0.00  0.00     0.058 A 
ATOM     17 CL   UNL d   1     -49.633  11.356  23.697  0.00  0.00    -0.082 Cl
ATOM     18  C   UNL d   1     -49.209  11.331  22.320  0.00  0.00     0.011 A 
ATOM     19  C   UNL d   1     -48.915  11.725  21.657  0.00  0.00     0.001 A 
ATOM     20  C   UNL d   1     -48.748  12.533  21.700  0.00  0.00     0.000 A 
ENDBRANCH   6  14
BRANCH   3  21
ATOM     21  C   UNL d   1     -50.057  14.049  22.096  0.00  0.00     0.299 C 
ATOM     22  O   UNL d   1     -50.606  13.882  22.684  0.00  0.00    -0.259 OA
BRANCH  21  23
ATOM     23  O   UNL d   1     -50.270  13.963  21.302  0.00  0.00    -0.296 OA
ATOM     24  C   UNL d   1     -51.064  14.031  21.069  0.00  0.00     0.185 C 
ENDBRANCH  21  23
ENDBRANCH   3  21
BRANCH   5  25
ATOM     25  C   UNL d   1     -45.992  13.142  23.157  0.00  0.00     0.108 C 
BRANCH  25  26
ATOM     26  C   UNL d   1     -45.433  12.962  22.578  0.00  0.00     0.118 A 
ATOM     27  O   UNL d   1     -45.304  13.382  21.877  0.00  0.00    -0.304 OA
ATOM     28  C   UNL d   1     -44.696  13.013  21.460  0.00  0.00     0.123 A 
ATOM     29  C   UNL d   1     -44.446  12.363  21.903  0.00  0.00     0.029 A 
ATOM     30  C   UNL d   1     -44.901  12.328  22.597  0.00  0.00     0.028 A 
ENDBRANCH  25  26
ENDBRANCH   5  25
TORSDOF 5
ENDMDL
MODEL 4
REMARK VINA RESULT:      -5.6      1.604      2.600
REMARK  5 active torsions:
REMARK  status: ('A' for Active; 'I' for Inactive)
REMARK    1  A    between atoms: C_12  and  C_3 
REMARK    2  A    between atoms: C_13  and  N_5 
REMARK    3  A    between atoms: C_11  and  C_6 
REMARK    4  A    between atoms: O_24  and  C_12 
REMARK    5  A    between atoms: C_14  and  C_13 
ROOT
ATOM      1  C   UNL d   1     -48.207  12.368  23.211  0.00  0.00     0.080 A 
ATOM      2  C   UNL d   1     -48.883  12.829  23.048  0.00  0.00     0.267 A 
ATOM      3  C   UNL d   1     -46.791  12.214  23.211  0.00  0.00     0.106 A 
ATOM      4  C   UNL d   1     -48.296  11.617  23.530  0.00  0.00     0.108 A 
ATOM      5  N   UNL d   1     -49.641  12.529  23.208  0.00  0.00    -0.271 N 
ATOM      6  C   UNL d   1     -47.454  12.666  23.051  0.00  0.00     0.015 A 
ATOM      7  C   UNL d   1     -46.877  11.455  23.533  0.00  0.00     0.208 A 
ATOM      8  O   UNL d   1     -47.629  11.156  23.693  0.00  0.00    -0.288 OA
ATOM      9  C   UNL d   1     -49.044  11.310  23.693  0.00  0.00     0.043 A 
ATOM     10  C   UNL d   1     -49.718  11.760  23.534  0.00  0.00     0.069 A 
ATOM     11  O   UNL d   1     -48.799  13.593  22.723  0.00  0.00    -0.267 OA
ATOM     12  N   UNL d   1     -46.206  10.998  23.695  0.00  0.00    -0.121 N 
ATOM     13  C   UNL d   1     -50.478  11.453  23.698  0.00  0.00     0.019 C 
ENDROOT
BRANCH   6  14
ATOM     14  C   UNL d   1     -47.373  13.421  22.731  0.00  0.00     0.001 A 
ATOM     15  C   UNL d   1     -47.352  14.079  23.230  0.00  0.00     0.011 A 
ATOM     16  C   UNL d   1     -47.271  14.835  22.914  0.00  0.00     0.058 A 
ATOM     17 CL   UNL d   1     -47.251  15.490  23.420  0.00  0.00    -0.082 Cl
ATOM     18  C   UNL d   1     -47.210  14.934  22.092  0.00  0.00     0.011 A 
ATOM     19  C   UNL d   1     -47.230  14.277  21.592  0.00  0.00     0.001 A 
ATOM     20  C   UNL d   1     -47.312  13.520  21.913  0.00  0.00     0.000 A 
ENDBRANCH   6  14
BRANCH   3  21
ATOM     21  C   UNL d   1     -46.040  12.512  23.052  0.00  0.00     0.299 C 
ATOM     22  O   UNL d   1     -45.664  13.003  23.593  0.00  0.00    -0.259 OA
BRANCH  21  23
ATOM     23  O   UNL d   1     -45.658  12.319  22.344  0.00  0.00    -0.296 OA
ATOM     24  C   UNL d   1     -44.829  12.293  22.304  0.00  0.00     0.185 C 
ENDBRANCH  21  23
ENDBRANCH   3  21
BRANCH   5  25
ATOM     25  C   UNL d   1     -50.312  12.985  23.047  0.00  0.00     0.108 C 
BRANCH  25  26
ATOM     26  C   UNL d   1     -50.578  13.068  22.270  0.00  0.00     0.118 A 
ATOM     27  O   UNL d   1     -50.616  12.468  21.701  0.00  0.00    -0.304 OA
ATOM     28  C   UNL d   1     -50.915  12.791  21.004  0.00  0.00     0.123 A 
ATOM     29  C   UNL d   1     -51.064  13.590  21.139  0.00  0.00     0.029 A 
ATOM     30  C   UNL d   1     -50.856  13.767  21.924  0.00  0.00     0.028 A 
ENDBRANCH  25  26
ENDBRANCH   5  25
TORSDOF 5
ENDMDL
MODEL 5
REMARK VINA RESULT:      -4.2      7.194      9.126
REMARK  5 active torsions:
REMARK  status: ('A' for Active; 'I' for Inactive)
REMARK    1  A    between atoms: C_12  and  C_3 
REMARK    2  A    between atoms: C_13  and  N_5 
REMARK    3  A    between atoms: C_11  and  C_6 
REMARK    4  A    between atoms: O_24  and  C_12 
REMARK    5  A    between atoms: C_14  and  C_13 
ROOT
ATOM      1  C   UNL d   1     -39.188  15.114  20.067  0.00  0.00     0.080 A 
ATOM      2  C   UNL d   1     -39.608  15.422  19.415  0.00  0.00     0.267 A 
ATOM      3  C   UNL d   1     -39.175  14.619  21.402  0.00  0.00     0.106 A 
ATOM      4  C   UNL d   1     -38.376  15.003  20.010  0.00  0.00     0.108 A 
ATOM      5  N   UNL d   1     -39.206  15.616  18.714  0.00  0.00    -0.271 N 
ATOM      6  C   UNL d   1     -39.587  14.921  20.763  0.00  0.00     0.015 A 
ATOM      7  C   UNL d   1     -38.356  14.506  21.349  0.00  0.00     0.208 A 
ATOM      8  O   UNL d   1     -37.956  14.697  20.654  0.00  0.00    -0.288 OA
ATOM      9  C   UNL d   1     -37.968  15.192  19.319  0.00  0.00     0.043 A 
ATOM     10  C   UNL d   1     -38.377  15.498  18.669  0.00  0.00     0.069 A 
ATOM     11  O   UNL d   1     -40.432  15.537  19.466  0.00  0.00    -0.267 OA
ATOM     12  N   UNL d   1     -37.940  14.200  21.995  0.00  0.00    -0.121 N 
ATOM     13  C   UNL d   1     -37.967  15.691  17.967  0.00  0.00     0.019 C 
ENDROOT
BRANCH   6  14
ATOM     14  C   UNL d   1     -40.402  15.035  20.812  0.00  0.00     0.001 A 
ATOM     15  C   UNL d   1     -40.915  14.415  20.628  0.00  0.00     0.011 A 
ATOM     16  C   UNL d   1     -41.729  14.524  20.676  0.00  0.00     0.058 A 
ATOM     17 CL   UNL d   1     -42.238  13.897  20.490  0.00  0.00    -0.082 Cl
ATOM     18  C   UNL d   1     -42.034  15.261  20.910  0.00  0.00     0.011 A 
ATOM     19  C   UNL d   1     -41.522  15.881  21.093  0.00  0.00     0.001 A 
ATOM     20  C   UNL d   1     -40.705  15.768  21.045  0.00  0.00     0.000 A 
ENDBRANCH   6  14
BRANCH   3  21
ATOM     21  C   UNL d   1     -39.574  14.427  22.097  0.00  0.00     0.299 C 
ATOM     22  O   UNL d   1     -39.817  15.018  22.614  0.00  0.00    -0.259 OA
BRANCH  21  23
ATOM     23  O   UNL d   1     -39.733  13.636  22.279  0.00  0.00    -0.296 OA
ATOM     24  C   UNL d   1     -39.534  13.326  23.023  0.00  0.00     0.185 C 
ENDBRANCH  21  23
ENDBRANCH   3  21
BRANCH   5  25
ATOM     25  C   UNL d   1     -39.622  15.922  18.068  0.00  0.00     0.108 C 
BRANCH  25  26
ATOM     26  C   UNL d   1     -39.973  15.411  17.523  0.00  0.00     0.118 A 
ATOM     27  O   UNL d   1     -39.740  14.633  17.363  0.00  0.00    -0.304 OA
ATOM     28  C   UNL d   1     -40.240  14.326  16.784  0.00  0.00     0.123 A 
ATOM     29  C   UNL d   1     -40.784  14.913  16.583  0.00  0.00     0.029 A 
ATOM     30  C   UNL d   1     -40.621  15.588  17.040  0.00  0.00     0.028 A 
ENDBRANCH  25  26
ENDBRANCH   5  25
TORSDOF 5
ENDMDL
