MODEL 1
REMARK VINA RESULT:      39.9      0.000      0.000
REMARK  3 active torsions:
REMARK  status: ('A' for Active; 'I' for Inactive)
REMARK    1  A    between atoms: C_6  and  C_1 
REMARK    2  A    between atoms: C_5  and  N_2 
REMARK    3  A    between atoms: N_4  and  C_6 
ROOT
ATOM      1  N   UNL d   1      13.526  12.691  -3.176  0.00  0.00    -0.299 N 
ATOM      2  N   UNL d   1      13.888  12.854  -1.617  0.00  0.00    -0.300 N 
ATOM      3  C   UNL d   1      13.705  13.424  -2.879  0.00  0.00     0.100 A 
ATOM      4  C   UNL d   1      13.526  12.024  -2.691  0.00  0.00     0.100 A 
ATOM      5  C   UNL d   1      13.886  13.505  -2.100  0.00  0.00     0.100 A 
ATOM      6  C   UNL d   1      13.707  12.105  -1.912  0.00  0.00     0.100 A 
ENDROOT
BRANCH   2   7
ATOM      7  C   UNL d   1      14.075  12.923  -0.799  0.00  0.00     0.084 C 
BRANCH   7   8
ATOM      8  C   UNL d   1      14.846  13.152  -0.541  0.00  0.00     0.057 A 
ATOM      9  C   UNL d   1      14.976  13.932  -0.413  0.00  0.00     0.004 A 
ATOM     10  C   UNL d   1      15.761  14.176  -0.149  0.00  0.00     0.000 A 
ATOM     11  C   UNL d   1      14.389  14.500  -0.525  0.00  0.00     0.000 A 
ATOM     12  C   UNL d   1      15.908  14.975  -0.014  0.00  0.00     0.000 A 
ATOM     13  C   UNL d   1      16.334  13.622  -0.041  0.00  0.00     0.003 A 
ATOM     14  C   UNL d   1      15.291  15.510  -0.138  0.00  0.00     0.000 A 
ATOM     15  C   UNL d   1      14.583  15.315  -0.373  0.00  0.00     0.000 A 
ATOM     16  C   UNL d   1      16.152  12.796  -0.190  0.00  0.00     0.042 A 
ATOM     17  C   UNL d   1      15.444  12.602  -0.424  0.00  0.00     0.197 A 
ATOM     18  O   UNL d   1      15.293  11.779  -0.564  0.00  0.00    -0.286 OA
ENDBRANCH   7   8
ENDBRANCH   2   7
BRANCH   1  19
ATOM     19  C   UNL d   1      13.337  12.605  -3.992  0.00  0.00     0.092 A 
ATOM     20  C   UNL d   1      13.220  13.286  -4.450  0.00  0.00     0.156 A 
ATOM     21  F   UNL d   1      13.283  14.043  -4.130  0.00  0.00    -0.203 F 
ATOM     22  C   UNL d   1      13.029  13.200  -5.274  0.00  0.00     0.031 A 
ATOM     23  C   UNL d   1      12.966  12.438  -5.595  0.00  0.00     0.002 A 
ATOM     24  C   UNL d   1      13.082  11.779  -5.138  0.00  0.00     0.002 A 
ATOM     25  C   UNL d   1      13.273  11.865  -4.314  0.00  0.00     0.020 A 
ENDBRANCH   1  19
TORSDOF 3
ENDMDL
