MODEL 1
REMARK VINA RESULT:      15.9      0.000      0.000
REMARK  3 active torsions:
REMARK  status: ('A' for Active; 'I' for Inactive)
REMARK    1  A    between atoms: C_6  and  C_1 
REMARK    2  A    between atoms: C_2  and  C_8 
REMARK       I    between atoms: N_11  and  C_6 
REMARK    3  A    between atoms: C_12  and  N_11 
ROOT
ATOM      1  C   UNL d   1     -41.554-120.449 -53.299  0.00  0.00     0.054 A 
ATOM      2  C   UNL d   1     -41.479-120.386 -52.477  0.00  0.00     0.088 A 
ATOM      3  C   UNL d   1     -41.460-119.787 -53.786  0.00  0.00     0.005 A 
ATOM      4  C   UNL d   1     -41.306-119.644 -52.135  0.00  0.00     0.019 A 
ATOM      5  C   UNL d   1     -41.287-119.045 -53.444  0.00  0.00     0.000 A 
ATOM      6  C   UNL d   1     -41.215-119.003 -52.606  0.00  0.00     0.002 A 
ENDROOT
BRANCH   2   7
ATOM      7  N   UNL d   1     -41.573-121.049 -51.988  0.00  0.00    -0.207 NA
ATOM      8  C   UNL d   1     -41.640-120.966 -51.168  0.00  0.00     0.286 C 
ATOM      9  O   UNL d   1     -41.615-120.247 -50.820  0.00  0.00    -0.265 OA
BRANCH   8  10
ATOM     10  C   UNL d   1     -41.734-121.650 -50.690  0.00  0.00     0.098 A 
ATOM     11  S   UNL d   1     -41.137-122.029 -50.383  0.00  0.00    -0.081 SA
ATOM     12  C   UNL d   1     -41.450-122.672 -49.948  0.00  0.00     0.030 A 
ATOM     13  C   UNL d   1     -41.123-123.250 -49.518  0.00  0.00     0.006 A 
ATOM     14  C   UNL d   1     -42.271-122.642 -50.023  0.00  0.00     0.017 A 
ATOM     15  C   UNL d   1     -41.605-123.817 -49.148  0.00  0.00     0.001 A 
ATOM     16  C   UNL d   1     -42.417-123.804 -49.210  0.00  0.00     0.000 A 
ATOM     17  C   UNL d   1     -42.759-123.199 -49.661  0.00  0.00     0.001 A 
ATOM     18  C   UNL d   1     -42.448-121.986 -50.499  0.00  0.00     0.069 A 
ATOM     19 CL   UNL d   1     -43.178-121.715 -50.738  0.00  0.00    -0.082 Cl
ENDBRANCH   8  10
ENDBRANCH   2   7
BRANCH   1  20
ATOM     20  C   UNL d   1     -41.727-121.190 -53.640  0.00  0.00     0.164 A 
ATOM     21  N   UNL d   1     -42.400-121.505 -54.024  0.00  0.00    -0.225 NA
ATOM     22  C   UNL d   1     -42.209-122.266 -54.229  0.00  0.00     0.101 A 
ATOM     23  C   UNL d   1     -42.655-122.829 -54.613  0.00  0.00     0.021 A 
ATOM     24  C   UNL d   1     -41.478-122.439 -54.001  0.00  0.00     0.101 A 
ATOM     25  C   UNL d   1     -42.349-123.579 -54.767  0.00  0.00     0.002 A 
ATOM     26  C   UNL d   1     -41.613-123.755 -54.538  0.00  0.00     0.002 A 
ATOM     27  C   UNL d   1     -41.172-123.191 -54.155  0.00  0.00     0.021 A 
ATOM     28  N   UNL d   1     -41.154-121.787 -53.631  0.00  0.00    -0.225 NA
ENDBRANCH   1  20
TORSDOF 3
ENDMDL
