MODEL 1
REMARK VINA RESULT:      -1.9      0.000      0.000
REMARK  7 active torsions:
REMARK  status: ('A' for Active; 'I' for Inactive)
REMARK    1  A    between atoms: C_2  and  P_1 
REMARK    2  A    between atoms: O_3  and  P_1 
REMARK    3  A    between atoms: C_4  and  P_1 
REMARK    4  A    between atoms: C_12  and  C_2 
REMARK    5  A    between atoms: C_13  and  O_3 
REMARK    6  A    between atoms: N_7  and  C_6 
REMARK    7  A    between atoms: C_15  and  C_13 
ROOT
ATOM      1  P   UNL d   1      32.124  17.172 -24.073  0.00  0.00     0.307 P 
ATOM      2  O   UNL d   1      32.966  17.085 -23.908  0.00  0.00    -0.277 OA
ENDROOT
BRANCH   1   3
ATOM      3  C   UNL d   1      32.067  16.340 -24.268  0.00  0.00     0.253 C 
ATOM      4  O   UNL d   1      31.349  16.034 -24.535  0.00  0.00    -0.281 OA
BRANCH   3   5
ATOM      5  C   UNL d   1      32.722  15.846 -24.191  0.00  0.00     0.044 C 
ATOM      6  C   UNL d   1      32.860  15.455 -23.478  0.00  0.00     0.004 C 
ATOM      7  C   UNL d   1      33.236  15.743 -24.821  0.00  0.00     0.004 C 
ENDBRANCH   3   5
ENDBRANCH   1   3
BRANCH   1   8
ATOM      8  O   UNL d   1      32.204  17.995 -23.875  0.00  0.00    -0.279 OA
BRANCH   8   9
ATOM      9  C   UNL d   1      32.947  18.306 -23.591  0.00  0.00     0.124 C 
BRANCH   9  10
ATOM     10  C   UNL d   1      33.010  19.061 -23.278  0.00  0.00     0.025 A 
ATOM     11  C   UNL d   1      32.910  19.180 -22.468  0.00  0.00     0.002 A 
ATOM     12  C   UNL d   1      32.973  19.942 -22.145  0.00  0.00     0.000 A 
ATOM     13  C   UNL d   1      33.136  20.582 -22.638  0.00  0.00     0.000 A 
ATOM     14  C   UNL d   1      33.237  20.459 -23.453  0.00  0.00     0.000 A 
ATOM     15  C   UNL d   1      33.173  19.700 -23.770  0.00  0.00     0.002 A 
ENDBRANCH   9  10
ENDBRANCH   8   9
ENDBRANCH   1   8
BRANCH   1  16
ATOM     16  C   UNL d   1      31.292  17.292 -24.228  0.00  0.00     0.061 A 
ATOM     17  C   UNL d   1      30.751  17.145 -23.626  0.00  0.00     0.007 A 
ATOM     18  C   UNL d   1      29.949  17.254 -23.757  0.00  0.00     0.018 A 
ATOM     19  C   UNL d   1      29.684  17.513 -24.495  0.00  0.00     0.064 A 
ATOM     20  C   UNL d   1      30.226  17.661 -25.097  0.00  0.00     0.018 A 
ATOM     21  C   UNL d   1      31.032  17.550 -24.962  0.00  0.00     0.007 A 
BRANCH  19  22
ATOM     22  N   UNL d   1      28.841  17.625 -24.622  0.00  0.00    -0.301 N 
ATOM     23  C   UNL d   1      28.582  18.257 -25.093  0.00  0.00     0.100 C 
ATOM     24  C   UNL d   1      28.288  17.111 -24.281  0.00  0.00     0.100 C 
ENDBRANCH  19  22
ENDBRANCH   1  16
TORSDOF 7
ENDMDL
MODEL 2
REMARK VINA RESULT:      -1.2      1.248      3.675
REMARK  7 active torsions:
REMARK  status: ('A' for Active; 'I' for Inactive)
REMARK    1  A    between atoms: C_2  and  P_1 
REMARK    2  A    between atoms: O_3  and  P_1 
REMARK    3  A    between atoms: C_4  and  P_1 
REMARK    4  A    between atoms: C_12  and  C_2 
REMARK    5  A    between atoms: C_13  and  O_3 
REMARK    6  A    between atoms: N_7  and  C_6 
REMARK    7  A    between atoms: C_15  and  C_13 
ROOT
ATOM      1  P   UNL d   1      31.798  17.048 -24.290  0.00  0.00     0.307 P 
ATOM      2  O   UNL d   1      31.465  16.305 -24.572  0.00  0.00    -0.277 OA
ENDROOT
BRANCH   1   3
ATOM      3  C   UNL d   1      32.589  16.723 -24.336  0.00  0.00     0.253 C 
ATOM      4  O   UNL d   1      33.239  17.232 -24.340  0.00  0.00    -0.281 OA
BRANCH   3   5
ATOM      5  C   UNL d   1      32.705  15.908 -24.377  0.00  0.00     0.044 C 
ATOM      6  C   UNL d   1      32.615  15.516 -25.097  0.00  0.00     0.004 C 
ATOM      7  C   UNL d   1      32.908  15.488 -23.704  0.00  0.00     0.004 C 
ENDBRANCH   3   5
ENDBRANCH   1   3
BRANCH   1   8
ATOM      8  O   UNL d   1      31.004  17.350 -24.251  0.00  0.00    -0.279 OA
BRANCH   8   9
ATOM      9  C   UNL d   1      30.349  16.898 -24.560  0.00  0.00     0.124 C 
BRANCH   9  10
ATOM     10  C   UNL d   1      29.576  17.045 -24.332  0.00  0.00     0.025 A 
ATOM     11  C   UNL d   1      29.171  17.694 -24.640  0.00  0.00     0.002 A 
ATOM     12  C   UNL d   1      28.387  17.847 -24.413  0.00  0.00     0.000 A 
ATOM     13  C   UNL d   1      28.013  17.346 -23.876  0.00  0.00     0.000 A 
ATOM     14  C   UNL d   1      28.422  16.693 -23.567  0.00  0.00     0.000 A 
ATOM     15  C   UNL d   1      29.201  16.544 -23.795  0.00  0.00     0.002 A 
ENDBRANCH   9  10
ENDBRANCH   8   9
ENDBRANCH   1   8
BRANCH   1  16
ATOM     16  C   UNL d   1      32.096  17.798 -24.008  0.00  0.00     0.061 A 
ATOM     17  C   UNL d   1      32.405  17.841 -23.246  0.00  0.00     0.007 A 
ATOM     18  C   UNL d   1      32.696  18.552 -22.959  0.00  0.00     0.018 A 
ATOM     19  C   UNL d   1      32.676  19.226 -23.435  0.00  0.00     0.064 A 
ATOM     20  C   UNL d   1      32.366  19.184 -24.196  0.00  0.00     0.018 A 
ATOM     21  C   UNL d   1      32.075  18.466 -24.482  0.00  0.00     0.007 A 
BRANCH  19  22
ATOM     22  N   UNL d   1      32.983  19.967 -23.125  0.00  0.00    -0.301 N 
ATOM     23  C   UNL d   1      33.020  20.080 -22.304  0.00  0.00     0.100 C 
ATOM     24  C   UNL d   1      33.241  20.568 -23.635  0.00  0.00     0.100 C 
ENDBRANCH  19  22
ENDBRANCH   1  16
TORSDOF 7
ENDMDL
