MODEL 1
REMARK VINA RESULT:      -6.7      0.000      0.000
REMARK  1 active torsions:
REMARK  status: ('A' for Active; 'I' for Inactive)
REMARK    1  A    between atoms: C_11  and  C_9 
ROOT
ATOM      1  C   UNL d   1     -46.418  11.821  23.489  0.00  0.00     0.215 A 
ATOM      2  N   UNL d   1     -46.018  12.527  23.374  0.00  0.00    -0.219 NA
ATOM      3  S   UNL d   1     -47.217  11.952  23.362  0.00  0.00    -0.045 SA
ATOM      4  C   UNL d   1     -47.314  12.753  23.165  0.00  0.00     0.050 A 
ATOM      5  C   UNL d   1     -46.574  13.107  23.173  0.00  0.00     0.090 A 
ATOM      6  C   UNL d   1     -47.986  13.194  22.982  0.00  0.00     0.008 A 
ATOM      7  N   UNL d   1     -46.073  11.096  23.698  0.00  0.00    -0.120 N 
ATOM      8  C   UNL d   1     -46.494  13.910  22.998  0.00  0.00     0.020 A 
ATOM      9  C   UNL d   1     -47.900  13.983  22.811  0.00  0.00     0.001 A 
ATOM     10  C   UNL d   1     -47.156  14.339  22.819  0.00  0.00     0.002 A 
ENDROOT
BRANCH   9  11
ATOM     11  C   UNL d   1     -48.570  14.431  22.626  0.00  0.00     0.000 C 
ATOM     12  C   UNL d   1     -48.530  15.250  22.642  0.00  0.00     0.000 C 
ENDBRANCH   9  11
TORSDOF 1
ENDMDL
MODEL 2
REMARK VINA RESULT:      -6.5      1.798      2.513
REMARK  1 active torsions:
REMARK  status: ('A' for Active; 'I' for Inactive)
REMARK    1  A    between atoms: C_11  and  C_9 
ROOT
ATOM      1  C   UNL d   1     -49.457  11.796  23.485  0.00  0.00     0.215 A 
ATOM      2  N   UNL d   1     -48.803  11.350  23.698  0.00  0.00    -0.219 NA
ATOM      3  S   UNL d   1     -49.196  12.522  23.206  0.00  0.00    -0.045 SA
ATOM      4  C   UNL d   1     -48.367  12.525  23.246  0.00  0.00     0.050 A 
ATOM      5  C   UNL d   1     -48.125  11.803  23.550  0.00  0.00     0.090 A 
ATOM      6  C   UNL d   1     -47.811  13.100  23.043  0.00  0.00     0.008 A 
ATOM      7  N   UNL d   1     -50.249  11.555  23.543  0.00  0.00    -0.120 N 
ATOM      8  C   UNL d   1     -47.322  11.642  23.655  0.00  0.00     0.020 A 
ATOM      9  C   UNL d   1     -47.024  12.935  23.149  0.00  0.00     0.001 A 
ATOM     10  C   UNL d   1     -46.780  12.208  23.454  0.00  0.00     0.002 A 
ENDROOT
BRANCH   9  11
ATOM     11  C   UNL d   1     -46.461  13.506  22.947  0.00  0.00     0.000 C 
ATOM     12  C   UNL d   1     -45.820  13.301  22.479  0.00  0.00     0.000 C 
ENDBRANCH   9  11
TORSDOF 1
ENDMDL
MODEL 3
REMARK VINA RESULT:      -6.3      1.673      2.835
REMARK  1 active torsions:
REMARK  status: ('A' for Active; 'I' for Inactive)
REMARK    1  A    between atoms: C_11  and  C_9 
ROOT
ATOM      1  C   UNL d   1     -48.439  14.670  22.552  0.00  0.00     0.215 A 
ATOM      2  N   UNL d   1     -47.621  14.677  22.608  0.00  0.00    -0.219 NA
ATOM      3  S   UNL d   1     -48.709  13.931  22.782  0.00  0.00    -0.045 SA
ATOM      4  C   UNL d   1     -48.048  13.472  22.984  0.00  0.00     0.050 A 
ATOM      5  C   UNL d   1     -47.377  13.932  22.877  0.00  0.00     0.090 A 
ATOM      6  C   UNL d   1     -47.982  12.695  23.251  0.00  0.00     0.008 A 
ATOM      7  N   UNL d   1     -48.913  15.305  22.303  0.00  0.00    -0.120 N 
ATOM      8  C   UNL d   1     -46.628  13.622  23.036  0.00  0.00     0.020 A 
ATOM      9  C   UNL d   1     -47.243  12.396  23.405  0.00  0.00     0.001 A 
ATOM     10  C   UNL d   1     -46.569  12.859  23.298  0.00  0.00     0.002 A 
ENDROOT
BRANCH   9  11
ATOM     11  C   UNL d   1     -47.171  11.617  23.673  0.00  0.00     0.000 C 
ATOM     12  C   UNL d   1     -46.432  11.261  23.698  0.00  0.00     0.000 C 
ENDBRANCH   9  11
TORSDOF 1
ENDMDL
MODEL 4
REMARK VINA RESULT:      -6.3      1.420      2.256
REMARK  1 active torsions:
REMARK  status: ('A' for Active; 'I' for Inactive)
REMARK    1  A    between atoms: C_11  and  C_9 
ROOT
ATOM      1  C   UNL d   1     -46.453  13.262  22.869  0.00  0.00     0.215 A 
ATOM      2  N   UNL d   1     -46.465  12.585  23.332  0.00  0.00    -0.219 NA
ATOM      3  S   UNL d   1     -47.209  13.392  22.580  0.00  0.00    -0.045 SA
ATOM      4  C   UNL d   1     -47.697  12.786  22.868  0.00  0.00     0.050 A 
ATOM      5  C   UNL d   1     -47.239  12.289  23.332  0.00  0.00     0.090 A 
ATOM      6  C   UNL d   1     -48.501  12.633  22.761  0.00  0.00     0.008 A 
ATOM      7  N   UNL d   1     -45.788  13.735  22.719  0.00  0.00    -0.120 N 
ATOM      8  C   UNL d   1     -47.576  11.629  23.697  0.00  0.00     0.020 A 
ATOM      9  C   UNL d   1     -48.826  11.983  23.123  0.00  0.00     0.001 A 
ATOM     10  C   UNL d   1     -48.364  11.483  23.589  0.00  0.00     0.002 A 
ENDROOT
BRANCH   9  11
ATOM     11  C   UNL d   1     -49.630  11.824  23.019  0.00  0.00     0.000 C 
ATOM     12  C   UNL d   1     -50.127  11.789  23.671  0.00  0.00     0.000 C 
ENDBRANCH   9  11
TORSDOF 1
ENDMDL
MODEL 5
REMARK VINA RESULT:      -6.1      2.194      3.131
REMARK  1 active torsions:
REMARK  status: ('A' for Active; 'I' for Inactive)
REMARK    1  A    between atoms: C_11  and  C_9 
ROOT
ATOM      1  C   UNL d   1     -49.599  14.784  22.685  0.00  0.00     0.215 A 
ATOM      2  N   UNL d   1     -49.500  13.992  22.868  0.00  0.00    -0.219 NA
ATOM      3  S   UNL d   1     -48.859  15.123  22.588  0.00  0.00    -0.045 SA
ATOM      4  C   UNL d   1     -48.291  14.530  22.713  0.00  0.00     0.050 A 
ATOM      5  C   UNL d   1     -48.687  13.832  22.885  0.00  0.00     0.090 A 
ATOM      6  C   UNL d   1     -47.467  14.547  22.688  0.00  0.00     0.008 A 
ATOM      7  N   UNL d   1     -50.326  15.178  22.611  0.00  0.00    -0.120 N 
ATOM      8  C   UNL d   1     -48.265  13.139  23.037  0.00  0.00     0.020 A 
ATOM      9  C   UNL d   1     -47.058  13.862  22.838  0.00  0.00     0.001 A 
ATOM     10  C   UNL d   1     -47.456  13.160  23.012  0.00  0.00     0.002 A 
ENDROOT
BRANCH   9  11
ATOM     11  C   UNL d   1     -46.232  13.872  22.816  0.00  0.00     0.000 C 
ATOM     12  C   UNL d   1     -45.831  13.374  22.302  0.00  0.00     0.000 C 
ENDBRANCH   9  11
TORSDOF 1
ENDMDL
MODEL 6
REMARK VINA RESULT:      -6.0      0.699      1.014
REMARK  1 active torsions:
REMARK  status: ('A' for Active; 'I' for Inactive)
REMARK    1  A    between atoms: C_11  and  C_9 
ROOT
ATOM      1  C   UNL d   1     -46.694  12.739  23.169  0.00  0.00     0.215 A 
ATOM      2  N   UNL d   1     -46.433  13.504  23.032  0.00  0.00    -0.219 NA
ATOM      3  S   UNL d   1     -47.511  12.728  23.107  0.00  0.00    -0.045 SA
ATOM      4  C   UNL d   1     -47.761  13.499  22.930  0.00  0.00     0.050 A 
ATOM      5  C   UNL d   1     -47.096  13.977  22.883  0.00  0.00     0.090 A 
ATOM      6  C   UNL d   1     -48.512  13.817  22.806  0.00  0.00     0.008 A 
ATOM      7  N   UNL d   1     -46.212  12.085  23.340  0.00  0.00    -0.120 N 
ATOM      8  C   UNL d   1     -47.171  14.781  22.712  0.00  0.00     0.020 A 
ATOM      9  C   UNL d   1     -48.578  14.608  22.638  0.00  0.00     0.001 A 
ATOM     10  C   UNL d   1     -47.910  15.089  22.591  0.00  0.00     0.002 A 
ENDROOT
BRANCH   9  11
ATOM     11  C   UNL d   1     -49.329  14.932  22.513  0.00  0.00     0.000 C 
ATOM     12  C   UNL d   1     -49.611  15.514  23.017  0.00  0.00     0.000 C 
ENDBRANCH   9  11
TORSDOF 1
ENDMDL
MODEL 7
REMARK VINA RESULT:      -5.8      2.314      3.346
REMARK  1 active torsions:
REMARK  status: ('A' for Active; 'I' for Inactive)
REMARK    1  A    between atoms: C_11  and  C_9 
ROOT
ATOM      1  C   UNL d   1     -49.906  12.930  21.973  0.00  0.00     0.215 A 
ATOM      2  N   UNL d   1     -49.997  12.274  22.455  0.00  0.00    -0.219 NA
ATOM      3  S   UNL d   1     -49.132  13.192  22.033  0.00  0.00    -0.045 SA
ATOM      4  C   UNL d   1     -48.736  12.689  22.561  0.00  0.00     0.050 A 
ATOM      5  C   UNL d   1     -49.269  12.123  22.822  0.00  0.00     0.090 A 
ATOM      6  C   UNL d   1     -47.956  12.684  22.832  0.00  0.00     0.008 A 
ATOM      7  N   UNL d   1     -50.498  13.273  21.502  0.00  0.00    -0.120 N 
ATOM      8  C   UNL d   1     -49.033  11.542  23.357  0.00  0.00     0.020 A 
ATOM      9  C   UNL d   1     -47.731  12.109  23.359  0.00  0.00     0.001 A 
ATOM     10  C   UNL d   1     -48.268  11.540  23.621  0.00  0.00     0.002 A 
ENDROOT
BRANCH   9  11
ATOM     11  C   UNL d   1     -46.951  12.098  23.634  0.00  0.00     0.000 C 
ATOM     12  C   UNL d   1     -46.551  11.385  23.698  0.00  0.00     0.000 C 
ENDBRANCH   9  11
TORSDOF 1
ENDMDL
MODEL 8
REMARK VINA RESULT:      -5.8      1.549      2.211
REMARK  1 active torsions:
REMARK  status: ('A' for Active; 'I' for Inactive)
REMARK    1  A    between atoms: C_11  and  C_9 
ROOT
ATOM      1  C   UNL d   1     -46.869  13.800  22.903  0.00  0.00     0.215 A 
ATOM      2  N   UNL d   1     -47.397  14.426  22.864  0.00  0.00    -0.219 NA
ATOM      3  S   UNL d   1     -47.223  13.141  22.568  0.00  0.00    -0.045 SA
ATOM      4  C   UNL d   1     -47.983  13.363  22.317  0.00  0.00     0.050 A 
ATOM      5  C   UNL d   1     -48.090  14.155  22.500  0.00  0.00     0.090 A 
ATOM      6  C   UNL d   1     -48.584  12.936  21.947  0.00  0.00     0.008 A 
ATOM      7  N   UNL d   1     -46.106  13.828  23.227  0.00  0.00    -0.120 N 
ATOM      8  C   UNL d   1     -48.799  14.535  22.315  0.00  0.00     0.020 A 
ATOM      9  C   UNL d   1     -49.278  13.315  21.768  0.00  0.00     0.001 A 
ATOM     10  C   UNL d   1     -49.386  14.112  21.951  0.00  0.00     0.002 A 
ENDROOT
BRANCH   9  11
ATOM     11  C   UNL d   1     -49.884  12.892  21.396  0.00  0.00     0.000 C 
ATOM     12  C   UNL d   1     -50.642  12.904  21.709  0.00  0.00     0.000 C 
ENDBRANCH   9  11
TORSDOF 1
ENDMDL
MODEL 9
REMARK VINA RESULT:      -4.8      9.292     10.082
REMARK  1 active torsions:
REMARK  status: ('A' for Active; 'I' for Inactive)
REMARK    1  A    between atoms: C_11  and  C_9 
ROOT
ATOM      1  C   UNL d   1     -40.643  15.366  17.153  0.00  0.00     0.215 A 
ATOM      2  N   UNL d   1     -40.031  15.297  16.612  0.00  0.00    -0.219 NA
ATOM      3  S   UNL d   1     -40.543  14.795  17.732  0.00  0.00    -0.045 SA
ATOM      4  C   UNL d   1     -39.858  14.365  17.548  0.00  0.00     0.050 A 
ATOM      5  C   UNL d   1     -39.542  14.675  16.857  0.00  0.00     0.090 A 
ATOM      6  C   UNL d   1     -39.489  13.733  17.928  0.00  0.00     0.008 A 
ATOM      7  N   UNL d   1     -41.260  15.920  17.119  0.00  0.00    -0.120 N 
ATOM      8  C   UNL d   1     -38.851  14.357  16.534  0.00  0.00     0.020 A 
ATOM      9  C   UNL d   1     -38.811  13.425  17.606  0.00  0.00     0.001 A 
ATOM     10  C   UNL d   1     -38.493  13.737  16.911  0.00  0.00     0.002 A 
ENDROOT
BRANCH   9  11
ATOM     11  C   UNL d   1     -38.436  12.791  17.982  0.00  0.00     0.000 C 
ATOM     12  C   UNL d   1     -38.162  12.158  17.539  0.00  0.00     0.000 C 
ENDBRANCH   9  11
TORSDOF 1
ENDMDL
