MODEL 1
REMARK VINA RESULT:      -4.8      0.000      0.000
REMARK  3 active torsions:
REMARK  status: ('A' for Active; 'I' for Inactive)
REMARK    1  A    between atoms: C_2  and  S_1 
REMARK    2  A    between atoms: N_3  and  S_1 
REMARK    3  A    between atoms: C_4  and  N_3 
ROOT
ATOM      1  C   UNL d   1     -41.772-122.374 -53.033  0.00  0.00     0.094 A 
ATOM      2  C   UNL d   1     -41.925-122.128 -53.808  0.00  0.00     0.021 A 
ATOM      3  C   UNL d   1     -41.713-122.595 -54.410  0.00  0.00     0.040 A 
ATOM      4  C   UNL d   1     -41.344-123.318 -54.266  0.00  0.00     0.196 A 
ATOM      5  C   UNL d   1     -41.408-123.087 -52.889  0.00  0.00     0.023 A 
ATOM      6  C   UNL d   1     -41.191-123.564 -53.489  0.00  0.00     0.044 A 
ATOM      7  O   UNL d   1     -41.130-123.796 -54.932  0.00  0.00    -0.287 OA
ATOM      8  C   UNL d   1     -42.294-121.404 -53.954  0.00  0.00     0.002 A 
ATOM      9  C   UNL d   1     -41.867-122.349 -55.222  0.00  0.00     0.003 A 
ATOM     10  C   UNL d   1     -42.231-121.637 -55.367  0.00  0.00     0.000 A 
ATOM     11  C   UNL d   1     -42.447-121.158 -54.735  0.00  0.00     0.000 A 
ENDROOT
BRANCH   1  12
ATOM     12  N   UNL d   1     -41.987-121.896 -52.389  0.00  0.00    -0.158 NA
BRANCH  12  13
ATOM     13  S   UNL d   1     -41.894-122.169 -51.613  0.00  0.00     0.291 S 
ATOM     14  O   UNL d   1     -41.124-121.849 -51.591  0.00  0.00    -0.198 OA
ATOM     15  O   UNL d   1     -42.636-122.482 -51.625  0.00  0.00    -0.198 OA
BRANCH  13  16
ATOM     16  C   UNL d   1     -41.828-122.450 -50.848  0.00  0.00     0.135 A 
ATOM     17  S   UNL d   1     -42.431-122.734 -50.414  0.00  0.00    -0.073 SA
ATOM     18  C   UNL d   1     -42.163-122.970 -49.663  0.00  0.00     0.036 A 
ATOM     19  C   UNL d   1     -41.370-122.826 -49.637  0.00  0.00     0.008 A 
ATOM     20  C   UNL d   1     -41.136-122.501 -50.365  0.00  0.00     0.020 A 
ENDBRANCH  13  16
ENDBRANCH  12  13
ENDBRANCH   1  12
TORSDOF 3
ENDMDL
MODEL 2
REMARK VINA RESULT:      -4.0      1.353      3.957
REMARK  3 active torsions:
REMARK  status: ('A' for Active; 'I' for Inactive)
REMARK    1  A    between atoms: C_2  and  S_1 
REMARK    2  A    between atoms: N_3  and  S_1 
REMARK    3  A    between atoms: C_4  and  N_3 
ROOT
ATOM      1  C   UNL d   1     -41.622-122.541 -52.367  0.00  0.00     0.094 A 
ATOM      2  C   UNL d   1     -41.732-122.799 -51.588  0.00  0.00     0.021 A 
ATOM      3  C   UNL d   1     -41.568-122.306 -50.992  0.00  0.00     0.040 A 
ATOM      4  C   UNL d   1     -41.290-121.545 -51.145  0.00  0.00     0.196 A 
ATOM      5  C   UNL d   1     -41.348-121.791 -52.520  0.00  0.00     0.023 A 
ATOM      6  C   UNL d   1     -41.179-121.287 -51.925  0.00  0.00     0.044 A 
ATOM      7  O   UNL d   1     -41.123-121.041 -50.484  0.00  0.00    -0.287 OA
ATOM      8  C   UNL d   1     -42.011-123.560 -51.434  0.00  0.00     0.002 A 
ATOM      9  C   UNL d   1     -41.679-122.564 -50.177  0.00  0.00     0.003 A 
ATOM     10  C   UNL d   1     -41.953-123.313 -50.023  0.00  0.00     0.000 A 
ATOM     11  C   UNL d   1     -42.121-123.817 -50.649  0.00  0.00     0.000 A 
ENDROOT
BRANCH   1  12
ATOM     12  N   UNL d   1     -41.789-123.045 -53.005  0.00  0.00    -0.158 NA
BRANCH  12  13
ATOM     13  S   UNL d   1     -41.809-122.751 -53.779  0.00  0.00     0.291 S 
ATOM     14  O   UNL d   1     -42.505-122.326 -53.602  0.00  0.00    -0.198 OA
ATOM     15  O   UNL d   1     -41.137-123.157 -53.959  0.00  0.00    -0.198 OA
BRANCH  13  16
ATOM     16  C   UNL d   1     -41.805-122.474 -54.549  0.00  0.00     0.135 A 
ATOM     17  S   UNL d   1     -42.442-122.197 -54.936  0.00  0.00    -0.073 SA
ATOM     18  C   UNL d   1     -42.235-121.964 -55.706  0.00  0.00     0.036 A 
ATOM     19  C   UNL d   1     -41.446-122.103 -55.794  0.00  0.00     0.008 A 
ATOM     20  C   UNL d   1     -41.153-122.422 -55.084  0.00  0.00     0.020 A 
ENDBRANCH  13  16
ENDBRANCH  12  13
ENDBRANCH   1  12
TORSDOF 3
ENDMDL
