MODEL 1
REMARK VINA RESULT:      40.9      0.000      0.000
REMARK  3 active torsions:
REMARK  status: ('A' for Active; 'I' for Inactive)
REMARK    1  A    between atoms: C_9  and  C_1 
REMARK       I    between atoms: C_4  and  N_8 
REMARK    2  A    between atoms: C_5  and  C_4 
REMARK    3  A    between atoms: N_8  and  C_17 
ROOT
ATOM      1  C   UNL d   1     -54.912-102.038 -39.938  0.00  0.00     0.036 A 
ATOM      2  C   UNL d   1     -54.756-101.312 -40.271  0.00  0.00     0.005 A 
ATOM      3  C   UNL d   1     -55.028-102.696 -40.399  0.00  0.00     0.005 A 
ATOM      4  C   UNL d   1     -54.831-101.906 -41.562  0.00  0.00     0.085 A 
ATOM      5  C   UNL d   1     -54.716-101.248 -41.101  0.00  0.00     0.019 A 
ATOM      6  C   UNL d   1     -54.993-102.659 -41.211  0.00  0.00     0.019 A 
ENDROOT
BRANCH   1   7
ATOM      7  C   UNL d   1     -54.953-102.101 -39.109  0.00  0.00     0.162 A 
ATOM      8  N   UNL d   1     -55.191-102.741 -38.627  0.00  0.00    -0.225 NA
ATOM      9  C   UNL d   1     -55.119-102.492 -37.860  0.00  0.00     0.101 A 
ATOM     10  C   UNL d   1     -55.268-102.867 -37.129  0.00  0.00     0.021 A 
ATOM     11  C   UNL d   1     -54.842-101.712 -37.872  0.00  0.00     0.101 A 
ATOM     12  C   UNL d   1     -55.140-102.462 -36.422  0.00  0.00     0.002 A 
ATOM     13  C   UNL d   1     -54.862-101.682 -36.435  0.00  0.00     0.002 A 
ATOM     14  C   UNL d   1     -54.713-101.306 -37.154  0.00  0.00     0.021 A 
ATOM     15  N   UNL d   1     -54.746-101.489 -38.647  0.00  0.00    -0.225 NA
ENDBRANCH   1   7
BRANCH   4  16
ATOM     16  N   UNL d   1     -54.791-101.843 -42.391  0.00  0.00    -0.206 NA
ATOM     17  C   UNL d   1     -55.198-101.244 -42.796  0.00  0.00     0.302 C 
ATOM     18  O   UNL d   1     -55.641-100.713 -42.372  0.00  0.00    -0.263 OA
BRANCH  17  19
ATOM     19  C   UNL d   1     -55.168-101.170 -43.606  0.00  0.00     0.158 A 
ATOM     20  O   UNL d   1     -55.302-100.497 -44.046  0.00  0.00    -0.300 OA
ATOM     21  C   UNL d   1     -55.208-100.695 -44.856  0.00  0.00     0.123 A 
ATOM     22  C   UNL d   1     -55.023-101.458 -44.910  0.00  0.00     0.029 A 
ATOM     23  C   UNL d   1     -54.991-101.776 -44.166  0.00  0.00     0.032 A 
ENDBRANCH  17  19
ENDBRANCH   4  16
TORSDOF 3
ENDMDL
