MODEL 1
REMARK VINA RESULT:      60.5      0.000      0.000
REMARK  3 active torsions:
REMARK  status: ('A' for Active; 'I' for Inactive)
REMARK    1  A    between atoms: N_9  and  C_3 
REMARK    2  A    between atoms: C_12  and  C_4 
REMARK    3  A    between atoms: C_17  and  N_10 
ROOT
ATOM      1  N   UNL d   1      45.902 -18.039  41.173  0.00  0.00    -0.196 N 
ATOM      2  C   UNL d   1      46.147 -18.555  41.761  0.00  0.00     0.167 A 
ATOM      3  C   UNL d   1      45.901 -18.277  40.382  0.00  0.00     0.152 A 
ATOM      4  C   UNL d   1      46.087 -18.167  42.483  0.00  0.00     0.057 A 
ATOM      5  N   UNL d   1      45.689 -17.329  41.528  0.00  0.00    -0.161 NA
ATOM      6  N   UNL d   1      46.396 -19.318  41.568  0.00  0.00    -0.227 NA
ATOM      7  C   UNL d   1      46.151 -19.044  40.187  0.00  0.00     0.057 A 
ATOM      8  C   UNL d   1      45.807 -17.416  42.341  0.00  0.00     0.124 A 
ATOM      9  C   UNL d   1      46.397 -19.560  40.775  0.00  0.00     0.086 A 
ATOM     10  C   UNL d   1      46.647 -20.330  40.570  0.00  0.00     0.021 C 
ENDROOT
BRANCH   3  11
ATOM     11  N   UNL d   1      45.655 -17.760  39.794  0.00  0.00    -0.286 N 
ATOM     12  C   UNL d   1      44.848 -17.675  39.624  0.00  0.00     0.101 A 
ATOM     13  C   UNL d   1      44.601 -17.156  39.033  0.00  0.00     0.100 A 
ATOM     14  N   UNL d   1      45.160 -16.719  38.608  0.00  0.00    -0.301 N 
ATOM     15  C   UNL d   1      45.962 -16.802  38.775  0.00  0.00     0.100 A 
ATOM     16  C   UNL d   1      46.209 -17.322  39.366  0.00  0.00     0.101 A 
BRANCH  14  17
ATOM     17  C   UNL d   1      44.910 -16.194  38.010  0.00  0.00     0.064 A 
ATOM     18  C   UNL d   1      45.465 -15.753  37.597  0.00  0.00     0.018 A 
ATOM     19  C   UNL d   1      45.055 -15.284  37.041  0.00  0.00     0.002 A 
ATOM     20  C   UNL d   1      44.255 -15.445  37.121  0.00  0.00     0.002 A 
ATOM     21  C   UNL d   1      44.159 -16.004  37.715  0.00  0.00     0.018 A 
ENDBRANCH  14  17
ENDBRANCH   3  11
BRANCH   4  22
ATOM     22  C   UNL d   1      46.254 -18.405  43.255  0.00  0.00     0.004 A 
ATOM     23  C   UNL d   1      46.278 -17.842  43.866  0.00  0.00     0.000 A 
ATOM     24  C   UNL d   1      46.445 -18.080  44.639  0.00  0.00     0.000 A 
ATOM     25  C   UNL d   1      46.589 -18.876  44.807  0.00  0.00     0.000 A 
ATOM     26  C   UNL d   1      46.565 -19.437  44.200  0.00  0.00     0.000 A 
ATOM     27  C   UNL d   1      46.399 -19.199  43.428  0.00  0.00     0.000 A 
ENDBRANCH   4  22
TORSDOF 3
ENDMDL
