MODEL 1
REMARK VINA RESULT:      -1.8      0.000      0.000
REMARK  1 active torsions:
REMARK  status: ('A' for Active; 'I' for Inactive)
REMARK    1  A    between atoms: C_15  and  C_6 
ROOT
ATOM      1  C   UNL d   1     -41.465-122.613 -51.170  0.00  0.00     0.087 A 
ATOM      2  C   UNL d   1     -41.434-122.613 -52.603  0.00  0.00     0.111 A 
ATOM      3  C   UNL d   1     -41.268-123.416 -51.168  0.00  0.00     0.109 A 
ATOM      4  C   UNL d   1     -41.579-122.207 -50.461  0.00  0.00     0.302 A 
ATOM      5  C   UNL d   1     -41.236-123.420 -52.593  0.00  0.00     0.213 A 
ATOM      6  C   UNL d   1     -41.549-122.203 -51.881  0.00  0.00     0.020 A 
ATOM      7  O   UNL d   1     -41.156-123.814 -51.877  0.00  0.00    -0.287 OA
ATOM      8  C   UNL d   1     -41.186-123.817 -50.457  0.00  0.00     0.050 A 
ATOM      9  O   UNL d   1     -41.495-122.617 -49.737  0.00  0.00    -0.273 OA
ATOM     10  C   UNL d   1     -41.517-122.208 -53.314  0.00  0.00     0.105 C 
ATOM     11  C   UNL d   1     -41.299-123.415 -49.735  0.00  0.00     0.105 A 
ATOM     12  N   UNL d   1     -41.599-121.810 -54.037  0.00  0.00    -0.191 NA
ATOM     13  O   UNL d   1     -41.775-121.405 -50.463  0.00  0.00    -0.259 OA
ATOM     14  N   UNL d   1     -41.124-123.817 -53.311  0.00  0.00    -0.120 N 
ATOM     15  C   UNL d   1     -41.217-123.818 -49.016  0.00  0.00     0.027 C 
ENDROOT
BRANCH   6  16
ATOM     16  C   UNL d   1     -41.743-121.412 -51.883  0.00  0.00     0.001 C 
ATOM     17  C   UNL d   1     -41.152-120.836 -51.858  0.00  0.00     0.000 C 
ATOM     18  C   UNL d   1     -42.530-121.182 -51.909  0.00  0.00     0.000 C 
ENDBRANCH   6  16
TORSDOF 1
ENDMDL
MODEL 2
REMARK VINA RESULT:      -1.3      1.540      2.861
REMARK  1 active torsions:
REMARK  status: ('A' for Active; 'I' for Inactive)
REMARK    1  A    between atoms: C_15  and  C_6 
ROOT
ATOM      1  C   UNL d   1     -41.731-122.424 -53.214  0.00  0.00     0.087 A 
ATOM      2  C   UNL d   1     -42.159-121.868 -54.463  0.00  0.00     0.111 A 
ATOM      3  C   UNL d   1     -41.809-121.681 -52.859  0.00  0.00     0.109 A 
ATOM      4  C   UNL d   1     -41.479-123.075 -52.775  0.00  0.00     0.302 A 
ATOM      5  C   UNL d   1     -42.235-121.124 -54.100  0.00  0.00     0.213 A 
ATOM      6  C   UNL d   1     -41.903-122.527 -54.014  0.00  0.00     0.020 A 
ATOM      7  O   UNL d   1     -42.060-121.038 -53.302  0.00  0.00    -0.287 OA
ATOM      8  C   UNL d   1     -41.636-121.586 -52.063  0.00  0.00     0.050 A 
ATOM      9  O   UNL d   1     -41.303-122.977 -51.963  0.00  0.00    -0.273 OA
ATOM     10  C   UNL d   1     -42.332-121.966 -55.262  0.00  0.00     0.105 C 
ATOM     11  C   UNL d   1     -41.381-122.238 -51.610  0.00  0.00     0.105 A 
ATOM     12  N   UNL d   1     -42.509-122.054 -56.068  0.00  0.00    -0.191 NA
ATOM     13  O   UNL d   1     -41.401-123.817 -53.129  0.00  0.00    -0.259 OA
ATOM     14  N   UNL d   1     -42.489-120.478 -54.551  0.00  0.00    -0.120 N 
ATOM     15  C   UNL d   1     -41.206-122.146 -50.806  0.00  0.00     0.027 C 
ENDROOT
BRANCH   6  16
ATOM     16  C   UNL d   1     -41.826-123.258 -54.364  0.00  0.00     0.001 C 
ATOM     17  C   UNL d   1     -42.449-123.800 -54.347  0.00  0.00     0.000 C 
ATOM     18  C   UNL d   1     -41.124-123.464 -54.737  0.00  0.00     0.000 C 
ENDBRANCH   6  16
TORSDOF 1
ENDMDL
MODEL 3
REMARK VINA RESULT:      -0.7      2.309      3.411
REMARK  1 active torsions:
REMARK  status: ('A' for Active; 'I' for Inactive)
REMARK    1  A    between atoms: C_15  and  C_6 
ROOT
ATOM      1  C   UNL d   1     -42.334-122.643 -50.269  0.00  0.00     0.087 A 
ATOM      2  C   UNL d   1     -42.334-123.267 -48.979  0.00  0.00     0.111 A 
ATOM      3  C   UNL d   1     -41.527-122.803 -50.344  0.00  0.00     0.109 A 
ATOM      4  C   UNL d   1     -42.743-122.254 -50.870  0.00  0.00     0.302 A 
ATOM      5  C   UNL d   1     -41.522-123.424 -49.061  0.00  0.00     0.213 A 
ATOM      6  C   UNL d   1     -42.747-122.870 -49.591  0.00  0.00     0.020 A 
ATOM      7  O   UNL d   1     -41.127-123.191 -49.742  0.00  0.00    -0.287 OA
ATOM      8  C   UNL d   1     -41.123-122.575 -51.021  0.00  0.00     0.050 A 
ATOM      9  O   UNL d   1     -42.331-122.021 -51.560  0.00  0.00    -0.273 OA
ATOM     10  C   UNL d   1     -42.741-123.495 -48.301  0.00  0.00     0.105 C 
ATOM     11  C   UNL d   1     -41.528-122.180 -51.634  0.00  0.00     0.105 A 
ATOM     12  N   UNL d   1     -43.142-123.730 -47.613  0.00  0.00    -0.191 NA
ATOM     13  O   UNL d   1     -43.550-122.094 -50.796  0.00  0.00    -0.259 OA
ATOM     14  N   UNL d   1     -41.123-123.816 -48.451  0.00  0.00    -0.120 N 
ATOM     15  C   UNL d   1     -41.123-121.948 -52.319  0.00  0.00     0.027 C 
ENDROOT
BRANCH   6  16
ATOM     16  C   UNL d   1     -43.542-122.713 -49.518  0.00  0.00     0.001 C 
ATOM     17  C   UNL d   1     -43.802-121.962 -49.292  0.00  0.00     0.000 C 
ATOM     18  C   UNL d   1     -44.093-123.301 -49.668  0.00  0.00     0.000 C 
ENDBRANCH   6  16
TORSDOF 1
ENDMDL
MODEL 4
REMARK VINA RESULT:       0.7      2.061      2.988
REMARK  1 active torsions:
REMARK  status: ('A' for Active; 'I' for Inactive)
REMARK    1  A    between atoms: C_15  and  C_6 
ROOT
ATOM      1  C   UNL d   1     -42.305-123.007 -48.775  0.00  0.00     0.087 A 
ATOM      2  C   UNL d   1     -42.304-122.375 -50.061  0.00  0.00     0.111 A 
ATOM      3  C   UNL d   1     -41.518-122.777 -48.664  0.00  0.00     0.109 A 
ATOM      4  C   UNL d   1     -42.703-123.436 -48.194  0.00  0.00     0.302 A 
ATOM      5  C   UNL d   1     -41.513-122.148 -49.943  0.00  0.00     0.213 A 
ATOM      6  C   UNL d   1     -42.706-122.811 -49.469  0.00  0.00     0.020 A 
ATOM      7  O   UNL d   1     -41.129-122.350 -49.247  0.00  0.00    -0.287 OA
ATOM      8  C   UNL d   1     -41.126-122.975 -47.972  0.00  0.00     0.050 A 
ATOM      9  O   UNL d   1     -42.302-123.637 -47.488  0.00  0.00    -0.273 OA
ATOM     10  C   UNL d   1     -42.700-122.178 -50.756  0.00  0.00     0.105 C 
ATOM     11  C   UNL d   1     -41.520-123.409 -47.378  0.00  0.00     0.105 A 
ATOM     12  N   UNL d   1     -43.090-121.974 -51.459  0.00  0.00    -0.191 NA
ATOM     13  O   UNL d   1     -43.488-123.665 -48.304  0.00  0.00    -0.259 OA
ATOM     14  N   UNL d   1     -41.124-121.717 -50.534  0.00  0.00    -0.120 N 
ATOM     15  C   UNL d   1     -41.126-123.610 -46.677  0.00  0.00     0.027 C 
ENDROOT
BRANCH   6  16
ATOM     16  C   UNL d   1     -43.480-123.037 -49.578  0.00  0.00     0.001 C 
ATOM     17  C   UNL d   1     -43.666-123.817 -49.775  0.00  0.00     0.000 C 
ATOM     18  C   UNL d   1     -44.084-122.489 -49.493  0.00  0.00     0.000 C 
ENDBRANCH   6  16
TORSDOF 1
ENDMDL
