MODEL 1
REMARK VINA RESULT:      -5.0      0.000      0.000
REMARK  7 active torsions:
REMARK  status: ('A' for Active; 'I' for Inactive)
REMARK    1  A    between atoms: C_10  and  N_3 
REMARK    2  A    between atoms: C_12  and  C_10 
REMARK    3  A    between atoms: C_16  and  N_11 
REMARK    4  A    between atoms: O_29  and  C_15 
REMARK    5  A    between atoms: C_27  and  C_16 
REMARK    6  A    between atoms: O_30  and  C_17 
REMARK    7  A    between atoms: C_23  and  C_27 
ROOT
ATOM      1  C   UNL d   1     -45.540  13.631  22.342  0.00  0.00     0.191 A 
ATOM      2  C   UNL d   1     -45.450  12.848  22.623  0.00  0.00     0.173 A 
ATOM      3  N   UNL d   1     -46.762  12.906  23.206  0.00  0.00    -0.224 N 
ATOM      4  N   UNL d   1     -44.854  13.847  21.936  0.00  0.00    -0.042 NA
ATOM      5  C   UNL d   1     -44.171  13.193  21.890  0.00  0.00     0.722 A 
ATOM      6  N   UNL d   1     -46.236  14.064  22.485  0.00  0.00    -0.240 N 
ATOM      7  C   UNL d   1     -46.852  13.689  22.925  0.00  0.00     0.343 A 
ATOM      8  C   UNL d   1     -46.056  12.497  23.048  0.00  0.00     0.288 A 
ATOM      9  N   UNL d   1     -44.710  12.594  22.386  0.00  0.00    -0.132 N 
ATOM     10  N   UNL d   1     -43.430  12.927  21.657  0.00  0.00    -0.139 N 
ATOM     11  O   UNL d   1     -47.561  14.122  23.074  0.00  0.00    -0.245 OA
ATOM     12  O   UNL d   1     -45.965  11.714  23.329  0.00  0.00    -0.265 OA
ATOM     13  C   UNL d   1     -44.397  11.852  22.547  0.00  0.00     0.100 A 
ATOM     14  C   UNL d   1     -46.326  14.848  22.204  0.00  0.00     0.105 C 
ATOM     15  C   UNL d   1     -43.634  11.611  22.294  0.00  0.00     0.039 A 
ATOM     16  C   UNL d   1     -43.139  12.161  21.839  0.00  0.00     0.100 A 
ENDROOT
BRANCH  10  17
ATOM     17  C   UNL d   1     -42.731  13.092  21.267  0.00  0.00     0.098 C 
BRANCH  17  18
ATOM     18  C   UNL d   1     -42.368  13.816  21.374  0.00  0.00     0.020 C 
BRANCH  18  19
ATOM     19  C   UNL d   1     -41.680  13.985  20.974  0.00  0.00     0.004 A 
ATOM     20  C   UNL d   1     -40.970  13.982  21.374  0.00  0.00     0.026 A 
ATOM     21  C   UNL d   1     -40.276  14.151  20.977  0.00  0.00     0.116 A 
ATOM     22  C   UNL d   1     -40.301  14.325  20.172  0.00  0.00     0.116 A 
ATOM     23  C   UNL d   1     -41.010  14.328  19.776  0.00  0.00     0.026 A 
ATOM     24  C   UNL d   1     -41.706  14.157  20.179  0.00  0.00     0.002 A 
BRANCH  21  25
ATOM     25  O   UNL d   1     -39.562  14.148  21.376  0.00  0.00    -0.326 OA
ATOM     26  C   UNL d   1     -39.540  14.012  22.173  0.00  0.00     0.181 C 
ENDBRANCH  21  25
BRANCH  22  27
ATOM     27  O   UNL d   1     -39.522  14.463  19.961  0.00  0.00    -0.326 OA
ATOM     28  C   UNL d   1     -39.317  14.528  19.178  0.00  0.00     0.181 C 
ENDBRANCH  22  27
ENDBRANCH  18  19
ENDBRANCH  17  18
ENDBRANCH  10  17
BRANCH   3  29
ATOM     29  C   UNL d   1     -47.070  12.243  23.621  0.00  0.00     0.090 C 
BRANCH  29  30
ATOM     30  C   UNL d   1     -47.893  12.120  23.643  0.00  0.00     0.045 A 
ATOM     31  C   UNL d   1     -48.189  11.336  23.675  0.00  0.00     0.141 A 
ATOM     32  F   UNL d   1     -47.664  10.687  23.684  0.00  0.00    -0.204 F 
ATOM     33  C   UNL d   1     -49.016  11.207  23.698  0.00  0.00     0.030 A 
ATOM     34  C   UNL d   1     -49.536  11.856  23.689  0.00  0.00     0.002 A 
ATOM     35  C   UNL d   1     -49.235  12.635  23.657  0.00  0.00     0.000 A 
ATOM     36  C   UNL d   1     -48.412  12.760  23.635  0.00  0.00     0.004 A 
ENDBRANCH  29  30
ENDBRANCH   3  29
TORSDOF 7
ENDMDL
MODEL 2
REMARK VINA RESULT:      -5.0      1.011      1.459
REMARK  7 active torsions:
REMARK  status: ('A' for Active; 'I' for Inactive)
REMARK    1  A    between atoms: C_10  and  N_3 
REMARK    2  A    between atoms: C_12  and  C_10 
REMARK    3  A    between atoms: C_16  and  N_11 
REMARK    4  A    between atoms: O_29  and  C_15 
REMARK    5  A    between atoms: C_27  and  C_16 
REMARK    6  A    between atoms: O_30  and  C_17 
REMARK    7  A    between atoms: C_23  and  C_27 
ROOT
ATOM      1  C   UNL d   1     -46.406  13.740  22.454  0.00  0.00     0.191 A 
ATOM      2  C   UNL d   1     -46.484  12.948  22.712  0.00  0.00     0.173 A 
ATOM      3  N   UNL d   1     -47.872  13.180  23.005  0.00  0.00    -0.224 N 
ATOM      4  N   UNL d   1     -45.626  13.865  22.213  0.00  0.00    -0.042 NA
ATOM      5  C   UNL d   1     -45.043  13.122  22.283  0.00  0.00     0.722 A 
ATOM      6  N   UNL d   1     -47.052  14.264  22.466  0.00  0.00    -0.240 N 
ATOM      7  C   UNL d   1     -47.793  13.973  22.747  0.00  0.00     0.343 A 
ATOM      8  C   UNL d   1     -47.208  12.679  22.982  0.00  0.00     0.288 A 
ATOM      9  N   UNL d   1     -45.751  12.597  22.626  0.00  0.00    -0.132 N 
ATOM     10  N   UNL d   1     -44.311  12.758  22.201  0.00  0.00    -0.139 N 
ATOM     11  O   UNL d   1     -48.453  14.499  22.762  0.00  0.00    -0.245 OA
ATOM     12  O   UNL d   1     -47.287  11.887  23.240  0.00  0.00    -0.265 OA
ATOM     13  C   UNL d   1     -45.582  11.816  22.816  0.00  0.00     0.100 A 
ATOM     14  C   UNL d   1     -46.974  15.058  22.207  0.00  0.00     0.105 C 
ATOM     15  C   UNL d   1     -44.822  11.474  22.719  0.00  0.00     0.039 A 
ATOM     16  C   UNL d   1     -44.171  11.956  22.405  0.00  0.00     0.100 A 
ENDROOT
BRANCH  10  17
ATOM     17  C   UNL d   1     -43.529  12.829  21.975  0.00  0.00     0.098 C 
BRANCH  17  18
ATOM     18  C   UNL d   1     -43.334  13.291  21.330  0.00  0.00     0.020 C 
BRANCH  18  19
ATOM     19  C   UNL d   1     -42.565  13.536  21.227  0.00  0.00     0.004 A 
ATOM     20  C   UNL d   1     -42.409  14.319  21.061  0.00  0.00     0.026 A 
ATOM     21  C   UNL d   1     -41.639  14.570  20.957  0.00  0.00     0.116 A 
ATOM     22  C   UNL d   1     -41.023  14.027  21.020  0.00  0.00     0.116 A 
ATOM     23  C   UNL d   1     -41.180  13.247  21.185  0.00  0.00     0.026 A 
ATOM     24  C   UNL d   1     -41.957  12.999  21.290  0.00  0.00     0.002 A 
BRANCH  21  25
ATOM     25  O   UNL d   1     -41.480  15.356  20.791  0.00  0.00    -0.326 OA
ATOM     26  C   UNL d   1     -42.045  15.921  20.916  0.00  0.00     0.181 C 
ENDBRANCH  21  25
BRANCH  22  27
ATOM     27  O   UNL d   1     -40.343  14.461  20.886  0.00  0.00    -0.326 OA
ATOM     28  C   UNL d   1     -39.625  14.191  21.155  0.00  0.00     0.181 C 
ENDBRANCH  22  27
ENDBRANCH  18  19
ENDBRANCH  17  18
ENDBRANCH  10  17
BRANCH   3  29
ATOM     29  C   UNL d   1     -48.348  12.561  23.315  0.00  0.00     0.090 C 
BRANCH  29  30
ATOM     30  C   UNL d   1     -49.176  12.643  23.317  0.00  0.00     0.045 A 
ATOM     31  C   UNL d   1     -49.646  12.066  22.930  0.00  0.00     0.141 A 
ATOM     32  F   UNL d   1     -49.286  11.418  22.547  0.00  0.00    -0.204 F 
ATOM     33  C   UNL d   1     -50.479  12.144  22.930  0.00  0.00     0.030 A 
ATOM     34  C   UNL d   1     -50.834  12.792  23.313  0.00  0.00     0.002 A 
ATOM     35  C   UNL d   1     -50.361  13.364  23.697  0.00  0.00     0.000 A 
ATOM     36  C   UNL d   1     -49.532  13.283  23.695  0.00  0.00     0.004 A 
ENDBRANCH  29  30
ENDBRANCH   3  29
TORSDOF 7
ENDMDL
MODEL 3
REMARK VINA RESULT:      -2.8      3.309      8.059
REMARK  7 active torsions:
REMARK  status: ('A' for Active; 'I' for Inactive)
REMARK    1  A    between atoms: C_10  and  N_3 
REMARK    2  A    between atoms: C_12  and  C_10 
REMARK    3  A    between atoms: C_16  and  N_11 
REMARK    4  A    between atoms: O_29  and  C_15 
REMARK    5  A    between atoms: C_27  and  C_16 
REMARK    6  A    between atoms: O_30  and  C_17 
REMARK    7  A    between atoms: C_23  and  C_27 
ROOT
ATOM      1  C   UNL d   1     -40.963  14.999  18.346  0.00  0.00     0.191 A 
ATOM      2  C   UNL d   1     -40.215  14.718  18.595  0.00  0.00     0.173 A 
ATOM      3  N   UNL d   1     -39.629  15.200  17.374  0.00  0.00    -0.224 N 
ATOM      4  N   UNL d   1     -41.519  14.826  18.932  0.00  0.00    -0.042 NA
ATOM      5  C   UNL d   1     -41.193  14.377  19.699  0.00  0.00     0.722 A 
ATOM      6  N   UNL d   1     -41.060  15.382  17.614  0.00  0.00    -0.240 N 
ATOM      7  C   UNL d   1     -40.378  15.481  17.126  0.00  0.00     0.343 A 
ATOM      8  C   UNL d   1     -39.563  14.821  18.111  0.00  0.00     0.288 A 
ATOM      9  N   UNL d   1     -40.322  14.377  19.329  0.00  0.00    -0.132 N 
ATOM     10  N   UNL d   1     -41.287  14.030  20.438  0.00  0.00    -0.139 N 
ATOM     11  O   UNL d   1     -40.469  15.869  16.382  0.00  0.00    -0.245 OA
ATOM     12  O   UNL d   1     -38.815  14.540  18.359  0.00  0.00    -0.265 OA
ATOM     13  C   UNL d   1     -39.725  14.030  19.774  0.00  0.00     0.100 A 
ATOM     14  C   UNL d   1     -41.809  15.663  17.366  0.00  0.00     0.105 C 
ATOM     15  C   UNL d   1     -39.855  13.684  20.528  0.00  0.00     0.039 A 
ATOM     16  C   UNL d   1     -40.655  13.684  20.867  0.00  0.00     0.100 A 
ENDROOT
BRANCH  10  17
ATOM     17  C   UNL d   1     -41.797  13.836  21.046  0.00  0.00     0.098 C 
BRANCH  17  18
ATOM     18  C   UNL d   1     -42.182  13.116  21.037  0.00  0.00     0.020 C 
BRANCH  18  19
ATOM     19  C   UNL d   1     -42.910  13.043  21.393  0.00  0.00     0.004 A 
ATOM     20  C   UNL d   1     -43.106  12.348  21.771  0.00  0.00     0.026 A 
ATOM     21  C   UNL d   1     -43.836  12.270  22.131  0.00  0.00     0.116 A 
ATOM     22  C   UNL d   1     -44.369  12.897  22.109  0.00  0.00     0.116 A 
ATOM     23  C   UNL d   1     -44.171  13.589  21.732  0.00  0.00     0.026 A 
ATOM     24  C   UNL d   1     -43.435  13.664  21.371  0.00  0.00     0.002 A 
BRANCH  21  25
ATOM     25  O   UNL d   1     -44.035  11.573  22.511  0.00  0.00    -0.326 OA
ATOM     26  C   UNL d   1     -43.511  11.218  23.014  0.00  0.00     0.181 C 
ENDBRANCH  21  25
BRANCH  22  27
ATOM     27  O   UNL d   1     -45.027  12.631  22.515  0.00  0.00    -0.326 OA
ATOM     28  C   UNL d   1     -45.748  12.991  22.407  0.00  0.00     0.181 C 
ENDBRANCH  22  27
ENDBRANCH  18  19
ENDBRANCH  17  18
ENDBRANCH  10  17
BRANCH   3  29
ATOM     29  C   UNL d   1     -38.808  15.099  17.230  0.00  0.00     0.090 C 
BRANCH  29  30
ATOM     30  C   UNL d   1     -38.519  15.145  16.451  0.00  0.00     0.045 A 
ATOM     31  C   UNL d   1     -38.319  14.439  16.045  0.00  0.00     0.141 A 
ATOM     32  F   UNL d   1     -38.409  13.698  16.420  0.00  0.00    -0.204 F 
ATOM     33  C   UNL d   1     -38.028  14.480  15.262  0.00  0.00     0.030 A 
ATOM     34  C   UNL d   1     -37.940  15.221  14.892  0.00  0.00     0.002 A 
ATOM     35  C   UNL d   1     -38.141  15.921  15.301  0.00  0.00     0.000 A 
ATOM     36  C   UNL d   1     -38.430  15.876  16.081  0.00  0.00     0.004 A 
ENDBRANCH  29  30
ENDBRANCH   3  29
TORSDOF 7
ENDMDL
