MODEL 1
REMARK VINA RESULT:      -6.4      0.000      0.000
REMARK  5 active torsions:
REMARK  status: ('A' for Active; 'I' for Inactive)
REMARK    1  A    between atoms: C_4  and  C_1 
REMARK       I    between atoms: N_2  and  C_3 
REMARK    2  A    between atoms: C_6  and  N_2 
REMARK    3  A    between atoms: C_3  and  C_5 
REMARK    4  A    between atoms: C_5  and  C_7 
REMARK    5  A    between atoms: C_7  and  C_14 
ROOT
ATOM      1  C   UNL d   1     -41.549-123.319 -51.829  0.00  0.00     0.062 C 
ENDROOT
BRANCH   1   2
ATOM      2  C   UNL d   1     -41.533-123.136 -51.040  0.00  0.00     0.279 C 
ATOM      3  N   UNL d   1     -41.936-123.614 -50.508  0.00  0.00    -0.208 NA
ATOM      4  O   UNL d   1     -41.123-122.487 -50.780  0.00  0.00    -0.265 OA
BRANCH   3   5
ATOM      5  C   UNL d   1     -41.921-123.429 -49.697  0.00  0.00     0.085 A 
ATOM      6  C   UNL d   1     -42.613-123.532 -49.249  0.00  0.00     0.018 A 
ATOM      7  C   UNL d   1     -43.300-123.814 -49.609  0.00  0.00     0.002 C 
ATOM      8  C   UNL d   1     -42.610-123.351 -48.441  0.00  0.00     0.002 A 
ATOM      9  C   UNL d   1     -41.928-123.072 -48.084  0.00  0.00     0.000 A 
ATOM     10  C   UNL d   1     -41.248-122.972 -48.531  0.00  0.00     0.002 A 
ATOM     11  C   UNL d   1     -41.239-123.149 -49.340  0.00  0.00     0.019 A 
ENDBRANCH   3   5
ENDBRANCH   1   2
BRANCH   1  12
ATOM     12  C   UNL d   1     -41.354-122.741 -52.394  0.00  0.00     0.005 C 
BRANCH  12  13
ATOM     13  C   UNL d   1     -41.373-122.911 -53.203  0.00  0.00     0.000 A 
ATOM     14  C   UNL d   1     -41.627-122.340 -53.725  0.00  0.00     0.004 A 
ATOM     15  C   UNL d   1     -41.638-122.532 -54.529  0.00  0.00     0.071 A 
ATOM     16  C   UNL d   1     -41.412-123.248 -54.811  0.00  0.00     0.004 A 
ATOM     17  C   UNL d   1     -41.158-123.817 -54.289  0.00  0.00    -0.000 A 
ATOM     18  C   UNL d   1     -41.135-123.663 -53.496  0.00  0.00    -0.000 A 
BRANCH  15  19
ATOM     19  C   UNL d   1     -41.900-121.937 -55.044  0.00  0.00     0.419 C 
ATOM     20  F   UNL d   1     -42.193-121.330 -55.554  0.00  0.00    -0.166 F 
ATOM     21  F   UNL d   1     -41.193-121.917 -55.420  0.00  0.00    -0.166 F 
ATOM     22  F   UNL d   1     -42.655-121.946 -54.655  0.00  0.00    -0.166 F 
ENDBRANCH  15  19
ENDBRANCH  12  13
ENDBRANCH   1  12
TORSDOF 5
ENDMDL
