MODEL 1
REMARK VINA RESULT:      -3.1      0.000      0.000
REMARK  5 active torsions:
REMARK  status: ('A' for Active; 'I' for Inactive)
REMARK    1  A    between atoms: C_7  and  N_2 
REMARK    2  A    between atoms: C_6  and  C_8 
REMARK       I    between atoms: N_9  and  C_6 
REMARK    3  A    between atoms: C_8  and  C_7 
REMARK    4  A    between atoms: C_11  and  N_9 
REMARK    5  A    between atoms: C_13  and  C_11 
ROOT
ATOM      1  C   UNL d   1      32.818  19.301 -22.832  0.00  0.00     0.080 C 
ENDROOT
BRANCH   1   2
ATOM      2  C   UNL d   1      33.028  20.098 -22.844  0.00  0.00     0.266 C 
ATOM      3  N   UNL d   1      33.028  20.541 -22.151  0.00  0.00    -0.270 N 
ATOM      4  C   UNL d   1      32.814  20.182 -21.432  0.00  0.00     0.102 C 
ATOM      5  O   UNL d   1      33.241  20.456 -23.557  0.00  0.00    -0.267 OA
BRANCH   3   6
ATOM      6  C   UNL d   1      33.237  21.333 -22.165  0.00  0.00     0.083 C 
BRANCH   6   7
ATOM      7  C   UNL d   1      32.907  21.859 -21.627  0.00  0.00     0.018 A 
ATOM      8  C   UNL d   1      33.032  21.767 -20.814  0.00  0.00     0.002 A 
ATOM      9  C   UNL d   1      32.702  22.293 -20.275  0.00  0.00     0.000 A 
ATOM     10  C   UNL d   1      32.244  22.919 -20.540  0.00  0.00     0.000 A 
ATOM     11  C   UNL d   1      32.116  23.018 -21.350  0.00  0.00     0.000 A 
ATOM     12  C   UNL d   1      32.451  22.482 -21.895  0.00  0.00     0.002 A 
ENDBRANCH   6   7
ENDBRANCH   3   6
ENDBRANCH   1   2
BRANCH   1  13
ATOM     13  C   UNL d   1      32.852  18.850 -23.518  0.00  0.00     0.090 C 
BRANCH  13  14
ATOM     14  N   UNL d   1      32.481  18.116 -23.551  0.00  0.00    -0.251 N 
ATOM     15  C   UNL d   1      32.658  17.461 -23.087  0.00  0.00     0.378 A 
ATOM     16  O   UNL d   1      32.125  16.894 -23.352  0.00  0.00    -0.258 OA
ATOM     17  O   UNL d   1      33.241  17.426 -22.504  0.00  0.00    -0.237 OA
ATOM     18  C   UNL d   1      31.661  17.126 -23.907  0.00  0.00     0.121 A 
ATOM     19  C   UNL d   1      31.052  16.764 -24.338  0.00  0.00     0.026 A 
ATOM     20  C   UNL d   1      31.864  17.911 -24.061  0.00  0.00     0.092 A 
ATOM     21  C   UNL d   1      30.646  17.190 -24.923  0.00  0.00     0.002 A 
ATOM     22  C   UNL d   1      30.858  17.975 -25.068  0.00  0.00     0.002 A 
ATOM     23  C   UNL d   1      31.465  18.333 -24.637  0.00  0.00     0.020 A 
ENDBRANCH  13  14
ENDBRANCH   1  13
TORSDOF 5
ENDMDL
MODEL 2
REMARK VINA RESULT:      -3.0      1.354      2.283
REMARK  5 active torsions:
REMARK  status: ('A' for Active; 'I' for Inactive)
REMARK    1  A    between atoms: C_7  and  N_2 
REMARK    2  A    between atoms: C_6  and  C_8 
REMARK       I    between atoms: N_9  and  C_6 
REMARK    3  A    between atoms: C_8  and  C_7 
REMARK    4  A    between atoms: C_11  and  N_9 
REMARK    5  A    between atoms: C_13  and  C_11 
ROOT
ATOM      1  C   UNL d   1      32.144  17.655 -23.960  0.00  0.00     0.080 C 
ENDROOT
BRANCH   1   2
ATOM      2  C   UNL d   1      32.515  18.391 -23.938  0.00  0.00     0.266 C 
ATOM      3  N   UNL d   1      32.872  18.657 -23.248  0.00  0.00    -0.270 N 
ATOM      4  C   UNL d   1      32.860  18.182 -22.567  0.00  0.00     0.102 C 
ATOM      5  O   UNL d   1      32.528  18.865 -24.614  0.00  0.00    -0.267 OA
BRANCH   3   6
ATOM      6  C   UNL d   1      33.241  19.389 -23.228  0.00  0.00     0.083 C 
BRANCH   6   7
ATOM      7  C   UNL d   1      33.179  19.868 -22.562  0.00  0.00     0.018 A 
ATOM      8  C   UNL d   1      33.054  20.683 -22.637  0.00  0.00     0.002 A 
ATOM      9  C   UNL d   1      32.992  21.162 -21.972  0.00  0.00     0.000 A 
ATOM     10  C   UNL d   1      33.054  20.835 -21.224  0.00  0.00     0.000 A 
ATOM     11  C   UNL d   1      33.178  20.023 -21.141  0.00  0.00     0.000 A 
ATOM     12  C   UNL d   1      33.241  19.538 -21.817  0.00  0.00     0.002 A 
ENDBRANCH   6   7
ENDBRANCH   3   6
ENDBRANCH   1   2
BRANCH   1  13
ATOM     13  C   UNL d   1      31.626  17.467 -24.570  0.00  0.00     0.090 C 
BRANCH  13  14
ATOM     14  N   UNL d   1      31.184  16.773 -24.541  0.00  0.00    -0.251 N 
ATOM     15  C   UNL d   1      31.479  16.007 -24.594  0.00  0.00     0.378 A 
ATOM     16  O   UNL d   1      30.804  15.542 -24.533  0.00  0.00    -0.258 OA
ATOM     17  O   UNL d   1      32.273  15.801 -24.686  0.00  0.00    -0.237 OA
ATOM     18  C   UNL d   1      30.155  15.929 -24.452  0.00  0.00     0.121 A 
ATOM     19  C   UNL d   1      29.360  15.709 -24.372  0.00  0.00     0.026 A 
ATOM     20  C   UNL d   1      30.364  16.728 -24.453  0.00  0.00     0.092 A 
ATOM     21  C   UNL d   1      28.774  16.291 -24.292  0.00  0.00     0.002 A 
ATOM     22  C   UNL d   1      28.994  17.087 -24.295  0.00  0.00     0.002 A 
ATOM     23  C   UNL d   1      29.788  17.302 -24.375  0.00  0.00     0.020 A 
ENDBRANCH  13  14
ENDBRANCH   1  13
TORSDOF 5
ENDMDL
MODEL 3
REMARK VINA RESULT:      -3.0      0.956      1.516
REMARK  5 active torsions:
REMARK  status: ('A' for Active; 'I' for Inactive)
REMARK    1  A    between atoms: C_7  and  N_2 
REMARK    2  A    between atoms: C_6  and  C_8 
REMARK       I    between atoms: N_9  and  C_6 
REMARK    3  A    between atoms: C_8  and  C_7 
REMARK    4  A    between atoms: C_11  and  N_9 
REMARK    5  A    between atoms: C_13  and  C_11 
ROOT
ATOM      1  C   UNL d   1      32.785  18.796 -23.259  0.00  0.00     0.080 C 
ENDROOT
BRANCH   1   2
ATOM      2  C   UNL d   1      33.012  19.142 -22.547  0.00  0.00     0.266 C 
ATOM      3  N   UNL d   1      33.014  19.960 -22.462  0.00  0.00    -0.270 N 
ATOM      4  C   UNL d   1      32.785  20.441 -23.100  0.00  0.00     0.102 C 
ATOM      5  O   UNL d   1      33.240  18.665 -21.913  0.00  0.00    -0.267 OA
BRANCH   3   6
ATOM      6  C   UNL d   1      33.241  20.303 -21.753  0.00  0.00     0.083 C 
BRANCH   6   7
ATOM      7  C   UNL d   1      32.936  21.032 -21.528  0.00  0.00     0.018 A 
ATOM      8  C   UNL d   1      33.175  21.727 -21.909  0.00  0.00     0.002 A 
ATOM      9  C   UNL d   1      32.871  22.456 -21.685  0.00  0.00     0.000 A 
ATOM     10  C   UNL d   1      32.325  22.503 -21.076  0.00  0.00     0.000 A 
ATOM     11  C   UNL d   1      32.081  21.815 -20.691  0.00  0.00     0.000 A 
ATOM     12  C   UNL d   1      32.391  21.075 -20.920  0.00  0.00     0.002 A 
ENDBRANCH   6   7
ENDBRANCH   3   6
ENDBRANCH   1   2
BRANCH   1  13
ATOM     13  C   UNL d   1      32.746  17.978 -23.332  0.00  0.00     0.090 C 
BRANCH  13  14
ATOM     14  N   UNL d   1      32.318  17.636 -23.947  0.00  0.00    -0.251 N 
ATOM     15  C   UNL d   1      32.359  17.844 -24.741  0.00  0.00     0.378 A 
ATOM     16  O   UNL d   1      31.824  17.330 -25.097  0.00  0.00    -0.258 OA
ATOM     17  O   UNL d   1      32.837  18.435 -25.062  0.00  0.00    -0.237 OA
ATOM     18  C   UNL d   1      31.477  16.851 -24.621  0.00  0.00     0.121 A 
ATOM     19  C   UNL d   1      30.912  16.251 -24.718  0.00  0.00     0.026 A 
ATOM     20  C   UNL d   1      31.772  17.021 -23.869  0.00  0.00     0.092 A 
ATOM     21  C   UNL d   1      30.644  15.822 -24.061  0.00  0.00     0.002 A 
ATOM     22  C   UNL d   1      30.947  16.000 -23.313  0.00  0.00     0.002 A 
ATOM     23  C   UNL d   1      31.510  16.599 -23.220  0.00  0.00     0.020 A 
ENDBRANCH  13  14
ENDBRANCH   1  13
TORSDOF 5
ENDMDL
MODEL 4
REMARK VINA RESULT:      -1.5      1.634      5.462
REMARK  5 active torsions:
REMARK  status: ('A' for Active; 'I' for Inactive)
REMARK    1  A    between atoms: C_7  and  N_2 
REMARK    2  A    between atoms: C_6  and  C_8 
REMARK       I    between atoms: N_9  and  C_6 
REMARK    3  A    between atoms: C_8  and  C_7 
REMARK    4  A    between atoms: C_11  and  N_9 
REMARK    5  A    between atoms: C_13  and  C_11 
ROOT
ATOM      1  C   UNL d   1      32.673  21.403 -21.642  0.00  0.00     0.080 C 
ENDROOT
BRANCH   1   2
ATOM      2  C   UNL d   1      32.852  21.035 -22.357  0.00  0.00     0.266 C 
ATOM      3  N   UNL d   1      32.960  20.221 -22.392  0.00  0.00    -0.270 N 
ATOM      4  C   UNL d   1      32.889  19.765 -21.700  0.00  0.00     0.102 C 
ATOM      5  O   UNL d   1      32.923  21.486 -23.045  0.00  0.00    -0.267 OA
BRANCH   3   6
ATOM      6  C   UNL d   1      33.138  19.856 -23.104  0.00  0.00     0.083 C 
BRANCH   6   7
ATOM      7  C   UNL d   1      32.902  19.082 -23.245  0.00  0.00     0.018 A 
ATOM      8  C   UNL d   1      33.241  18.453 -22.825  0.00  0.00     0.002 A 
ATOM      9  C   UNL d   1      33.005  17.679 -22.966  0.00  0.00     0.000 A 
ATOM     10  C   UNL d   1      32.429  17.520 -23.526  0.00  0.00     0.000 A 
ATOM     11  C   UNL d   1      32.087  18.141 -23.949  0.00  0.00     0.000 A 
ATOM     12  C   UNL d   1      32.327  18.927 -23.805  0.00  0.00     0.002 A 
ENDBRANCH   6   7
ENDBRANCH   3   6
ENDBRANCH   1   2
BRANCH   1  13
ATOM     13  C   UNL d   1      33.091  22.067 -21.398  0.00  0.00     0.090 C 
BRANCH  13  14
ATOM     14  N   UNL d   1      32.715  22.660 -20.967  0.00  0.00    -0.251 N 
ATOM     15  C   UNL d   1      32.193  23.221 -21.265  0.00  0.00     0.378 A 
ATOM     16  O   UNL d   1      31.994  23.662 -20.600  0.00  0.00    -0.258 OA
ATOM     17  O   UNL d   1      31.954  23.288 -22.052  0.00  0.00    -0.237 OA
ATOM     18  C   UNL d   1      32.326  23.437 -19.956  0.00  0.00     0.121 A 
ATOM     19  C   UNL d   1      32.297  23.702 -19.170  0.00  0.00     0.026 A 
ATOM     20  C   UNL d   1      32.800  22.792 -20.156  0.00  0.00     0.092 A 
ATOM     21  C   UNL d   1      32.744  23.319 -18.585  0.00  0.00     0.002 A 
ATOM     22  C   UNL d   1      33.214  22.673 -18.797  0.00  0.00     0.002 A 
ATOM     23  C   UNL d   1      33.240  22.412 -19.581  0.00  0.00     0.020 A 
ENDBRANCH  13  14
ENDBRANCH   1  13
TORSDOF 5
ENDMDL
