MODEL 1
REMARK VINA RESULT:      -5.7      0.000      0.000
REMARK  7 active torsions:
REMARK  status: ('A' for Active; 'I' for Inactive)
REMARK    1  A    between atoms: C_2  and  N_1 
REMARK    2  A    between atoms: C_4  and  C_2 
REMARK    3  A    between atoms: O_3  and  C_9 
REMARK    4  A    between atoms: C_7  and  O_3 
REMARK    5  A    between atoms: C_9  and  C_4 
REMARK    6  A    between atoms: C_10  and  C_12 
REMARK    7  A    between atoms: C_17  and  C_10 
ROOT
ATOM      1  N   UNL d   1     -44.774  12.891  21.880  0.00  0.00    -0.300 N 
ATOM      2  C   UNL d   1     -45.253  13.523  21.923  0.00  0.00     0.080 A 
ATOM      3  C   UNL d   1     -44.896  12.221  22.384  0.00  0.00     0.080 A 
ATOM      4  C   UNL d   1     -46.012  12.901  22.957  0.00  0.00     0.003 A 
ATOM      5  C   UNL d   1     -45.879  13.534  22.465  0.00  0.00     0.019 A 
ATOM      6  C   UNL d   1     -45.522  12.238  22.921  0.00  0.00     0.019 A 
ENDROOT
BRANCH   1   7
ATOM      7  C   UNL d   1     -44.143  12.916  21.311  0.00  0.00     0.125 C 
BRANCH   7   8
ATOM      8  C   UNL d   1     -43.332  12.816  21.556  0.00  0.00     0.238 C 
ATOM      9  O   UNL d   1     -43.079  12.107  21.886  0.00  0.00    -0.283 OA
BRANCH   8  10
ATOM     10  C   UNL d   1     -42.808  13.443  21.454  0.00  0.00     0.166 C 
BRANCH  10  11
ATOM     11  O   UNL d   1     -42.101  13.337  21.047  0.00  0.00    -0.302 OA
BRANCH  11  12
ATOM     12  C   UNL d   1     -41.532  13.957  21.040  0.00  0.00     0.100 A 
ATOM     13  C   UNL d   1     -40.728  13.803  21.270  0.00  0.00     0.026 A 
ATOM     14  C   UNL d   1     -40.167  14.408  21.265  0.00  0.00     0.013 A 
ATOM     15  C   UNL d   1     -40.382  15.165  21.037  0.00  0.00     0.058 A 
ATOM     16  C   UNL d   1     -41.164  15.332  20.809  0.00  0.00     0.013 A 
ATOM     17 CL   UNL d   1     -39.802  15.789  21.031  0.00  0.00    -0.082 Cl
ATOM     18  C   UNL d   1     -41.727  14.731  20.813  0.00  0.00     0.026 A 
ENDBRANCH  11  12
ENDBRANCH  10  11
ENDBRANCH   8  10
ENDBRANCH   7   8
ENDBRANCH   1   7
BRANCH   4  19
ATOM     19  C   UNL d   1     -46.680  12.929  23.525  0.00  0.00     0.000 C 
BRANCH  19  20
ATOM     20  C   UNL d   1     -47.387  12.524  23.349  0.00  0.00     0.000 A 
ATOM     21  C   UNL d   1     -47.939  12.843  22.845  0.00  0.00     0.000 A 
ATOM     22  C   UNL d   1     -48.645  12.428  22.676  0.00  0.00     0.000 A 
ATOM     23  C   UNL d   1     -48.768  11.696  23.027  0.00  0.00     0.000 A 
ATOM     24  C   UNL d   1     -48.215  11.377  23.531  0.00  0.00     0.000 A 
ATOM     25  C   UNL d   1     -47.525  11.781  23.698  0.00  0.00     0.000 A 
ENDBRANCH  19  20
ENDBRANCH   4  19
TORSDOF 7
ENDMDL
MODEL 2
REMARK VINA RESULT:      -5.4      3.255      4.213
REMARK  7 active torsions:
REMARK  status: ('A' for Active; 'I' for Inactive)
REMARK    1  A    between atoms: C_2  and  N_1 
REMARK    2  A    between atoms: C_4  and  C_2 
REMARK    3  A    between atoms: O_3  and  C_9 
REMARK    4  A    between atoms: C_7  and  O_3 
REMARK    5  A    between atoms: C_9  and  C_4 
REMARK    6  A    between atoms: C_10  and  C_12 
REMARK    7  A    between atoms: C_17  and  C_10 
ROOT
ATOM      1  N   UNL d   1     -47.207  13.957  23.158  0.00  0.00    -0.300 N 
ATOM      2  C   UNL d   1     -47.409  14.562  22.685  0.00  0.00     0.080 A 
ATOM      3  C   UNL d   1     -47.802  13.492  23.542  0.00  0.00     0.080 A 
ATOM      4  C   UNL d   1     -48.793  14.309  22.921  0.00  0.00     0.003 A 
ATOM      5  C   UNL d   1     -48.208  14.744  22.561  0.00  0.00     0.019 A 
ATOM      6  C   UNL d   1     -48.596  13.679  23.414  0.00  0.00     0.019 A 
ENDROOT
BRANCH   1   7
ATOM      7  C   UNL d   1     -46.378  13.801  23.261  0.00  0.00     0.125 C 
BRANCH   7   8
ATOM      8  C   UNL d   1     -45.949  13.332  22.693  0.00  0.00     0.238 C 
ATOM      9  O   UNL d   1     -45.797  13.624  21.938  0.00  0.00    -0.283 OA
BRANCH   8  10
ATOM     10  C   UNL d   1     -45.690  12.582  22.913  0.00  0.00     0.166 C 
BRANCH  10  11
ATOM     11  O   UNL d   1     -44.930  12.329  22.724  0.00  0.00    -0.302 OA
BRANCH  11  12
ATOM     12  C   UNL d   1     -44.678  11.564  22.969  0.00  0.00     0.100 A 
ATOM     13  C   UNL d   1     -43.866  11.332  22.875  0.00  0.00     0.026 A 
ATOM     14  C   UNL d   1     -43.613  10.583  23.114  0.00  0.00     0.013 A 
ATOM     15  C   UNL d   1     -44.147  10.057  23.444  0.00  0.00     0.058 A 
ATOM     16  C   UNL d   1     -44.945  10.269  23.542  0.00  0.00     0.013 A 
ATOM     17 CL   UNL d   1     -43.886   9.283  23.690  0.00  0.00    -0.082 Cl
ATOM     18  C   UNL d   1     -45.201  11.015  23.305  0.00  0.00     0.026 A 
ENDBRANCH  11  12
ENDBRANCH  10  11
ENDBRANCH   8  10
ENDBRANCH   7   8
ENDBRANCH   1   7
BRANCH   4  19
ATOM     19  C   UNL d   1     -49.633  14.516  22.778  0.00  0.00     0.000 C 
BRANCH  19  20
ATOM     20  C   UNL d   1     -50.117  13.996  22.343  0.00  0.00     0.000 A 
ATOM     21  C   UNL d   1     -50.511  13.386  22.708  0.00  0.00     0.000 A 
ATOM     22  C   UNL d   1     -50.995  12.869  22.262  0.00  0.00     0.000 A 
ATOM     23  C   UNL d   1     -51.061  12.990  21.452  0.00  0.00     0.000 A 
ATOM     24  C   UNL d   1     -50.667  13.600  21.087  0.00  0.00     0.000 A 
ATOM     25  C   UNL d   1     -50.194  14.106  21.522  0.00  0.00     0.000 A 
ENDBRANCH  19  20
ENDBRANCH   4  19
TORSDOF 7
ENDMDL
MODEL 3
REMARK VINA RESULT:      -5.3      2.081      3.627
REMARK  7 active torsions:
REMARK  status: ('A' for Active; 'I' for Inactive)
REMARK    1  A    between atoms: C_2  and  N_1 
REMARK    2  A    between atoms: C_4  and  C_2 
REMARK    3  A    between atoms: O_3  and  C_9 
REMARK    4  A    between atoms: C_7  and  O_3 
REMARK    5  A    between atoms: C_9  and  C_4 
REMARK    6  A    between atoms: C_10  and  C_12 
REMARK    7  A    between atoms: C_17  and  C_10 
ROOT
ATOM      1  N   UNL d   1     -47.873  11.952  23.012  0.00  0.00    -0.300 N 
ATOM      2  C   UNL d   1     -48.372  11.941  23.630  0.00  0.00     0.080 A 
ATOM      3  C   UNL d   1     -48.141  12.186  22.243  0.00  0.00     0.080 A 
ATOM      4  C   UNL d   1     -49.440  12.389  22.798  0.00  0.00     0.003 A 
ATOM      5  C   UNL d   1     -49.164  12.161  23.528  0.00  0.00     0.019 A 
ATOM      6  C   UNL d   1     -48.932  12.404  22.149  0.00  0.00     0.019 A 
ENDROOT
BRANCH   1   7
ATOM      7  C   UNL d   1     -47.068  11.720  23.155  0.00  0.00     0.125 C 
BRANCH   7   8
ATOM      8  C   UNL d   1     -46.445  12.301  23.185  0.00  0.00     0.238 C 
ATOM      9  O   UNL d   1     -46.495  12.943  23.697  0.00  0.00    -0.283 OA
BRANCH   8  10
ATOM     10  C   UNL d   1     -45.793  12.208  22.691  0.00  0.00     0.166 C 
BRANCH  10  11
ATOM     11  O   UNL d   1     -45.032  12.348  22.970  0.00  0.00    -0.302 OA
BRANCH  11  12
ATOM     12  C   UNL d   1     -44.412  12.496  22.421  0.00  0.00     0.100 A 
ATOM     13  C   UNL d   1     -43.747  11.967  22.374  0.00  0.00     0.026 A 
ATOM     14  C   UNL d   1     -43.137  12.108  21.836  0.00  0.00     0.013 A 
ATOM     15  C   UNL d   1     -43.167  12.761  21.343  0.00  0.00     0.058 A 
ATOM     16  C   UNL d   1     -43.810  13.287  21.377  0.00  0.00     0.013 A 
ATOM     17 CL   UNL d   1     -42.536  12.906  20.788  0.00  0.00    -0.082 Cl
ATOM     18  C   UNL d   1     -44.421  13.151  21.911  0.00  0.00     0.026 A 
ENDBRANCH  11  12
ENDBRANCH  10  11
ENDBRANCH   8  10
ENDBRANCH   7   8
ENDBRANCH   1   7
BRANCH   4  19
ATOM     19  C   UNL d   1     -50.282  12.618  22.709  0.00  0.00     0.000 C 
BRANCH  19  20
ATOM     20  C   UNL d   1     -50.507  13.411  22.832  0.00  0.00     0.000 A 
ATOM     21  C   UNL d   1     -50.842  13.648  23.534  0.00  0.00     0.000 A 
ATOM     22  C   UNL d   1     -51.064  14.446  23.646  0.00  0.00     0.000 A 
ATOM     23  C   UNL d   1     -50.939  14.983  23.037  0.00  0.00     0.000 A 
ATOM     24  C   UNL d   1     -50.604  14.745  22.335  0.00  0.00     0.000 A 
ATOM     25  C   UNL d   1     -50.386  13.966  22.223  0.00  0.00     0.000 A 
ENDBRANCH  19  20
ENDBRANCH   4  19
TORSDOF 7
ENDMDL
MODEL 4
REMARK VINA RESULT:      -5.0      2.355      6.423
REMARK  7 active torsions:
REMARK  status: ('A' for Active; 'I' for Inactive)
REMARK    1  A    between atoms: C_2  and  N_1 
REMARK    2  A    between atoms: C_4  and  C_2 
REMARK    3  A    between atoms: O_3  and  C_9 
REMARK    4  A    between atoms: C_7  and  O_3 
REMARK    5  A    between atoms: C_9  and  C_4 
REMARK    6  A    between atoms: C_10  and  C_12 
REMARK    7  A    between atoms: C_17  and  C_10 
ROOT
ATOM      1  N   UNL d   1     -41.852  13.827  21.111  0.00  0.00    -0.300 N 
ATOM      2  C   UNL d   1     -41.218  13.471  20.793  0.00  0.00     0.080 A 
ATOM      3  C   UNL d   1     -41.999  14.651  20.975  0.00  0.00     0.080 A 
ATOM      4  C   UNL d   1     -40.814  14.694  20.181  0.00  0.00     0.003 A 
ATOM      5  C   UNL d   1     -40.690  13.903  20.322  0.00  0.00     0.019 A 
ATOM      6  C   UNL d   1     -41.469  15.075  20.506  0.00  0.00     0.019 A 
ENDROOT
BRANCH   1   7
ATOM      7  C   UNL d   1     -42.371  13.351  21.587  0.00  0.00     0.125 C 
BRANCH   7   8
ATOM      8  C   UNL d   1     -43.104  13.052  21.270  0.00  0.00     0.238 C 
ATOM      9  O   UNL d   1     -43.107  12.579  20.597  0.00  0.00    -0.283 OA
BRANCH   8  10
ATOM     10  C   UNL d   1     -43.808  13.247  21.650  0.00  0.00     0.166 C 
BRANCH  10  11
ATOM     11  O   UNL d   1     -44.353  12.663  21.846  0.00  0.00    -0.302 OA
BRANCH  11  12
ATOM     12  C   UNL d   1     -45.071  12.881  22.228  0.00  0.00     0.100 A 
ATOM     13  C   UNL d   1     -45.459  12.335  22.751  0.00  0.00     0.026 A 
ATOM     14  C   UNL d   1     -46.163  12.544  23.128  0.00  0.00     0.013 A 
ATOM     15  C   UNL d   1     -46.494  13.283  22.999  0.00  0.00     0.058 A 
ATOM     16  C   UNL d   1     -46.126  13.827  22.490  0.00  0.00     0.013 A 
ATOM     17 CL   UNL d   1     -47.221  13.498  23.388  0.00  0.00    -0.082 Cl
ATOM     18  C   UNL d   1     -45.424  13.623  22.112  0.00  0.00     0.026 A 
ENDBRANCH  11  12
ENDBRANCH  10  11
ENDBRANCH   8  10
ENDBRANCH   7   8
ENDBRANCH   1   7
BRANCH   4  19
ATOM     19  C   UNL d   1     -40.246  15.136  19.681  0.00  0.00     0.000 C 
BRANCH  19  20
ATOM     20  C   UNL d   1     -40.369  15.180  18.858  0.00  0.00     0.000 A 
ATOM     21  C   UNL d   1     -40.171  14.560  18.371  0.00  0.00     0.000 A 
ATOM     22  C   UNL d   1     -40.298  14.614  17.546  0.00  0.00     0.000 A 
ATOM     23  C   UNL d   1     -40.627  15.302  17.241  0.00  0.00     0.000 A 
ATOM     24  C   UNL d   1     -40.825  15.922  17.728  0.00  0.00     0.000 A 
ATOM     25  C   UNL d   1     -40.701  15.871  18.534  0.00  0.00     0.000 A 
ENDBRANCH  19  20
ENDBRANCH   4  19
TORSDOF 7
ENDMDL
MODEL 5
REMARK VINA RESULT:      -4.3      2.047      6.326
REMARK  7 active torsions:
REMARK  status: ('A' for Active; 'I' for Inactive)
REMARK    1  A    between atoms: C_2  and  N_1 
REMARK    2  A    between atoms: C_4  and  C_2 
REMARK    3  A    between atoms: O_3  and  C_9 
REMARK    4  A    between atoms: C_7  and  O_3 
REMARK    5  A    between atoms: C_9  and  C_4 
REMARK    6  A    between atoms: C_10  and  C_12 
REMARK    7  A    between atoms: C_17  and  C_10 
ROOT
ATOM      1  N   UNL d   1     -42.130  13.740  20.841  0.00  0.00    -0.300 N 
ATOM      2  C   UNL d   1     -41.447  13.355  20.716  0.00  0.00     0.080 A 
ATOM      3  C   UNL d   1     -42.133  14.570  21.011  0.00  0.00     0.080 A 
ATOM      4  C   UNL d   1     -40.709  14.559  20.914  0.00  0.00     0.003 A 
ATOM      5  C   UNL d   1     -40.727  13.763  20.752  0.00  0.00     0.019 A 
ATOM      6  C   UNL d   1     -41.412  14.971  21.045  0.00  0.00     0.019 A 
ENDROOT
BRANCH   1   7
ATOM      7  C   UNL d   1     -42.848  13.288  20.796  0.00  0.00     0.125 C 
BRANCH   7   8
ATOM      8  C   UNL d   1     -43.175  12.918  21.491  0.00  0.00     0.238 C 
ATOM      9  O   UNL d   1     -42.757  12.329  21.887  0.00  0.00    -0.283 OA
BRANCH   8  10
ATOM     10  C   UNL d   1     -43.915  13.160  21.758  0.00  0.00     0.166 C 
BRANCH  10  11
ATOM     11  O   UNL d   1     -44.459  12.610  22.040  0.00  0.00    -0.302 OA
BRANCH  11  12
ATOM     12  C   UNL d   1     -45.193  12.880  22.350  0.00  0.00     0.100 A 
ATOM     13  C   UNL d   1     -45.652  12.377  22.859  0.00  0.00     0.026 A 
ATOM     14  C   UNL d   1     -46.374  12.636  23.166  0.00  0.00     0.013 A 
ATOM     15  C   UNL d   1     -46.652  13.384  22.981  0.00  0.00     0.058 A 
ATOM     16  C   UNL d   1     -46.215  13.888  22.485  0.00  0.00     0.013 A 
ATOM     17 CL   UNL d   1     -47.397  13.652  23.298  0.00  0.00    -0.082 Cl
ATOM     18  C   UNL d   1     -45.495  13.633  22.177  0.00  0.00     0.026 A 
ENDBRANCH  11  12
ENDBRANCH  10  11
ENDBRANCH   8  10
ENDBRANCH   7   8
ENDBRANCH   1   7
BRANCH   4  19
ATOM     19  C   UNL d   1     -39.938  14.975  20.948  0.00  0.00     0.000 C 
BRANCH  19  20
ATOM     20  C   UNL d   1     -39.555  15.072  21.682  0.00  0.00     0.000 A 
ATOM     21  C   UNL d   1     -39.169  14.452  22.039  0.00  0.00     0.000 A 
ATOM     22  C   UNL d   1     -38.788  14.560  22.776  0.00  0.00     0.000 A 
ATOM     23  C   UNL d   1     -38.812  15.302  23.128  0.00  0.00     0.000 A 
ATOM     24  C   UNL d   1     -39.198  15.922  22.771  0.00  0.00     0.000 A 
ATOM     25  C   UNL d   1     -39.571  15.818  22.051  0.00  0.00     0.000 A 
ENDBRANCH  19  20
ENDBRANCH   4  19
TORSDOF 7
ENDMDL
