MODEL 1
REMARK VINA RESULT:      -8.7      0.000      0.000
REMARK  3 active torsions:
REMARK  status: ('A' for Active; 'I' for Inactive)
REMARK    1  A    between atoms: C_8  and  C_2 
REMARK    2  A    between atoms: C_7  and  C_5 
REMARK    3  A    between atoms: C_10  and  C_8 
ROOT
ATOM      1  C   UNL d   1     -49.166  12.561  22.988  0.00  0.00     0.101 A 
ATOM      2  O   UNL d   1     -48.481  12.747  23.385  0.00  0.00    -0.307 OA
ATOM      3  C   UNL d   1     -47.999  12.067  23.362  0.00  0.00     0.101 A 
ATOM      4  C   UNL d   1     -49.088  11.792  22.737  0.00  0.00     0.027 A 
ATOM      5  C   UNL d   1     -48.365  11.519  22.981  0.00  0.00     0.027 A 
ENDROOT
BRANCH   1   6
ATOM      6  C   UNL d   1     -49.799  13.083  22.879  0.00  0.00     0.034 A 
ATOM      7  C   UNL d   1     -50.016  13.298  22.086  0.00  0.00     0.070 A 
ATOM      8  C   UNL d   1     -50.663  13.831  21.963  0.00  0.00     0.068 A 
ATOM      9 CL   UNL d   1     -49.632  13.023  21.335  0.00  0.00    -0.081 Cl
ATOM     10 CL   UNL d   1     -50.761  13.950  21.162  0.00  0.00    -0.082 Cl
ATOM     11  C   UNL d   1     -51.064  14.125  22.628  0.00  0.00     0.012 A 
ATOM     12  C   UNL d   1     -50.835  13.900  23.404  0.00  0.00     0.001 A 
ATOM     13  C   UNL d   1     -50.216  13.391  23.517  0.00  0.00     0.003 A 
ENDBRANCH   1   6
BRANCH   3  14
ATOM     14  C   UNL d   1     -47.233  11.972  23.693  0.00  0.00     0.036 C 
BRANCH  14  15
ATOM     15  C   UNL d   1     -46.590  12.333  23.323  0.00  0.00     0.094 A 
ATOM     16  C   UNL d   1     -45.850  11.984  23.327  0.00  0.00     0.288 A 
ATOM     17  N   UNL d   1     -45.315  12.479  22.911  0.00  0.00    -0.163 NA
ATOM     18  O   UNL d   1     -45.647  11.229  23.698  0.00  0.00    -0.265 OA
ATOM     19  C   UNL d   1     -45.727  13.089  22.676  0.00  0.00     0.313 A 
ATOM     20  S   UNL d   1     -46.529  13.036  22.914  0.00  0.00    -0.021 SA
ATOM     21  O   UNL d   1     -45.339  13.688  22.240  0.00  0.00    -0.258 OA
ENDBRANCH  14  15
ENDBRANCH   3  14
TORSDOF 3
ENDMDL
MODEL 2
REMARK VINA RESULT:      -7.9      2.388      4.205
REMARK  3 active torsions:
REMARK  status: ('A' for Active; 'I' for Inactive)
REMARK    1  A    between atoms: C_8  and  C_2 
REMARK    2  A    between atoms: C_7  and  C_5 
REMARK    3  A    between atoms: C_10  and  C_8 
ROOT
ATOM      1  C   UNL d   1     -48.583  12.357  22.416  0.00  0.00     0.101 A 
ATOM      2  O   UNL d   1     -49.238  12.724  22.730  0.00  0.00    -0.307 OA
ATOM      3  C   UNL d   1     -49.797  12.782  22.115  0.00  0.00     0.101 A 
ATOM      4  C   UNL d   1     -48.754  12.204  21.636  0.00  0.00     0.027 A 
ATOM      5  C   UNL d   1     -49.502  12.476  21.484  0.00  0.00     0.027 A 
ENDROOT
BRANCH   1   6
ATOM      6  C   UNL d   1     -47.894  12.188  22.841  0.00  0.00     0.034 A 
ATOM      7  C   UNL d   1     -47.255  12.748  22.815  0.00  0.00     0.070 A 
ATOM      8  C   UNL d   1     -46.544  12.585  23.246  0.00  0.00     0.068 A 
ATOM      9 CL   UNL d   1     -47.237  13.517  22.374  0.00  0.00    -0.081 Cl
ATOM     10 CL   UNL d   1     -46.019  13.200  23.135  0.00  0.00    -0.082 Cl
ATOM     11  C   UNL d   1     -46.499  11.879  23.681  0.00  0.00     0.012 A 
ATOM     12  C   UNL d   1     -47.141  11.339  23.694  0.00  0.00     0.001 A 
ATOM     13  C   UNL d   1     -47.818  11.498  23.281  0.00  0.00     0.003 A 
ENDBRANCH   1   6
BRANCH   3  14
ATOM     14  C   UNL d   1     -50.566  13.118  22.153  0.00  0.00     0.036 C 
BRANCH  14  15
ATOM     15  C   UNL d   1     -50.651  13.891  22.429  0.00  0.00     0.094 A 
ATOM     16  C   UNL d   1     -50.884  14.496  21.929  0.00  0.00     0.288 A 
ATOM     17  N   UNL d   1     -50.921  15.210  22.367  0.00  0.00    -0.163 NA
ATOM     18  O   UNL d   1     -51.064  14.415  21.086  0.00  0.00    -0.265 OA
ATOM     19  C   UNL d   1     -50.719  15.029  23.089  0.00  0.00     0.313 A 
ATOM     20  S   UNL d   1     -50.542  14.213  23.170  0.00  0.00    -0.021 SA
ATOM     21  O   UNL d   1     -50.703  15.636  23.663  0.00  0.00    -0.258 OA
ENDBRANCH  14  15
ENDBRANCH   3  14
TORSDOF 3
ENDMDL
MODEL 3
REMARK VINA RESULT:      -6.6      8.607      9.549
REMARK  3 active torsions:
REMARK  status: ('A' for Active; 'I' for Inactive)
REMARK    1  A    between atoms: C_8  and  C_2 
REMARK    2  A    between atoms: C_7  and  C_5 
REMARK    3  A    between atoms: C_10  and  C_8 
ROOT
ATOM      1  C   UNL d   1     -40.280  14.627  19.449  0.00  0.00     0.101 A 
ATOM      2  O   UNL d   1     -39.755  14.924  19.994  0.00  0.00    -0.307 OA
ATOM      3  C   UNL d   1     -40.116  14.849  20.741  0.00  0.00     0.101 A 
ATOM      4  C   UNL d   1     -40.934  14.383  19.866  0.00  0.00     0.027 A 
ATOM      5  C   UNL d   1     -40.802  14.533  20.651  0.00  0.00     0.027 A 
ENDROOT
BRANCH   1   6
ATOM      6  C   UNL d   1     -40.141  14.595  18.634  0.00  0.00     0.034 A 
ATOM      7  C   UNL d   1     -40.456  15.214  18.144  0.00  0.00     0.070 A 
ATOM      8  C   UNL d   1     -40.320  15.192  17.309  0.00  0.00     0.068 A 
ATOM      9 CL   UNL d   1     -40.933  15.914  18.410  0.00  0.00    -0.081 Cl
ATOM     10 CL   UNL d   1     -40.675  15.840  16.963  0.00  0.00    -0.082 Cl
ATOM     11  C   UNL d   1     -39.879  14.560  16.998  0.00  0.00     0.012 A 
ATOM     12  C   UNL d   1     -39.576  13.958  17.497  0.00  0.00     0.001 A 
ATOM     13  C   UNL d   1     -39.709  13.984  18.296  0.00  0.00     0.003 A 
ENDBRANCH   1   6
BRANCH   3  14
ATOM     14  C   UNL d   1     -39.802  15.076  21.486  0.00  0.00     0.036 C 
BRANCH  14  15
ATOM     15  C   UNL d   1     -39.296  14.558  21.881  0.00  0.00     0.094 A 
ATOM     16  C   UNL d   1     -38.696  14.837  22.362  0.00  0.00     0.288 A 
ATOM     17  N   UNL d   1     -38.280  14.183  22.683  0.00  0.00    -0.163 NA
ATOM     18  O   UNL d   1     -38.515  15.670  22.516  0.00  0.00    -0.265 OA
ATOM     19  C   UNL d   1     -38.624  13.552  22.402  0.00  0.00     0.313 A 
ATOM     20  S   UNL d   1     -39.264  13.743  21.896  0.00  0.00    -0.021 SA
ATOM     21  O   UNL d   1     -38.328  12.803  22.627  0.00  0.00    -0.258 OA
ENDBRANCH  14  15
ENDBRANCH   3  14
TORSDOF 3
ENDMDL
MODEL 4
REMARK VINA RESULT:      -6.3      9.428     10.371
REMARK  3 active torsions:
REMARK  status: ('A' for Active; 'I' for Inactive)
REMARK    1  A    between atoms: C_8  and  C_2 
REMARK    2  A    between atoms: C_7  and  C_5 
REMARK    3  A    between atoms: C_10  and  C_8 
ROOT
ATOM      1  C   UNL d   1     -40.237  14.937  19.250  0.00  0.00     0.101 A 
ATOM      2  O   UNL d   1     -39.835  15.314  18.652  0.00  0.00    -0.307 OA
ATOM      3  C   UNL d   1     -40.086  14.966  17.938  0.00  0.00     0.101 A 
ATOM      4  C   UNL d   1     -40.713  14.381  18.895  0.00  0.00     0.027 A 
ATOM      5  C   UNL d   1     -40.597  14.424  18.095  0.00  0.00     0.027 A 
ENDROOT
BRANCH   1   6
ATOM      6  C   UNL d   1     -40.152  15.113  20.054  0.00  0.00     0.034 A 
ATOM      7  C   UNL d   1     -39.655  14.611  20.528  0.00  0.00     0.070 A 
ATOM      8  C   UNL d   1     -39.561  14.781  21.352  0.00  0.00     0.068 A 
ATOM      9 CL   UNL d   1     -39.203  13.898  20.257  0.00  0.00    -0.081 Cl
ATOM     10 CL   UNL d   1     -39.063  14.226  21.683  0.00  0.00    -0.082 Cl
ATOM     11  C   UNL d   1     -39.960  15.438  21.668  0.00  0.00     0.012 A 
ATOM     12  C   UNL d   1     -40.446  15.921  21.184  0.00  0.00     0.001 A 
ATOM     13  C   UNL d   1     -40.533  15.755  20.396  0.00  0.00     0.003 A 
ENDBRANCH   1   6
BRANCH   3  14
ATOM     14  C   UNL d   1     -39.836  15.158  17.160  0.00  0.00     0.036 C 
BRANCH  14  15
ATOM     15  C   UNL d   1     -39.230  14.718  16.814  0.00  0.00     0.094 A 
ATOM     16  C   UNL d   1     -38.665  15.075  16.342  0.00  0.00     0.288 A 
ATOM     17  N   UNL d   1     -38.128  14.490  16.073  0.00  0.00    -0.163 NA
ATOM     18  O   UNL d   1     -38.623  15.918  16.149  0.00  0.00    -0.265 OA
ATOM     19  C   UNL d   1     -38.370  13.822  16.375  0.00  0.00     0.313 A 
ATOM     20  S   UNL d   1     -39.058  13.922  16.845  0.00  0.00    -0.021 SA
ATOM     21  O   UNL d   1     -37.940  13.126  16.203  0.00  0.00    -0.258 OA
ENDBRANCH  14  15
ENDBRANCH   3  14
TORSDOF 3
ENDMDL
MODEL 5
REMARK VINA RESULT:      -6.3      8.768      9.844
REMARK  3 active torsions:
REMARK  status: ('A' for Active; 'I' for Inactive)
REMARK    1  A    between atoms: C_8  and  C_2 
REMARK    2  A    between atoms: C_7  and  C_5 
REMARK    3  A    between atoms: C_10  and  C_8 
ROOT
ATOM      1  C   UNL d   1     -39.902  14.596  21.130  0.00  0.00     0.101 A 
ATOM      2  O   UNL d   1     -39.630  14.862  20.411  0.00  0.00    -0.307 OA
ATOM      3  C   UNL d   1     -40.297  14.946  19.918  0.00  0.00     0.101 A 
ATOM      4  C   UNL d   1     -40.710  14.525  21.060  0.00  0.00     0.027 A 
ATOM      5  C   UNL d   1     -40.918  14.747  20.310  0.00  0.00     0.027 A 
ENDROOT
BRANCH   1   6
ATOM      6  C   UNL d   1     -39.420  14.438  21.783  0.00  0.00     0.034 A 
ATOM      7  C   UNL d   1     -39.229  15.078  22.310  0.00  0.00     0.070 A 
ATOM      8  C   UNL d   1     -38.736  14.928  22.982  0.00  0.00     0.068 A 
ATOM      9 CL   UNL d   1     -39.494  15.922  22.242  0.00  0.00    -0.081 Cl
ATOM     10 CL   UNL d   1     -38.635  15.622  23.398  0.00  0.00    -0.082 Cl
ATOM     11  C   UNL d   1     -38.455  14.155  23.101  0.00  0.00     0.012 A 
ATOM     12  C   UNL d   1     -38.655  13.537  22.570  0.00  0.00     0.001 A 
ATOM     13  C   UNL d   1     -39.126  13.685  21.928  0.00  0.00     0.003 A 
ENDBRANCH   1   6
BRANCH   3  14
ATOM     14  C   UNL d   1     -40.314  15.205  19.120  0.00  0.00     0.036 C 
BRANCH  14  15
ATOM     15  C   UNL d   1     -40.139  14.666  18.521  0.00  0.00     0.094 A 
ATOM     16  C   UNL d   1     -40.491  14.723  17.784  0.00  0.00     0.288 A 
ATOM     17  N   UNL d   1     -40.205  14.102  17.298  0.00  0.00    -0.163 NA
ATOM     18  O   UNL d   1     -41.066  15.324  17.542  0.00  0.00    -0.265 OA
ATOM     19  C   UNL d   1     -39.708  13.702  17.733  0.00  0.00     0.313 A 
ATOM     20  S   UNL d   1     -39.639  14.022  18.505  0.00  0.00    -0.021 SA
ATOM     21  O   UNL d   1     -39.327  13.039  17.395  0.00  0.00    -0.258 OA
ENDBRANCH  14  15
ENDBRANCH   3  14
TORSDOF 3
ENDMDL
MODEL 6
REMARK VINA RESULT:      -6.2      8.976     10.445
REMARK  3 active torsions:
REMARK  status: ('A' for Active; 'I' for Inactive)
REMARK    1  A    between atoms: C_8  and  C_2 
REMARK    2  A    between atoms: C_7  and  C_5 
REMARK    3  A    between atoms: C_10  and  C_8 
ROOT
ATOM      1  C   UNL d   1     -39.883  14.669  17.867  0.00  0.00     0.101 A 
ATOM      2  O   UNL d   1     -39.811  15.324  18.344  0.00  0.00    -0.307 OA
ATOM      3  C   UNL d   1     -40.489  15.342  18.829  0.00  0.00     0.101 A 
ATOM      4  C   UNL d   1     -40.585  14.311  18.067  0.00  0.00     0.027 A 
ATOM      5  C   UNL d   1     -40.930  14.747  18.657  0.00  0.00     0.027 A 
ENDROOT
BRANCH   1   6
ATOM      6  C   UNL d   1     -39.326  14.442  17.298  0.00  0.00     0.034 A 
ATOM      7  C   UNL d   1     -38.923  13.700  17.399  0.00  0.00     0.070 A 
ATOM      8  C   UNL d   1     -38.352  13.458  16.823  0.00  0.00     0.068 A 
ATOM      9 CL   UNL d   1     -39.030  13.121  18.062  0.00  0.00    -0.081 Cl
ATOM     10 CL   UNL d   1     -38.045  12.734  17.041  0.00  0.00    -0.082 Cl
ATOM     11  C   UNL d   1     -38.206  13.958  16.176  0.00  0.00     0.012 A 
ATOM     12  C   UNL d   1     -38.614  14.687  16.094  0.00  0.00     0.001 A 
ATOM     13  C   UNL d   1     -39.160  14.915  16.647  0.00  0.00     0.003 A 
ENDBRANCH   1   6
BRANCH   3  14
ATOM     14  C   UNL d   1     -40.681  15.909  19.417  0.00  0.00     0.036 C 
BRANCH  14  15
ATOM     15  C   UNL d   1     -40.254  15.913  20.124  0.00  0.00     0.094 A 
ATOM     16  C   UNL d   1     -40.635  15.919  20.848  0.00  0.00     0.288 A 
ATOM     17  N   UNL d   1     -40.058  15.922  21.457  0.00  0.00    -0.163 NA
ATOM     18  O   UNL d   1     -41.492  15.922  20.970  0.00  0.00    -0.265 OA
ATOM     19  C   UNL d   1     -39.372  15.917  21.102  0.00  0.00     0.313 A 
ATOM     20  S   UNL d   1     -39.452  15.912  20.268  0.00  0.00    -0.021 SA
ATOM     21  O   UNL d   1     -38.681  15.919  21.572  0.00  0.00    -0.258 OA
ENDBRANCH  14  15
ENDBRANCH   3  14
TORSDOF 3
ENDMDL
