MODEL 1
REMARK VINA RESULT:       8.2      0.000      0.000
REMARK  5 active torsions:
REMARK  status: ('A' for Active; 'I' for Inactive)
REMARK       I    between atoms: C_3  and  N_1 
REMARK    1  A    between atoms: C_12  and  C_3 
REMARK    2  A    between atoms: C_7  and  O_10 
REMARK    3  A    between atoms: O_10  and  C_21 
REMARK    4  A    between atoms: C_22  and  C_12 
REMARK    5  A    between atoms: C_21  and  C_22 
ROOT
ATOM      1  N   UNL d   1      46.311 -18.600  43.803  0.00  0.00    -0.273 N 
ATOM      2  C   UNL d   1      46.423 -19.002  43.090  0.00  0.00     0.067 A 
ATOM      3  C   UNL d   1      46.254 -17.778  43.807  0.00  0.00     0.265 C 
ATOM      4  C   UNL d   1      46.480 -19.825  43.084  0.00  0.00     0.016 A 
ATOM      5  O   UNL d   1      46.309 -17.356  43.102  0.00  0.00    -0.267 OA
ATOM      6  C   UNL d   1      46.255 -19.022  44.508  0.00  0.00     0.083 A 
ATOM      7  C   UNL d   1      46.478 -18.580  42.384  0.00  0.00     0.018 A 
ATOM      8  C   UNL d   1      46.312 -19.845  44.502  0.00  0.00     0.019 A 
ATOM      9  C   UNL d   1      46.425 -20.247  43.790  0.00  0.00     0.003 A 
ATOM     10  C   UNL d   1      46.592 -20.226  42.372  0.00  0.00     0.001 A 
ATOM     11  C   UNL d   1      46.590 -18.981  41.671  0.00  0.00     0.002 A 
ATOM     12  C   UNL d   1      46.647 -19.804  41.666  0.00  0.00     0.000 A 
ENDROOT
BRANCH   3  13
ATOM     13  C   UNL d   1      46.141 -17.376  44.520  0.00  0.00     0.063 C 
BRANCH  13  14
ATOM     14  C   UNL d   1      46.406 -16.598  44.602  0.00  0.00     0.032 C 
BRANCH  14  15
ATOM     15  C   UNL d   1      45.894 -16.018  44.887  0.00  0.00     0.123 C 
BRANCH  15  16
ATOM     16  O   UNL d   1      46.138 -15.229  44.911  0.00  0.00    -0.305 OA
BRANCH  16  17
ATOM     17  C   UNL d   1      45.639 -14.635  44.630  0.00  0.00     0.100 A 
ATOM     18  C   UNL d   1      45.885 -13.847  44.650  0.00  0.00     0.023 A 
ATOM     19  C   UNL d   1      45.387 -13.253  44.369  0.00  0.00     0.002 A 
ATOM     20  C   UNL d   1      46.628 -13.655  44.951  0.00  0.00     0.002 C 
ATOM     21  C   UNL d   1      45.634 -12.474  44.390  0.00  0.00     0.000 C 
ATOM     22  C   UNL d   1      44.644 -13.446  44.068  0.00  0.00     0.000 A 
ATOM     23  C   UNL d   1      44.399 -14.233  44.048  0.00  0.00     0.002 A 
ATOM     24  C   UNL d   1      44.897 -14.828  44.329  0.00  0.00     0.025 A 
ENDBRANCH  16  17
ENDBRANCH  15  16
ENDBRANCH  14  15
ENDBRANCH  13  14
ENDBRANCH   3  13
TORSDOF 5
ENDMDL
