MODEL 1
REMARK VINA RESULT:      -3.8      0.000      0.000
REMARK  3 active torsions:
REMARK  status: ('A' for Active; 'I' for Inactive)
REMARK    1  A    between atoms: C_7  and  N_1 
REMARK    2  A    between atoms: C_13  and  C_7 
REMARK    3  A    between atoms: O_18  and  C_10 
ROOT
ATOM      1  N   UNL d   1      57.819   0.678  31.690  0.00  0.00    -0.226 N 
ATOM      2  C   UNL d   1      58.355   0.679  32.267  0.00  0.00     0.343 A 
ATOM      3  N   UNL d   1      59.197   0.677  31.951  0.00  0.00    -0.241 N 
ATOM      4  C   UNL d   1      58.081   0.676  30.979  0.00  0.00     0.273 A 
ATOM      5  C   UNL d   1      59.258   0.675  31.218  0.00  0.00     0.158 A 
ATOM      6  C   UNL d   1      58.668   0.674  30.636  0.00  0.00     0.113 A 
ATOM      7  N   UNL d   1      60.055   0.673  31.000  0.00  0.00    -0.226 NA
ATOM      8  O   UNL d   1      58.379   0.681  32.821  0.00  0.00    -0.245 OA
ATOM      9  C   UNL d   1      58.877   0.672  29.835  0.00  0.00     0.103 A 
ATOM     10  O   UNL d   1      57.680   0.675  30.629  0.00  0.00    -0.266 OA
ATOM     11  C   UNL d   1      59.779   0.678  32.440  0.00  0.00     0.105 C 
ATOM     12  C   UNL d   1      60.264   0.671  30.201  0.00  0.00     0.103 A 
ATOM     13  C   UNL d   1      59.674   0.670  29.618  0.00  0.00     0.045 A 
ENDROOT
BRANCH   1  14
ATOM     14  C   UNL d   1      57.012   0.680  31.858  0.00  0.00     0.087 C 
BRANCH  14  15
ATOM     15  C   UNL d   1      56.658   0.033  32.217  0.00  0.00     0.018 A 
ATOM     16  C   UNL d   1      56.334   0.106  32.988  0.00  0.00     0.002 A 
ATOM     17  C   UNL d   1      55.981  -0.529  33.354  0.00  0.00     0.011 A 
ATOM     18  C   UNL d   1      55.943  -1.243  32.962  0.00  0.00     0.058 A 
ATOM     19  C   UNL d   1      56.259  -1.327  32.200  0.00  0.00     0.011 A 
ATOM     20 CL   UNL d   1      55.585  -1.889  33.329  0.00  0.00    -0.082 Cl
ATOM     21  C   UNL d   1      56.612  -0.697  31.833  0.00  0.00     0.002 A 
ENDBRANCH  14  15
ENDBRANCH   1  14
BRANCH   9  22
ATOM     22  O   UNL d   1      58.205   0.671  29.206  0.00  0.00    -0.328 OA
ATOM     23  C   UNL d   1      58.315   0.307  28.474  0.00  0.00     0.181 C 
ENDBRANCH   9  22
TORSDOF 3
ENDMDL
MODEL 2
REMARK VINA RESULT:      -2.9      2.107      2.782
REMARK  3 active torsions:
REMARK  status: ('A' for Active; 'I' for Inactive)
REMARK    1  A    between atoms: C_7  and  N_1 
REMARK    2  A    between atoms: C_13  and  C_7 
REMARK    3  A    between atoms: O_18  and  C_10 
ROOT
ATOM      1  N   UNL d   1      58.360  -0.734  29.660  0.00  0.00    -0.226 N 
ATOM      2  C   UNL d   1      58.220  -1.501  29.772  0.00  0.00     0.343 A 
ATOM      3  N   UNL d   1      58.890  -2.018  29.471  0.00  0.00    -0.241 N 
ATOM      4  C   UNL d   1      59.015  -0.551  29.326  0.00  0.00     0.273 A 
ATOM      5  C   UNL d   1      59.456  -1.657  29.170  0.00  0.00     0.158 A 
ATOM      6  C   UNL d   1      59.572  -0.842  29.067  0.00  0.00     0.113 A 
ATOM      7  N   UNL d   1      60.032  -2.193  28.916  0.00  0.00    -0.226 NA
ATOM      8  O   UNL d   1      57.829  -1.831  29.984  0.00  0.00    -0.245 OA
ATOM      9  C   UNL d   1      60.265  -0.566  28.709  0.00  0.00     0.103 A 
ATOM     10  O   UNL d   1      59.061  -0.023  29.274  0.00  0.00    -0.266 OA
ATOM     11  C   UNL d   1      58.838  -2.774  29.539  0.00  0.00     0.105 C 
ATOM     12  C   UNL d   1      60.723  -1.916  28.559  0.00  0.00     0.103 A 
ATOM     13  C   UNL d   1      60.840  -1.102  28.455  0.00  0.00     0.045 A 
ENDROOT
BRANCH   1  14
ATOM     14  C   UNL d   1      57.816  -0.162  29.896  0.00  0.00     0.087 C 
BRANCH  14  15
ATOM     15  C   UNL d   1      57.686  -0.012  30.693  0.00  0.00     0.018 A 
ATOM     16  C   UNL d   1      57.058  -0.398  31.095  0.00  0.00     0.002 A 
ATOM     17  C   UNL d   1      56.920  -0.257  31.884  0.00  0.00     0.011 A 
ATOM     18  C   UNL d   1      57.400   0.268  32.285  0.00  0.00     0.058 A 
ATOM     19  C   UNL d   1      58.022   0.655  31.897  0.00  0.00     0.011 A 
ATOM     20 CL   UNL d   1      57.263   0.414  33.085  0.00  0.00    -0.082 Cl
ATOM     21  C   UNL d   1      58.163   0.516  31.112  0.00  0.00     0.002 A 
ENDBRANCH  14  15
ENDBRANCH   1  14
BRANCH   9  22
ATOM     22  O   UNL d   1      60.372   0.343  28.605  0.00  0.00    -0.328 OA
ATOM     23  C   UNL d   1      61.124   0.682  28.619  0.00  0.00     0.181 C 
ENDBRANCH   9  22
TORSDOF 3
ENDMDL
MODEL 3
REMARK VINA RESULT:      -2.9      1.036      1.844
REMARK  3 active torsions:
REMARK  status: ('A' for Active; 'I' for Inactive)
REMARK    1  A    between atoms: C_7  and  N_1 
REMARK    2  A    between atoms: C_13  and  C_7 
REMARK    3  A    between atoms: O_18  and  C_10 
ROOT
ATOM      1  N   UNL d   1      57.782   0.682  31.322  0.00  0.00    -0.226 N 
ATOM      2  C   UNL d   1      57.292   0.682  30.706  0.00  0.00     0.343 A 
ATOM      3  N   UNL d   1      57.729   0.682  29.921  0.00  0.00    -0.241 N 
ATOM      4  C   UNL d   1      58.525   0.682  31.169  0.00  0.00     0.273 A 
ATOM      5  C   UNL d   1      58.463   0.682  29.970  0.00  0.00     0.158 A 
ATOM      6  C   UNL d   1      58.952   0.682  30.639  0.00  0.00     0.113 A 
ATOM      7  N   UNL d   1      58.798   0.682  29.213  0.00  0.00    -0.226 NA
ATOM      8  O   UNL d   1      56.748   0.682  30.600  0.00  0.00    -0.245 OA
ATOM      9  C   UNL d   1      59.774   0.682  30.552  0.00  0.00     0.103 A 
ATOM     10  O   UNL d   1      58.811   0.682  31.617  0.00  0.00    -0.266 OA
ATOM     11  C   UNL d   1      57.333   0.682  29.272  0.00  0.00     0.105 C 
ATOM     12  C   UNL d   1      59.619   0.682  29.126  0.00  0.00     0.103 A 
ATOM     13  C   UNL d   1      60.108   0.682  29.796  0.00  0.00     0.045 A 
ENDROOT
BRANCH   1  14
ATOM     14  C   UNL d   1      57.497   0.682  32.095  0.00  0.00     0.087 C 
BRANCH  14  15
ATOM     15  C   UNL d   1      56.942   0.127  32.337  0.00  0.00     0.018 A 
ATOM     16  C   UNL d   1      57.160  -0.681  32.407  0.00  0.00     0.002 A 
ATOM     17  C   UNL d   1      56.619  -1.239  32.646  0.00  0.00     0.011 A 
ATOM     18  C   UNL d   1      55.856  -1.006  32.818  0.00  0.00     0.058 A 
ATOM     19  C   UNL d   1      55.630  -0.210  32.751  0.00  0.00     0.011 A 
ATOM     20 CL   UNL d   1      55.304  -1.568  33.061  0.00  0.00    -0.082 Cl
ATOM     21  C   UNL d   1      56.167   0.348  32.514  0.00  0.00     0.002 A 
ENDBRANCH  14  15
ENDBRANCH   1  14
BRANCH   9  22
ATOM     22  O   UNL d   1      60.296   0.682  31.310  0.00  0.00    -0.328 OA
ATOM     23  C   UNL d   1      61.118   0.634  31.255  0.00  0.00     0.181 C 
ENDBRANCH   9  22
TORSDOF 3
ENDMDL
MODEL 4
REMARK VINA RESULT:      -2.9      2.635      3.927
REMARK  3 active torsions:
REMARK  status: ('A' for Active; 'I' for Inactive)
REMARK    1  A    between atoms: C_7  and  N_1 
REMARK    2  A    between atoms: C_13  and  C_7 
REMARK    3  A    between atoms: O_18  and  C_10 
ROOT
ATOM      1  N   UNL d   1      58.581  -1.004  29.449  0.00  0.00    -0.226 N 
ATOM      2  C   UNL d   1      59.160  -0.479  29.351  0.00  0.00     0.343 A 
ATOM      3  N   UNL d   1      59.179   0.135  30.007  0.00  0.00    -0.241 N 
ATOM      4  C   UNL d   1      58.141  -0.918  30.060  0.00  0.00     0.273 A 
ATOM      5  C   UNL d   1      58.663   0.057  30.525  0.00  0.00     0.158 A 
ATOM      6  C   UNL d   1      58.064  -0.511  30.599  0.00  0.00     0.113 A 
ATOM      7  N   UNL d   1      58.741   0.654  31.093  0.00  0.00    -0.226 NA
ATOM      8  O   UNL d   1      59.570  -0.365  28.996  0.00  0.00    -0.245 OA
ATOM      9  C   UNL d   1      57.544  -0.482  31.241  0.00  0.00     0.103 A 
ATOM     10  O   UNL d   1      57.767  -1.297  30.080  0.00  0.00    -0.266 OA
ATOM     11  C   UNL d   1      59.707   0.682  29.991  0.00  0.00     0.105 C 
ATOM     12  C   UNL d   1      58.220   0.682  31.734  0.00  0.00     0.103 A 
ATOM     13  C   UNL d   1      57.621   0.114  31.808  0.00  0.00     0.045 A 
ENDROOT
BRANCH   1  14
ATOM     14  C   UNL d   1      58.464  -1.616  28.910  0.00  0.00     0.087 C 
BRANCH  14  15
ATOM     15  C   UNL d   1      58.974  -2.260  28.890  0.00  0.00     0.018 A 
ATOM     16  C   UNL d   1      58.683  -3.031  29.047  0.00  0.00     0.002 A 
ATOM     17  C   UNL d   1      59.179  -3.675  29.029  0.00  0.00     0.011 A 
ATOM     18  C   UNL d   1      59.969  -3.565  28.856  0.00  0.00     0.058 A 
ATOM     19  C   UNL d   1      60.267  -2.807  28.699  0.00  0.00     0.011 A 
ATOM     20 CL   UNL d   1      60.476  -4.215  28.837  0.00  0.00    -0.082 Cl
ATOM     21  C   UNL d   1      59.776  -2.164  28.716  0.00  0.00     0.002 A 
ENDBRANCH  14  15
ENDBRANCH   1  14
BRANCH   9  22
ATOM     22  O   UNL d   1      56.887  -1.124  31.302  0.00  0.00    -0.328 OA
ATOM     23  C   UNL d   1      56.417  -1.183  31.978  0.00  0.00     0.181 C 
ENDBRANCH   9  22
TORSDOF 3
ENDMDL
MODEL 5
REMARK VINA RESULT:      -2.5      2.062      3.956
REMARK  3 active torsions:
REMARK  status: ('A' for Active; 'I' for Inactive)
REMARK    1  A    between atoms: C_7  and  N_1 
REMARK    2  A    between atoms: C_13  and  C_7 
REMARK    3  A    between atoms: O_18  and  C_10 
ROOT
ATOM      1  N   UNL d   1      56.671   0.681  32.591  0.00  0.00    -0.226 N 
ATOM      2  C   UNL d   1      57.380   0.682  32.933  0.00  0.00     0.343 A 
ATOM      3  N   UNL d   1      57.327   0.682  33.830  0.00  0.00    -0.241 N 
ATOM      4  C   UNL d   1      56.068   0.681  33.051  0.00  0.00     0.273 A 
ATOM      5  C   UNL d   1      56.644   0.682  34.104  0.00  0.00     0.158 A 
ATOM      6  C   UNL d   1      55.913   0.681  33.713  0.00  0.00     0.113 A 
ATOM      7  N   UNL d   1      56.671   0.682  34.931  0.00  0.00    -0.226 NA
ATOM      8  O   UNL d   1      57.916   0.682  32.792  0.00  0.00    -0.245 OA
ATOM      9  C   UNL d   1      55.210   0.681  34.149  0.00  0.00     0.103 A 
ATOM     10  O   UNL d   1      55.616   0.681  32.771  0.00  0.00    -0.266 OA
ATOM     11  C   UNL d   1      57.966   0.682  34.242  0.00  0.00     0.105 C 
ATOM     12  C   UNL d   1      55.969   0.681  35.366  0.00  0.00     0.103 A 
ATOM     13  C   UNL d   1      55.238   0.681  34.975  0.00  0.00     0.045 A 
ENDROOT
BRANCH   1  14
ATOM     14  C   UNL d   1      56.592   0.681  31.771  0.00  0.00     0.087 C 
BRANCH  14  15
ATOM     15  C   UNL d   1      57.020   0.154  31.309  0.00  0.00     0.018 A 
ATOM     16  C   UNL d   1      56.991  -0.668  31.475  0.00  0.00     0.002 A 
ATOM     17  C   UNL d   1      57.411  -1.199  31.024  0.00  0.00     0.011 A 
ATOM     18  C   UNL d   1      57.864  -0.924  30.403  0.00  0.00     0.058 A 
ATOM     19  C   UNL d   1      57.899  -0.114  30.230  0.00  0.00     0.011 A 
ATOM     20 CL   UNL d   1      58.290  -1.459  29.944  0.00  0.00    -0.082 Cl
ATOM     21  C   UNL d   1      57.482   0.417  30.677  0.00  0.00     0.002 A 
ENDBRANCH  14  15
ENDBRANCH   1  14
BRANCH   9  22
ATOM     22  O   UNL d   1      54.411   0.681  33.693  0.00  0.00    -0.328 OA
ATOM     23  C   UNL d   1      53.695   0.631  34.099  0.00  0.00     0.181 C 
ENDBRANCH   9  22
TORSDOF 3
ENDMDL
MODEL 6
REMARK VINA RESULT:      -1.6      1.861      3.386
REMARK  3 active torsions:
REMARK  status: ('A' for Active; 'I' for Inactive)
REMARK    1  A    between atoms: C_7  and  N_1 
REMARK    2  A    between atoms: C_13  and  C_7 
REMARK    3  A    between atoms: O_18  and  C_10 
ROOT
ATOM      1  N   UNL d   1      58.015   0.179  30.893  0.00  0.00    -0.226 N 
ATOM      2  C   UNL d   1      58.764   0.336  31.081  0.00  0.00     0.343 A 
ATOM      3  N   UNL d   1      58.866   0.519  31.954  0.00  0.00    -0.241 N 
ATOM      4  C   UNL d   1      57.508   0.205  31.456  0.00  0.00     0.273 A 
ATOM      5  C   UNL d   1      58.249   0.496  32.355  0.00  0.00     0.158 A 
ATOM      6  C   UNL d   1      57.471   0.326  32.124  0.00  0.00     0.113 A 
ATOM      7  N   UNL d   1      58.418   0.673  33.145  0.00  0.00    -0.226 NA
ATOM      8  O   UNL d   1      59.261   0.370  30.838  0.00  0.00    -0.245 OA
ATOM      9  C   UNL d   1      56.863   0.334  32.684  0.00  0.00     0.103 A 
ATOM     10  O   UNL d   1      57.020   0.092  31.277  0.00  0.00    -0.266 OA
ATOM     11  C   UNL d   1      59.558   0.682  32.224  0.00  0.00     0.105 C 
ATOM     12  C   UNL d   1      57.809   0.681  33.704  0.00  0.00     0.103 A 
ATOM     13  C   UNL d   1      57.031   0.512  33.473  0.00  0.00     0.045 A 
ENDROOT
BRANCH   1  14
ATOM     14  C   UNL d   1      57.798  -0.003  30.119  0.00  0.00     0.087 C 
BRANCH  14  15
ATOM     15  C   UNL d   1      58.168  -0.614  29.713  0.00  0.00     0.018 A 
ATOM     16  C   UNL d   1      58.101  -1.403  29.992  0.00  0.00     0.002 A 
ATOM     17  C   UNL d   1      58.463  -2.016  29.598  0.00  0.00     0.011 A 
ATOM     18  C   UNL d   1      58.894  -1.856  28.924  0.00  0.00     0.058 A 
ATOM     19  C   UNL d   1      58.966  -1.080  28.640  0.00  0.00     0.011 A 
ATOM     20 CL   UNL d   1      59.262  -2.474  28.521  0.00  0.00    -0.082 Cl
ATOM     21  C   UNL d   1      58.607  -0.468  29.030  0.00  0.00     0.002 A 
ENDBRANCH  14  15
ENDBRANCH   1  14
BRANCH   9  22
ATOM     22  O   UNL d   1      56.007   0.143  32.404  0.00  0.00    -0.328 OA
ATOM     23  C   UNL d   1      55.379   0.143  32.940  0.00  0.00     0.181 C 
ENDBRANCH   9  22
TORSDOF 3
ENDMDL
MODEL 7
REMARK VINA RESULT:      -1.5      1.840      4.048
REMARK  3 active torsions:
REMARK  status: ('A' for Active; 'I' for Inactive)
REMARK    1  A    between atoms: C_7  and  N_1 
REMARK    2  A    between atoms: C_13  and  C_7 
REMARK    3  A    between atoms: O_18  and  C_10 
ROOT
ATOM      1  N   UNL d   1      57.416  -0.017  31.153  0.00  0.00    -0.226 N 
ATOM      2  C   UNL d   1      57.454  -0.718  30.796  0.00  0.00     0.343 A 
ATOM      3  N   UNL d   1      57.020  -1.358  31.254  0.00  0.00    -0.241 N 
ATOM      4  C   UNL d   1      57.034   0.014  31.807  0.00  0.00     0.273 A 
ATOM      5  C   UNL d   1      56.702  -1.137  31.879  0.00  0.00     0.158 A 
ATOM      6  C   UNL d   1      56.681  -0.386  32.229  0.00  0.00     0.113 A 
ATOM      7  N   UNL d   1      56.323  -1.775  32.245  0.00  0.00    -0.226 NA
ATOM      8  O   UNL d   1      57.669  -0.948  30.340  0.00  0.00    -0.245 OA
ATOM      9  C   UNL d   1      56.282  -0.274  32.944  0.00  0.00     0.103 A 
ATOM     10  O   UNL d   1      57.038   0.508  32.006  0.00  0.00    -0.266 OA
ATOM     11  C   UNL d   1      57.005  -2.068  30.980  0.00  0.00     0.105 C 
ATOM     12  C   UNL d   1      55.924  -1.662  32.959  0.00  0.00     0.103 A 
ATOM     13  C   UNL d   1      55.903  -0.911  33.309  0.00  0.00     0.045 A 
ENDROOT
BRANCH   1  14
ATOM     14  C   UNL d   1      57.778   0.648  30.828  0.00  0.00     0.087 C 
BRANCH  14  15
ATOM     15  C   UNL d   1      58.585   0.656  30.680  0.00  0.00     0.018 A 
ATOM     16  C   UNL d   1      58.867   0.644  29.889  0.00  0.00     0.002 A 
ATOM     17  C   UNL d   1      59.665   0.652  29.731  0.00  0.00     0.011 A 
ATOM     18  C   UNL d   1      60.194   0.670  30.352  0.00  0.00     0.058 A 
ATOM     19  C   UNL d   1      59.926   0.682  31.137  0.00  0.00     0.011 A 
ATOM     20 CL   UNL d   1      61.003   0.678  30.196  0.00  0.00    -0.082 Cl
ATOM     21  C   UNL d   1      59.133   0.674  31.298  0.00  0.00     0.002 A 
ENDBRANCH  14  15
ENDBRANCH   1  14
BRANCH   9  22
ATOM     22  O   UNL d   1      56.272   0.569  33.314  0.00  0.00    -0.328 OA
ATOM     23  C   UNL d   1      56.047   0.682  34.099  0.00  0.00     0.181 C 
ENDBRANCH   9  22
TORSDOF 3
ENDMDL
