MODEL 1
REMARK VINA RESULT:      -6.2      0.000      0.000
REMARK  4 active torsions:
REMARK  status: ('A' for Active; 'I' for Inactive)
REMARK    1  A    between atoms: C_8  and  C_1 
REMARK    2  A    between atoms: C_6  and  C_16 
REMARK    3  A    between atoms: O_13  and  C_8 
REMARK    4  A    between atoms: C_16  and  O_13 
ROOT
ATOM      1  C   UNL d   1      58.515  -0.604  29.541  0.00  0.00     0.305 C 
ATOM      2  O   UNL d   1      58.404   0.076  29.063  0.00  0.00    -0.259 OA
ENDROOT
BRANCH   1   3
ATOM      3  C   UNL d   1      59.064  -1.239  29.302  0.00  0.00     0.127 A 
ATOM      4  C   UNL d   1      59.887  -1.080  29.256  0.00  0.00     0.305 A 
ATOM      5  O   UNL d   1      60.363  -1.693  29.031  0.00  0.00    -0.273 OA
ATOM      6  O   UNL d   1      60.195  -0.338  29.430  0.00  0.00    -0.259 OA
ATOM      7  C   UNL d   1      60.069  -2.427  28.857  0.00  0.00     0.103 A 
ATOM      8  C   UNL d   1      59.250  -2.567  28.908  0.00  0.00     0.023 A 
ATOM      9  C   UNL d   1      60.545  -3.044  28.631  0.00  0.00     0.025 A 
ATOM     10  C   UNL d   1      58.740  -1.952  29.137  0.00  0.00     0.013 A 
ATOM     11  C   UNL d   1      58.923  -3.303  28.737  0.00  0.00     0.002 A 
ATOM     12  C   UNL d   1      59.438  -3.905  28.510  0.00  0.00     0.000 A 
ATOM     13  C   UNL d   1      60.250  -3.783  28.455  0.00  0.00     0.002 A 
ENDBRANCH   1   3
BRANCH   1  14
ATOM     14  O   UNL d   1      58.107  -0.674  30.238  0.00  0.00    -0.269 OA
BRANCH  14  15
ATOM     15  C   UNL d   1      57.708  -0.053  30.546  0.00  0.00     0.152 C 
BRANCH  15  16
ATOM     16  C   UNL d   1      57.211  -0.171  31.204  0.00  0.00     0.136 A 
ATOM     17  N   UNL d   1      56.914  -0.860  31.532  0.00  0.00    -0.236 NA
ATOM     18  C   UNL d   1      56.454  -0.643  32.176  0.00  0.00     0.088 A 
ATOM     19  C   UNL d   1      56.016  -1.085  32.719  0.00  0.00     0.020 A 
ATOM     20  C   UNL d   1      56.479   0.182  32.227  0.00  0.00     0.049 A 
ATOM     21  C   UNL d   1      55.588  -0.716  33.335  0.00  0.00     0.002 A 
ATOM     22  C   UNL d   1      55.625   0.099  33.369  0.00  0.00     0.001 A 
ATOM     23  C   UNL d   1      56.067   0.559  32.822  0.00  0.00     0.008 A 
ATOM     24  S   UNL d   1      56.942   0.460  31.632  0.00  0.00    -0.064 SA
ENDBRANCH  15  16
ENDBRANCH  14  15
ENDBRANCH   1  14
TORSDOF 4
ENDMDL
MODEL 2
REMARK VINA RESULT:      -3.5      1.236      1.796
REMARK  4 active torsions:
REMARK  status: ('A' for Active; 'I' for Inactive)
REMARK    1  A    between atoms: C_8  and  C_1 
REMARK    2  A    between atoms: C_6  and  C_16 
REMARK    3  A    between atoms: O_13  and  C_8 
REMARK    4  A    between atoms: C_16  and  O_13 
ROOT
ATOM      1  C   UNL d   1      57.951   0.069  30.054  0.00  0.00     0.305 C 
ATOM      2  O   UNL d   1      57.579   0.603  29.525  0.00  0.00    -0.259 OA
ENDROOT
BRANCH   1   3
ATOM      3  C   UNL d   1      58.548  -0.502  29.773  0.00  0.00     0.127 A 
ATOM      4  C   UNL d   1      58.369  -1.322  29.773  0.00  0.00     0.305 A 
ATOM      5  O   UNL d   1      58.947  -1.820  29.507  0.00  0.00    -0.273 OA
ATOM      6  O   UNL d   1      57.642  -1.607  30.031  0.00  0.00    -0.259 OA
ATOM      7  C   UNL d   1      59.666  -1.549  29.250  0.00  0.00     0.103 A 
ATOM      8  C   UNL d   1      59.827  -0.733  29.258  0.00  0.00     0.023 A 
ATOM      9  C   UNL d   1      60.247  -2.047  28.982  0.00  0.00     0.025 A 
ATOM     10  C   UNL d   1      59.247  -0.201  29.528  0.00  0.00     0.013 A 
ATOM     11  C   UNL d   1      60.548  -0.429  29.004  0.00  0.00     0.002 A 
ATOM     12  C   UNL d   1      61.115  -0.966  28.738  0.00  0.00     0.000 A 
ATOM     13  C   UNL d   1      60.972  -1.776  28.725  0.00  0.00     0.002 A 
ENDBRANCH   1   3
BRANCH   1  14
ATOM     14  O   UNL d   1      57.753   0.082  30.840  0.00  0.00    -0.269 OA
BRANCH  14  15
ATOM     15  C   UNL d   1      57.288   0.662  31.138  0.00  0.00     0.152 C 
BRANCH  15  16
ATOM     16  C   UNL d   1      57.078   0.644  31.944  0.00  0.00     0.136 A 
ATOM     17  N   UNL d   1      57.543   0.679  32.618  0.00  0.00    -0.236 NA
ATOM     18  C   UNL d   1      57.036   0.639  33.262  0.00  0.00     0.088 A 
ATOM     19  C   UNL d   1      57.173   0.648  34.077  0.00  0.00     0.020 A 
ATOM     20  C   UNL d   1      56.266   0.579  32.966  0.00  0.00     0.049 A 
ATOM     21  C   UNL d   1      56.543   0.598  34.624  0.00  0.00     0.002 A 
ATOM     22  C   UNL d   1      55.791   0.540  34.313  0.00  0.00     0.001 A 
ATOM     23  C   UNL d   1      55.639   0.530  33.485  0.00  0.00     0.008 A 
ATOM     24  S   UNL d   1      56.302   0.583  32.163  0.00  0.00    -0.064 SA
ENDBRANCH  15  16
ENDBRANCH  14  15
ENDBRANCH   1  14
TORSDOF 4
ENDMDL
